@<TRIPOS>MOLECULE
mol_data/opt/cam/geoms/mol2/4hf4ei4ha-6ie.out
 56 59 0 0 0
SMALL
GASTEIGER

@<TRIPOS>ATOM
      1 C          -0.2377    0.0055   -0.0936 C.ar    1  LIG1        0.0253
      2 C           1.1545    0.0419   -0.0137 C.ar    1  LIG1       -0.0298
      3 C          -0.9201    1.2128   -0.2367 C.ar    1  LIG1       -0.0376
      4 C           1.8740    1.2341   -0.0706 C.ar    1  LIG1        0.0265
      5 H           1.7013   -0.8879    0.1031 H       1  LIG1        0.0643
      6 C          -0.2213    2.4097   -0.3007 C.ar    1  LIG1       -0.0178
      7 C           1.1655    2.4340   -0.2207 C.ar    1  LIG1        0.1247
      8 H          -0.7669    3.3436   -0.4131 H       1  LIG1        0.0655
      9 H          -2.0045    1.2186   -0.2942 H       1  LIG1        0.0637
     10 N          -0.9316   -1.2057    0.0211 N.pl3   1  LIG1       -0.3579
     11 H          -1.8260   -1.2184   -0.4479 H       1  LIG1        0.1423
     12 H          -0.3848   -2.0203   -0.2186 H       1  LIG1        0.1423
     13 O           1.8711    3.6061   -0.2797 O.3     1  LIG1       -0.5062
     14 H           1.2488    4.3415   -0.3075 H       1  LIG1        0.2922
     15 C           4.0587    0.5475    1.0162 C.ar    1  LIG1        0.0331
     16 C           5.4576    0.5423    0.9950 C.ar    1  LIG1       -0.0377
     17 C           3.3591    1.2194   -0.0032 C.ar    1  LIG1        0.0013
     18 C           6.1875    1.1878    0.0015 C.ar    1  LIG1       -0.0120
     19 H           5.9863    0.0246    1.7879 H       1  LIG1        0.0636
     20 C           4.1029    1.8584   -0.9944 C.ar    1  LIG1       -0.0492
     21 C           5.4938    1.8591   -1.0215 C.ar    1  LIG1       -0.0420
     22 H           3.5663    2.3782   -1.7802 H       1  LIG1        0.0627
     23 C           3.3986   -0.1134    2.1039 C.1     1  LIG1       -0.0690
     24 C           2.8931   -0.6775    3.0398 C.1     1  LIG1       -0.1139
     25 H           2.4278   -1.1661    3.8644 H       1  LIG1        0.1232
     26 C           6.2162    2.5619   -2.1415 C.3     1  LIG1       -0.0391
     27 H           5.5346    2.7715   -2.9684 H       1  LIG1        0.0278
     28 H           7.0487    1.9642   -2.5203 H       1  LIG1        0.0278
     29 H           6.6387    3.5162   -1.8125 H       1  LIG1        0.0278
     30 C           8.3847   -0.0472   -0.1170 C.ar    1  LIG1        0.0329
     31 C           9.7825   -0.0317   -0.0610 C.ar    1  LIG1       -0.0327
     32 C           7.6781    1.1591    0.0542 C.ar    1  LIG1        0.0031
     33 C          10.4928    1.1422    0.1723 C.ar    1  LIG1       -0.0144
     34 H          10.3233   -0.9663   -0.1823 H       1  LIG1        0.0642
     35 C           8.4029    2.3265    0.2852 C.ar    1  LIG1       -0.0517
     36 C           9.7880    2.3346    0.3481 C.ar    1  LIG1       -0.0533
     37 H           7.8562    3.2545    0.4227 H       1  LIG1        0.0624
     38 N           7.7152   -1.2490   -0.2954 N.pl3   1  LIG1       -0.3575
     39 H           6.7601   -1.1810   -0.6126 H       1  LIG1        0.1423
     40 H           8.2407   -1.9848   -0.7413 H       1  LIG1        0.1423
     41 H          10.3201    3.2642    0.5142 H       1  LIG1        0.0624
     42 C          12.7476    1.5887    1.2665 C.ar    1  LIG1        0.0460
     43 C          11.9799    1.1096    0.1873 C.ar    1  LIG1        0.0044
     44 C          12.6579    0.5696   -0.9002 C.ar    1  LIG1       -0.0354
     45 C          14.0519    0.5302   -0.9154 C.ar    1  LIG1        0.0433
     46 C          14.7138    1.0499    0.1994 C.ar    1  LIG1        0.0433
     47 N          14.0847    1.5525    1.2524 N.ar    1  LIG1       -0.2583
     48 H          12.0990    0.1893   -1.7484 H       1  LIG1        0.0637
     49 H          15.8004    1.0472    0.2326 H       1  LIG1        0.0842
     50 C          12.1323    2.1516    2.5187 C.3     1  LIG1       -0.0218
     51 H          11.1821    1.6727    2.7594 H       1  LIG1        0.0293
     52 H          11.9414    3.2247    2.4155 H       1  LIG1        0.0293
     53 H          12.8338    2.0215    3.3430 H       1  LIG1        0.0293
     54 C          14.7793   -0.0123   -2.0202 C.1     1  LIG1       -0.0681
     55 C          15.3951   -0.4687   -2.9484 C.1     1  LIG1       -0.1139
     56 H          15.9422   -0.8712   -3.7695 H       1  LIG1        0.1232
@<TRIPOS>BOND
     1    56    55    1
     2    27    26    1
     3    55    54    3
     4    28    26    1
     5    26    29    1
     6    26    21    1
     7    54    45    1
     8    22    20    1
     9    48    44    1
    10    21    20   ar
    11    21    18   ar
    12    20    17   ar
    13    45    44   ar
    14    45    46   ar
    15    44    43   ar
    16    40    38    1
    17    39    38    1
    18    11    10    1
    19     8     6    1
    20    14    13    1
    21     6     3   ar
    22     6     7   ar
    23    38    30    1
    24     9     3    1
    25    13     7    1
    26     3     1   ar
    27     7     4   ar
    28    12    10    1
    29    34    31    1
    30    30    31   ar
    31    30    32   ar
    32     1     2   ar
    33     1    10    1
    34     4     2   ar
    35     4    17    1
    36    31    33   ar
    37     2     5    1
    38    17    15   ar
    39    18    32    1
    40    18    16   ar
    41    32    35   ar
    42    33    43    1
    43    33    36   ar
    44    43    42   ar
    45    46    49    1
    46    46    47   ar
    47    35    36   ar
    48    35    37    1
    49    36    41    1
    50    16    15   ar
    51    16    19    1
    52    15    23    1
    53    47    42   ar
    54    42    50    1
    55    23    24    3
    56    52    50    1
    57    50    51    1
    58    50    53    1
    59    24    25    1
