@<TRIPOS>MOLECULE
mol_data/opt/cam/geoms/mol2/4hg.out
 15 15 0 0 0
SMALL
GASTEIGER

@<TRIPOS>ATOM
      1 C           0.0526    0.0237   -0.0510 C.ar    1  LIG1        0.0246
      2 C           1.4497    0.0963   -0.0063 C.ar    1  LIG1       -0.0400
      3 C          -0.6743    1.2142   -0.1671 C.ar    1  LIG1       -0.0400
      4 C           2.0945    1.3209   -0.0724 C.ar    1  LIG1       -0.0468
      5 H           2.0306   -0.8172    0.0818 H       1  LIG1        0.0636
      6 C          -0.0222    2.4349   -0.2329 C.ar    1  LIG1       -0.0468
      7 C           1.3688    2.5064   -0.1774 C.ar    1  LIG1        0.0049
      8 H          -0.5990    3.3482   -0.3309 H       1  LIG1        0.0629
      9 H           3.1781    1.3603   -0.0447 H       1  LIG1        0.0629
     10 H          -1.7592    1.1773   -0.2050 H       1  LIG1        0.0636
     11 N          -0.5982   -1.1963    0.0622 N.pl3   1  LIG1       -0.3580
     12 H          -1.5390   -1.2290   -0.3000 H       1  LIG1        0.1423
     13 H          -0.0559   -2.0096   -0.1863 H       1  LIG1        0.1423
     14 S           2.2082    4.0816   -0.3125 S.3     1  LIG1       -0.1426
     15 H           2.2662    4.3809    0.9990 H       1  LIG1        0.1071
@<TRIPOS>BOND
     1     8     6    1
     2    14     7    1
     3    14    15    1
     4    12    11    1
     5     6     7   ar
     6     6     3   ar
     7    10     3    1
     8    13    11    1
     9     7     4   ar
    10     3     1   ar
    11     4     9    1
    12     4     2   ar
    13     1     2   ar
    14     1    11    1
    15     2     5    1
