@<TRIPOS>MOLECULE
mol_data/opt/cam/geoms/mol2/4hg4hg.out
 28 29 0 0 0
SMALL
GASTEIGER

@<TRIPOS>ATOM
      1 C          -0.0736    0.2996    0.7978 C.ar    1  LIG1        0.0252
      2 C           1.3214    0.3515    0.8170 C.ar    1  LIG1       -0.0322
      3 C          -0.7470    1.0611   -0.1612 C.ar    1  LIG1       -0.0400
      4 C           2.0427    1.1335   -0.0822 C.ar    1  LIG1       -0.0012
      5 H           1.8704   -0.2348    1.5477 H       1  LIG1        0.0642
      6 C          -0.0424    1.8484   -1.0564 C.ar    1  LIG1       -0.0462
      7 C           1.3504    1.8979   -1.0328 C.ar    1  LIG1        0.0126
      8 H          -0.5934    2.4408   -1.7802 H       1  LIG1        0.0629
      9 H          -1.8323    1.0443   -0.1987 H       1  LIG1        0.0636
     10 N          -0.7730   -0.4501    1.7375 N.pl3   1  LIG1       -0.3579
     11 H          -1.7031   -0.7303    1.4647 H       1  LIG1        0.1423
     12 H          -0.2548   -1.2046    2.1621 H       1  LIG1        0.1423
     13 S           2.2824    2.9366   -2.1497 S.3     1  LIG1       -0.1420
     14 H           1.2353    3.2970   -2.9090 H       1  LIG1        0.1071
     15 C           4.3160    0.4298   -0.9267 C.ar    1  LIG1        0.0325
     16 C           5.7088    0.4471   -0.7869 C.ar    1  LIG1       -0.0394
     17 C           3.5330    1.1450    0.0017 C.ar    1  LIG1        0.0049
     18 C           6.3149    1.1480    0.2408 C.ar    1  LIG1       -0.0468
     19 H           6.3170   -0.1102   -1.4936 H       1  LIG1        0.0636
     20 C           4.1619    1.8352    1.0343 C.ar    1  LIG1       -0.0390
     21 C           5.5477    1.8577    1.1626 C.ar    1  LIG1        0.0054
     22 H           3.5502    2.3738    1.7503 H       1  LIG1        0.0635
     23 H           7.3956    1.1458    0.3328 H       1  LIG1        0.0629
     24 N           3.7245   -0.3307   -1.9215 N.pl3   1  LIG1       -0.3575
     25 H           2.7860   -0.0586   -2.1749 H       1  LIG1        0.1423
     26 H           4.3061   -0.5129   -2.7255 H       1  LIG1        0.1423
     27 S           6.3250    2.7224    2.5232 S.3     1  LIG1       -0.1426
     28 H           6.4190    3.9369    1.9497 H       1  LIG1        0.1071
@<TRIPOS>BOND
     1    14    13    1
     2    26    24    1
     3    25    24    1
     4    13     7    1
     5    24    15    1
     6     8     6    1
     7    19    16    1
     8     6     7   ar
     9     6     3   ar
    10     7     4   ar
    11    15    16   ar
    12    15    17   ar
    13    16    18   ar
    14     9     3    1
    15     3     1   ar
    16     4    17    1
    17     4     2   ar
    18    17    20   ar
    19    18    23    1
    20    18    21   ar
    21     1     2   ar
    22     1    10    1
    23     2     5    1
    24    20    21   ar
    25    20    22    1
    26    21    27    1
    27    11    10    1
    28    10    12    1
    29    28    27    1
