@<TRIPOS>MOLECULE
mol_data/opt/cam/geoms/mol2/4hg4hg4hg-4hg-.out
 54 57 0 0 0
SMALL
GASTEIGER

@<TRIPOS>ATOM
      1 C          -0.2166    1.5491    1.0349 C.ar    1  LIG1        0.0252
      2 C           1.1764    1.4832    0.9810 C.ar    1  LIG1       -0.0322
      3 C          -0.9358    1.1888   -0.1082 C.ar    1  LIG1       -0.0400
      4 C           1.8523    1.0743   -0.1686 C.ar    1  LIG1       -0.0012
      5 H           1.7608    1.7626    1.8526 H       1  LIG1        0.0642
      6 C          -0.2764    0.7765   -1.2538 C.ar    1  LIG1       -0.0462
      7 C           1.1152    0.7053   -1.3025 C.ar    1  LIG1        0.0126
      8 H          -0.8629    0.5014   -2.1247 H       1  LIG1        0.0629
      9 H          -2.0207    1.2372   -0.1006 H       1  LIG1        0.0636
     10 N          -0.8661    2.0142    2.1735 N.pl3   1  LIG1       -0.3579
     11 H          -1.8228    1.7131    2.2825 H       1  LIG1        0.1423
     12 H          -0.3408    1.9435    3.0321 H       1  LIG1        0.1423
     13 S           1.9778    0.1434   -2.7639 S.3     1  LIG1       -0.1420
     14 H           0.8782   -0.2542   -3.4242 H       1  LIG1        0.1071
     15 C           4.0434    0.1291    0.6455 C.ar    1  LIG1        0.0330
     16 C           5.4381    0.1555    0.6234 C.ar    1  LIG1       -0.0316
     17 C           3.3434    1.0454   -0.1597 C.ar    1  LIG1        0.0049
     18 C           6.1555    1.0524   -0.1657 C.ar    1  LIG1       -0.0012
     19 H           5.9913   -0.5451    1.2418 H       1  LIG1        0.0642
     20 C           4.0606    1.9419   -0.9461 C.ar    1  LIG1       -0.0385
     21 C           5.4522    1.9571   -0.9726 C.ar    1  LIG1        0.0132
     22 H           3.5010    2.6432   -1.5567 H       1  LIG1        0.0635
     23 N           3.3713   -0.7538    1.4844 N.pl3   1  LIG1       -0.3575
     24 H           2.4206   -0.9603    1.2143 H       1  LIG1        0.1423
     25 H           3.8936   -1.5796    1.7373 H       1  LIG1        0.1423
     26 S           6.3533    3.0929   -2.0180 S.3     1  LIG1       -0.1420
     27 H           5.2881    3.4910   -2.7318 H       1  LIG1        0.1071
     28 C           8.3615   -0.0892   -0.5956 C.ar    1  LIG1        0.0330
     29 C           9.7554   -0.0635   -0.5235 C.ar    1  LIG1       -0.0316
     30 C           7.6452    1.0258   -0.1239 C.ar    1  LIG1        0.0049
     31 C          10.4553    1.0221   -0.0062 C.ar    1  LIG1       -0.0012
     32 H          10.3212   -0.9139   -0.8923 H       1  LIG1        0.0642
     33 C           8.3450    2.1066    0.4046 C.ar    1  LIG1       -0.0385
     34 C           9.7349    2.1271    0.4684 C.ar    1  LIG1        0.0132
     35 H           7.7737    2.9480    0.7837 H       1  LIG1        0.0635
     36 N           7.7060   -1.2121   -1.0883 N.pl3   1  LIG1       -0.3575
     37 H           6.7697   -1.0467   -1.4288 H       1  LIG1        0.1423
     38 H           8.2539   -1.7803   -1.7171 H       1  LIG1        0.1423
     39 S          10.6266    3.5014    1.1827 S.3     1  LIG1       -0.1420
     40 H           9.5790    4.3402    1.2215 H       1  LIG1        0.1071
     41 C          12.7183    1.6872   -0.9019 C.ar    1  LIG1        0.0325
     42 C          14.1136    1.5909   -0.8366 C.ar    1  LIG1       -0.0394
     43 C          11.9461    0.9750    0.0383 C.ar    1  LIG1        0.0049
     44 C          14.7317    0.8132    0.1268 C.ar    1  LIG1       -0.0468
     45 H          14.7142    2.1291   -1.5641 H       1  LIG1        0.0636
     46 C          12.5870    0.1907    0.9929 C.ar    1  LIG1       -0.0390
     47 C          13.9749    0.1069    1.0597 C.ar    1  LIG1        0.0054
     48 H          11.9834   -0.3613    1.7055 H       1  LIG1        0.0635
     49 H          15.8140    0.7500    0.1576 H       1  LIG1        0.0629
     50 N          12.1152    2.4166   -1.9107 N.pl3   1  LIG1       -0.3575
     51 H          11.1628    2.7016   -1.7352 H       1  LIG1        0.1423
     52 H          12.6778    3.1533   -2.3082 H       1  LIG1        0.1423
     53 S          14.7688   -0.9390    2.2758 S.3     1  LIG1       -0.1426
     54 H          14.8456   -0.0440    3.2789 H       1  LIG1        0.1071
@<TRIPOS>BOND
     1    14    13    1
     2    13     7    1
     3    27    26    1
     4    52    50    1
     5     8     6    1
     6    26    21    1
     7    50    51    1
     8    50    41    1
     9    38    36    1
    10    45    42    1
    11    22    20    1
    12    37    36    1
    13     7     6   ar
    14     7     4   ar
    15     6     3   ar
    16    36    28    1
    17    21    20   ar
    18    21    18   ar
    19    20    17   ar
    20    41    42   ar
    21    41    43   ar
    22    32    29    1
    23    42    44   ar
    24    28    29   ar
    25    28    30   ar
    26    29    31   ar
    27     4    17    1
    28     4     2   ar
    29    18    30    1
    30    18    16   ar
    31    17    15   ar
    32    30    33   ar
    33     3     9    1
    34     3     1   ar
    35    31    43    1
    36    31    34   ar
    37    43    46   ar
    38    44    49    1
    39    44    47   ar
    40    33    34   ar
    41    33    35    1
    42    34    39    1
    43    16    15   ar
    44    16    19    1
    45    15    23    1
    46     2     1   ar
    47     2     5    1
    48    46    47   ar
    49    46    48    1
    50     1    10    1
    51    47    53    1
    52    39    40    1
    53    24    23    1
    54    23    25    1
    55    10    11    1
    56    10    12    1
    57    53    54    1
