@<TRIPOS>MOLECULE
mol_data/opt/cam/geoms/mol2/4hg4hg-4hg.out
 41 43 0 0 0
SMALL
GASTEIGER

@<TRIPOS>ATOM
      1 C          -0.1446    1.1102    1.0857 C.ar    1  LIG1        0.0252
      2 C           1.2509    1.0914    1.0468 C.ar    1  LIG1       -0.0322
      3 C          -0.8370    1.0846   -0.1281 C.ar    1  LIG1       -0.0400
      4 C           1.9537    1.0485   -0.1550 C.ar    1  LIG1       -0.0012
      5 H           1.8143    1.1034    1.9750 H       1  LIG1        0.0642
      6 C          -0.1501    1.0497   -1.3300 C.ar    1  LIG1       -0.0462
      7 C           1.2432    1.0308   -1.3637 C.ar    1  LIG1        0.0126
      8 H          -0.7149    1.0448   -2.2570 H       1  LIG1        0.0629
      9 H          -1.9229    1.1021   -0.1301 H       1  LIG1        0.0636
     10 N          -0.8233    1.2018    2.2960 N.pl3   1  LIG1       -0.3579
     11 H          -1.7733    0.8620    2.2880 H       1  LIG1        0.1423
     12 H          -0.3104    0.8848    3.1050 H       1  LIG1        0.1423
     13 S           2.1557    1.0236   -2.9009 S.3     1  LIG1       -0.1420
     14 H           1.0886    0.8453   -3.6959 H       1  LIG1        0.1071
     15 C           4.1663   -0.1503   -0.3548 C.ar    1  LIG1        0.0330
     16 C           5.5598   -0.1008   -0.2889 C.ar    1  LIG1       -0.0316
     17 C           3.4454    1.0351   -0.1224 C.ar    1  LIG1        0.0049
     18 C           6.2522    1.0718    0.0027 C.ar    1  LIG1       -0.0012
     19 H           6.1304   -1.0090   -0.4593 H       1  LIG1        0.0642
     20 C           4.1372    2.2058    0.1734 C.ar    1  LIG1       -0.0385
     21 C           5.5272    2.2491    0.2313 C.ar    1  LIG1        0.0132
     22 H           3.5579    3.1068    0.3493 H       1  LIG1        0.0635
     23 N           3.5153   -1.3571   -0.5788 N.pl3   1  LIG1       -0.3575
     24 H           2.5824   -1.2741   -0.9564 H       1  LIG1        0.1423
     25 H           4.0644   -2.0461   -1.0711 H       1  LIG1        0.1423
     26 S           6.4103    3.7636    0.5746 S.3     1  LIG1       -0.1420
     27 H           5.3348    4.5647    0.5049 H       1  LIG1        0.1071
     28 C           8.5002    0.9083   -1.1194 C.ar    1  LIG1        0.0325
     29 C           9.8961    0.8737   -1.0243 C.ar    1  LIG1       -0.0394
     30 C           7.7426    1.0463    0.0605 C.ar    1  LIG1        0.0049
     31 C          10.5298    0.9785    0.2018 C.ar    1  LIG1       -0.0468
     32 H          10.4853    0.7604   -1.9297 H       1  LIG1        0.0636
     33 C           8.3989    1.1449    1.2841 C.ar    1  LIG1       -0.0390
     34 C           9.7880    1.1231    1.3724 C.ar    1  LIG1        0.0054
     35 H           7.8081    1.2411    2.1888 H       1  LIG1        0.0635
     36 H          11.6126    0.9495    0.2548 H       1  LIG1        0.0629
     37 N           7.8798    0.7619   -2.3494 N.pl3   1  LIG1       -0.3575
     38 H           6.9258    1.0878   -2.4010 H       1  LIG1        0.1423
     39 H           8.4351    1.0194   -3.1509 H       1  LIG1        0.1423
     40 S          10.6052    1.2089    2.9624 S.3     1  LIG1       -0.1426
     41 H          10.6347    2.5489    3.0888 H       1  LIG1        0.1071
@<TRIPOS>BOND
     1    14    13    1
     2    39    37    1
     3    13     7    1
     4    38    37    1
     5    37    28    1
     6     8     6    1
     7    32    29    1
     8     7     6   ar
     9     7     4   ar
    10     6     3   ar
    11    28    29   ar
    12    28    30   ar
    13    25    23    1
    14    29    31   ar
    15    24    23    1
    16    23    15    1
    17    19    16    1
    18    15    16   ar
    19    15    17   ar
    20    16    18   ar
    21     4    17    1
    22     4     2   ar
    23     9     3    1
    24     3     1   ar
    25    17    20   ar
    26    18    30    1
    27    18    21   ar
    28    30    33   ar
    29    20    21   ar
    30    20    22    1
    31    31    36    1
    32    31    34   ar
    33    21    26    1
    34    27    26    1
    35     2     1   ar
    36     2     5    1
    37     1    10    1
    38    33    34   ar
    39    33    35    1
    40    34    40    1
    41    11    10    1
    42    10    12    1
    43    40    41    1
