@<TRIPOS>MOLECULE
mol_data/opt/cam/geoms/mol2/4hg4hg-4hg4hg-.out
 54 57 0 0 0
SMALL
GASTEIGER

@<TRIPOS>ATOM
      1 C          -0.2111    1.9279    0.7674 C.ar    1  LIG1        0.0252
      2 C           1.1827    1.8590    0.7240 C.ar    1  LIG1       -0.0322
      3 C          -0.9379    1.0899   -0.0830 C.ar    1  LIG1       -0.0400
      4 C           1.8506    0.9882   -0.1337 C.ar    1  LIG1       -0.0012
      5 H           1.7726    2.4939    1.3784 H       1  LIG1        0.0642
      6 C          -0.2858    0.2250   -0.9456 C.ar    1  LIG1       -0.0462
      7 C           1.1059    0.1594   -0.9851 C.ar    1  LIG1        0.0126
      8 H          -0.8770   -0.4035   -1.6043 H       1  LIG1        0.0629
      9 H          -2.0233    1.1234   -0.0747 H       1  LIG1        0.0636
     10 N          -0.8550    2.8393    1.5970 N.pl3   1  LIG1       -0.3579
     11 H          -1.8059    2.6073    1.8418 H       1  LIG1        0.1423
     12 H          -0.3206    3.1527    2.3936 H       1  LIG1        0.1423
     13 S           1.9740   -0.9198   -2.1152 S.3     1  LIG1       -0.1420
     14 H           0.8851   -1.5783   -2.5431 H       1  LIG1        0.1071
     15 C           4.0573   -0.0632    0.4990 C.ar    1  LIG1        0.0330
     16 C           5.4520   -0.0106    0.4804 C.ar    1  LIG1       -0.0316
     17 C           3.3427    0.9708   -0.1329 C.ar    1  LIG1        0.0049
     18 C           6.1532    1.0243   -0.1350 C.ar    1  LIG1       -0.0012
     19 H           6.0175   -0.7984    0.9691 H       1  LIG1        0.0642
     20 C           4.0429    2.0078   -0.7410 C.ar    1  LIG1       -0.0385
     21 C           5.4341    2.0502   -0.7638 C.ar    1  LIG1        0.0132
     22 H           3.4687    2.7939   -1.2213 H       1  LIG1        0.0635
     23 N           3.4009   -1.0778    1.1831 N.pl3   1  LIG1       -0.3575
     24 H           2.4569   -1.2594    0.8737 H       1  LIG1        0.1423
     25 H           3.9356   -1.9266    1.2941 H       1  LIG1        0.1423
     26 S           6.3150    3.3678   -1.5912 S.3     1  LIG1       -0.1420
     27 H           5.2376    3.8863   -2.2021 H       1  LIG1        0.1071
     28 C           8.3720    0.0030   -0.7596 C.ar    1  LIG1        0.0330
     29 C           9.7661    0.0394   -0.6934 C.ar    1  LIG1       -0.0316
     30 C           7.6434    1.0120   -0.1033 C.ar    1  LIG1        0.0049
     31 C          10.4544    1.0339   -0.0058 C.ar    1  LIG1       -0.0012
     32 H          10.3412   -0.7277   -1.2035 H       1  LIG1        0.0642
     33 C           8.3321    1.9987    0.5963 C.ar    1  LIG1       -0.0385
     34 C           9.7220    2.0306    0.6540 C.ar    1  LIG1        0.0132
     35 H           7.7518    2.7549    1.1154 H       1  LIG1        0.0635
     36 N           7.7305   -1.0323   -1.4291 N.pl3   1  LIG1       -0.3575
     37 H           6.7854   -0.8345   -1.7243 H       1  LIG1        0.1423
     38 H           8.2799   -1.4785   -2.1484 H       1  LIG1        0.1423
     39 S          10.5997    3.2787    1.5845 S.3     1  LIG1       -0.1420
     40 H           9.5380    4.0771    1.7794 H       1  LIG1        0.1071
     41 C          12.6962    1.8786   -0.7966 C.ar    1  LIG1        0.0325
     42 C          14.0935    1.7968   -0.7612 C.ar    1  LIG1       -0.0394
     43 C          11.9462    1.0057    0.0176 C.ar    1  LIG1        0.0049
     44 C          14.7350    0.8793    0.0522 C.ar    1  LIG1       -0.0468
     45 H          14.6769    2.4596   -1.3938 H       1  LIG1        0.0636
     46 C          12.6104    0.0837    0.8211 C.ar    1  LIG1       -0.0390
     47 C          14.0002    0.0137    0.8601 C.ar    1  LIG1        0.0054
     48 H          12.0242   -0.5904    1.4367 H       1  LIG1        0.0635
     49 H          15.8184    0.8303    0.0619 H       1  LIG1        0.0629
     50 N          12.0702    2.7562   -1.6635 N.pl3   1  LIG1       -0.3575
     51 H          11.1147    2.9892   -1.4359 H       1  LIG1        0.1423
     52 H          12.6157    3.5598   -1.9353 H       1  LIG1        0.1423
     53 S          14.8244   -1.2082    1.8755 S.3     1  LIG1       -0.1426
     54 H          14.9002   -0.4933    3.0139 H       1  LIG1        0.1071
@<TRIPOS>BOND
     1    14    13    1
     2    27    26    1
     3    38    36    1
     4    13     7    1
     5    52    50    1
     6    37    36    1
     7    50    51    1
     8    50    41    1
     9     8     6    1
    10    26    21    1
    11    36    28    1
    12    45    42    1
    13    22    20    1
    14    32    29    1
    15     7     6   ar
    16     7     4   ar
    17     6     3   ar
    18    41    42   ar
    19    41    43   ar
    20    21    20   ar
    21    21    18   ar
    22    42    44   ar
    23    28    29   ar
    24    28    30   ar
    25    20    17   ar
    26    29    31   ar
    27    18    30    1
    28    18    16   ar
    29     4    17    1
    30     4     2   ar
    31    17    15   ar
    32    30    33   ar
    33     3     9    1
    34     3     1   ar
    35    31    43    1
    36    31    34   ar
    37    43    46   ar
    38    44    49    1
    39    44    47   ar
    40    16    15   ar
    41    16    19    1
    42    15    23    1
    43    33    34   ar
    44    33    35    1
    45    34    39    1
    46     2     1   ar
    47     2     5    1
    48     1    10    1
    49    46    47   ar
    50    46    48    1
    51    47    53    1
    52    24    23    1
    53    23    25    1
    54    39    40    1
    55    10    11    1
    56    10    12    1
    57    53    54    1
