@<TRIPOS>MOLECULE
mol_data/opt/cam/geoms/mol2/4hg4hg4hg-.out
 41 43 0 0 0
SMALL
GASTEIGER

@<TRIPOS>ATOM
      1 C          -0.1586    0.8147    1.0302 C.ar    1  LIG1        0.0252
      2 C           1.2366    0.8061    1.0005 C.ar    1  LIG1       -0.0322
      3 C          -0.8391    1.0922   -0.1588 C.ar    1  LIG1       -0.0400
      4 C           1.9521    1.0650   -0.1686 C.ar    1  LIG1       -0.0012
      5 H           1.7912    0.5990    1.9108 H       1  LIG1        0.0642
      6 C          -0.1403    1.3463   -1.3268 C.ar    1  LIG1       -0.0462
      7 C           1.2535    1.3303   -1.3548 C.ar    1  LIG1        0.0126
      8 H          -0.6971    1.5565   -2.2345 H       1  LIG1        0.0629
      9 H          -1.9249    1.1141   -0.1664 H       1  LIG1        0.0636
     10 N          -0.8490    0.6096    2.2202 N.pl3   1  LIG1       -0.3579
     11 H          -1.7972    0.2794    2.1221 H       1  LIG1        0.1423
     12 H          -0.3409    0.1119    2.9360 H       1  LIG1        0.1423
     13 S           2.1667    1.6219   -2.8637 S.3     1  LIG1       -0.1420
     14 H           1.0952    1.6110   -3.6731 H       1  LIG1        0.1071
     15 C           4.1521   -0.1312    0.1289 C.ar    1  LIG1        0.0330
     16 C           5.5463   -0.0780    0.1698 C.ar    1  LIG1       -0.0316
     17 C           3.4426    1.0570   -0.1217 C.ar    1  LIG1        0.0049
     18 C           6.2530    1.1040   -0.0288 C.ar    1  LIG1       -0.0012
     19 H           6.1070   -0.9898    0.3531 H       1  LIG1        0.0642
     20 C           4.1492    2.2416   -0.3080 C.ar    1  LIG1       -0.0385
     21 C           5.5394    2.2866   -0.2693 C.ar    1  LIG1        0.0132
     22 H           3.5826    3.1515   -0.4786 H       1  LIG1        0.0635
     23 N           3.4890   -1.3298    0.3705 N.pl3   1  LIG1       -0.3575
     24 H           2.5518   -1.3814   -0.0016 H       1  LIG1        0.1423
     25 H           4.0306   -2.1593    0.1774 H       1  LIG1        0.1423
     26 S           6.4405    3.8165   -0.4712 S.3     1  LIG1       -0.1420
     27 H           5.3904    4.5397   -0.8916 H       1  LIG1        0.1071
     28 C           8.5140    1.1267   -1.1491 C.ar    1  LIG1        0.0325
     29 C           9.9092    1.0734   -1.0434 C.ar    1  LIG1       -0.0394
     30 C           7.7439    1.0802    0.0308 C.ar    1  LIG1        0.0049
     31 C          10.5291    0.9745    0.1897 C.ar    1  LIG1       -0.0468
     32 H          10.5081    1.0987   -1.9492 H       1  LIG1        0.0636
     33 C           8.3865    0.9708    1.2606 C.ar    1  LIG1       -0.0390
     34 C           9.7743    0.9283    1.3603 C.ar    1  LIG1        0.0054
     35 H           7.7844    0.9256    2.1619 H       1  LIG1        0.0635
     36 H          11.6112    0.9309    0.2486 H       1  LIG1        0.0629
     37 N           7.9092    1.1585   -2.3930 N.pl3   1  LIG1       -0.3575
     38 H           6.9597    1.5010   -2.4090 H       1  LIG1        0.1423
     39 H           8.4737    1.5359   -3.1388 H       1  LIG1        0.1423
     40 S          10.5698    0.7493    2.9535 S.3     1  LIG1       -0.1426
     41 H          10.6599    2.0547    3.2711 H       1  LIG1        0.1071
@<TRIPOS>BOND
     1    14    13    1
     2    39    37    1
     3    13     7    1
     4    38    37    1
     5    37    28    1
     6     8     6    1
     7    32    29    1
     8     7     6   ar
     9     7     4   ar
    10     6     3   ar
    11    28    29   ar
    12    28    30   ar
    13    29    31   ar
    14    27    26    1
    15    22    20    1
    16    26    21    1
    17    20    21   ar
    18    20    17   ar
    19    21    18   ar
    20     4    17    1
    21     4     2   ar
    22     9     3    1
    23     3     1   ar
    24    17    15   ar
    25    18    30    1
    26    18    16   ar
    27    24    23    1
    28    30    33   ar
    29    15    16   ar
    30    15    23    1
    31    16    19    1
    32    25    23    1
    33    31    36    1
    34    31    34   ar
    35     2     1   ar
    36     2     5    1
    37     1    10    1
    38    33    34   ar
    39    33    35    1
    40    34    40    1
    41    11    10    1
    42    10    12    1
    43    40    41    1
