@<TRIPOS>MOLECULE
mol_data/opt/cam/geoms/mol2/4hg4hg-4hg-4hg.out
 54 57 0 0 0
SMALL
GASTEIGER

@<TRIPOS>ATOM
      1 C          -0.2167    1.5439    1.0359 C.ar    1  LIG1        0.0252
      2 C           1.1762    1.4775    0.9820 C.ar    1  LIG1       -0.0322
      3 C          -0.9356    1.1943   -0.1107 C.ar    1  LIG1       -0.0400
      4 C           1.8524    1.0785   -0.1709 C.ar    1  LIG1       -0.0012
      5 H           1.7604    1.7489    1.8562 H       1  LIG1        0.0642
      6 C          -0.2760    0.7917   -1.2596 C.ar    1  LIG1       -0.0462
      7 C           1.1155    0.7200   -1.3084 C.ar    1  LIG1        0.0126
      8 H          -0.8623    0.5247   -2.1332 H       1  LIG1        0.0629
      9 H          -2.0205    1.2433   -0.1031 H       1  LIG1        0.0636
     10 N          -0.8664    1.9993    2.1782 N.pl3   1  LIG1       -0.3579
     11 H          -1.8234    1.6979    2.2842 H       1  LIG1        0.1423
     12 H          -0.3415    1.9207    3.0363 H       1  LIG1        0.1423
     13 S           1.9785    0.1706   -2.7744 S.3     1  LIG1       -0.1420
     14 H           0.8789   -0.2205   -3.4386 H       1  LIG1        0.1071
     15 C           4.0425    0.1246    0.6357 C.ar    1  LIG1        0.0330
     16 C           5.4372    0.1504    0.6145 C.ar    1  LIG1       -0.0316
     17 C           3.3434    1.0485   -0.1617 C.ar    1  LIG1        0.0049
     18 C           6.1556    1.0537   -0.1664 C.ar    1  LIG1       -0.0012
     19 H           5.9898   -0.5561    1.2268 H       1  LIG1        0.0642
     20 C           4.0616    1.9515   -0.9398 C.ar    1  LIG1       -0.0385
     21 C           5.4532    1.9660   -0.9655 C.ar    1  LIG1        0.0132
     22 H           3.5027    2.6586   -1.5444 H       1  LIG1        0.0635
     23 N           3.3695   -0.7653    1.4664 N.pl3   1  LIG1       -0.3575
     24 H           2.4188   -0.9687    1.1940 H       1  LIG1        0.1423
     25 H           3.8911   -1.5935    1.7122 H       1  LIG1        0.1423
     26 S           6.3555    3.1104   -2.0004 S.3     1  LIG1       -0.1420
     27 H           5.2908    3.5155   -2.7111 H       1  LIG1        0.1071
     28 C           8.3611   -0.0854   -0.6054 C.ar    1  LIG1        0.0330
     29 C           9.7549   -0.0613   -0.5325 C.ar    1  LIG1       -0.0316
     30 C           7.6452    1.0258   -0.1242 C.ar    1  LIG1        0.0049
     31 C          10.4552    1.0193   -0.0053 C.ar    1  LIG1       -0.0012
     32 H          10.3203   -0.9088   -0.9086 H       1  LIG1        0.0642
     33 C           8.3455    2.1014    0.4142 C.ar    1  LIG1       -0.0385
     34 C           9.7354    2.1205    0.4788 C.ar    1  LIG1        0.0132
     35 H           7.7746    2.9398    0.8005 H       1  LIG1        0.0635
     36 N           7.7050   -1.2035   -1.1084 N.pl3   1  LIG1       -0.3575
     37 H           6.7690   -1.0345   -1.4478 H       1  LIG1        0.1423
     38 H           8.2528   -1.7665   -1.7420 H       1  LIG1        0.1423
     39 S          10.6277    3.4878    1.2056 S.3     1  LIG1       -0.1420
     40 H           9.5806    4.3269    1.2514 H       1  LIG1        0.1071
     41 C          12.7191    1.6908   -0.8941 C.ar    1  LIG1        0.0325
     42 C          14.1143    1.5930   -0.8290 C.ar    1  LIG1       -0.0394
     43 C          11.9460    0.9708    0.0394 C.ar    1  LIG1        0.0049
     44 C          14.7315    0.8064    0.1277 C.ar    1  LIG1       -0.0468
     45 H          14.7156    2.1372   -1.5515 H       1  LIG1        0.0636
     46 C          12.5860    0.1776    0.9873 C.ar    1  LIG1       -0.0390
     47 C          13.9738    0.0924    1.0540 C.ar    1  LIG1        0.0054
     48 H          11.9818   -0.3803    1.6947 H       1  LIG1        0.0635
     49 H          15.8138    0.7423    0.1584 H       1  LIG1        0.0629
     50 N          12.1169    2.4295   -1.8966 N.pl3   1  LIG1       -0.3575
     51 H          11.1646    2.7135   -1.7190 H       1  LIG1        0.1423
     52 H          12.6801    3.1693   -2.2873 H       1  LIG1        0.1423
     53 S          14.7665   -0.9648    2.2611 S.3     1  LIG1       -0.1426
     54 H          14.8435   -0.0788    3.2721 H       1  LIG1        0.1071
@<TRIPOS>BOND
     1    14    13    1
     2    13     7    1
     3    27    26    1
     4    52    50    1
     5     8     6    1
     6    26    21    1
     7    50    51    1
     8    50    41    1
     9    38    36    1
    10    45    42    1
    11    22    20    1
    12    37    36    1
    13     7     6   ar
    14     7     4   ar
    15     6     3   ar
    16    36    28    1
    17    21    20   ar
    18    21    18   ar
    19    20    17   ar
    20    32    29    1
    21    41    42   ar
    22    41    43   ar
    23    42    44   ar
    24    28    29   ar
    25    28    30   ar
    26    29    31   ar
    27     4    17    1
    28     4     2   ar
    29    18    30    1
    30    18    16   ar
    31    17    15   ar
    32    30    33   ar
    33     3     9    1
    34     3     1   ar
    35    31    43    1
    36    31    34   ar
    37    43    46   ar
    38    44    49    1
    39    44    47   ar
    40    33    34   ar
    41    33    35    1
    42    34    39    1
    43    16    15   ar
    44    16    19    1
    45    15    23    1
    46     2     1   ar
    47     2     5    1
    48    46    47   ar
    49    46    48    1
    50     1    10    1
    51    47    53    1
    52    24    23    1
    53    39    40    1
    54    23    25    1
    55    10    11    1
    56    10    12    1
    57    53    54    1
