@<TRIPOS>MOLECULE
mol_data/opt/cam/geoms/mol2/4hg4hg4hg.out
 41 43 0 0 0
SMALL
GASTEIGER

@<TRIPOS>ATOM
      1 C          -0.1605    0.8123    1.0193 C.ar    1  LIG1        0.0252
      2 C           1.2347    0.8022    0.9919 C.ar    1  LIG1       -0.0322
      3 C          -0.8387    1.1005   -0.1684 C.ar    1  LIG1       -0.0400
      4 C           1.9525    1.0697   -0.1739 C.ar    1  LIG1       -0.0012
      5 H           1.7875    0.5870    1.9014 H       1  LIG1        0.0642
      6 C          -0.1376    1.3632   -1.3332 C.ar    1  LIG1       -0.0462
      7 C           1.2563    1.3456   -1.3591 C.ar    1  LIG1        0.0126
      8 H          -0.6927    1.5814   -2.2401 H       1  LIG1        0.0629
      9 H          -1.9244    1.1238   -0.1777 H       1  LIG1        0.0636
     10 N          -0.8531    0.5984    2.2065 N.pl3   1  LIG1       -0.3579
     11 H          -1.8017    0.2703    2.1041 H       1  LIG1        0.1423
     12 H          -0.3469    0.0943    2.9190 H       1  LIG1        0.1423
     13 S           2.1723    1.6483   -2.8640 S.3     1  LIG1       -0.1420
     14 H           1.1022    1.6454   -3.6752 H       1  LIG1        0.1071
     15 C           4.1504   -0.1317    0.1175 C.ar    1  LIG1        0.0330
     16 C           5.5447   -0.0807    0.1612 C.ar    1  LIG1       -0.0316
     17 C           3.4429    1.0593   -0.1245 C.ar    1  LIG1        0.0049
     18 C           6.2532    1.1019   -0.0266 C.ar    1  LIG1       -0.0012
     19 H           6.1038   -0.9947    0.3379 H       1  LIG1        0.0642
     20 C           4.1513    2.2446   -0.3000 C.ar    1  LIG1       -0.0385
     21 C           5.5415    2.2874   -0.2587 C.ar    1  LIG1        0.0132
     22 H           3.5862    3.1565   -0.4641 H       1  LIG1        0.0635
     23 N           3.4854   -1.3314    0.3482 N.pl3   1  LIG1       -0.3575
     24 H           2.5488   -1.3787   -0.0258 H       1  LIG1        0.1423
     25 H           4.0263   -2.1600    0.1493 H       1  LIG1        0.1423
     26 S           6.4449    3.8177   -0.4466 S.3     1  LIG1       -0.1420
     27 H           5.3965    4.5457   -0.8628 H       1  LIG1        0.1071
     28 C           8.5161    1.1308   -1.1430 C.ar    1  LIG1        0.0325
     29 C           9.9110    1.0750   -1.0354 C.ar    1  LIG1       -0.0394
     30 C           7.7439    1.0758    0.0352 C.ar    1  LIG1        0.0049
     31 C          10.5287    0.9652    0.1979 C.ar    1  LIG1       -0.0468
     32 H          10.5115    1.1068   -1.9399 H       1  LIG1        0.0636
     33 C           8.3844    0.9556    1.2652 C.ar    1  LIG1       -0.0390
     34 C           9.7719    0.9104    1.3669 C.ar    1  LIG1        0.0054
     35 H           7.7807    0.9038    2.1650 H       1  LIG1        0.0635
     36 H          11.6107    0.9197    0.2582 H       1  LIG1        0.0629
     37 N           7.9134    1.1736   -2.3875 N.pl3   1  LIG1       -0.3575
     38 H           6.9643    1.5174   -2.4023 H       1  LIG1        0.1423
     39 H           8.4797    1.5563   -3.1293 H       1  LIG1        0.1423
     40 S          10.5646    0.7175    2.9598 S.3     1  LIG1       -0.1426
     41 H          10.6558    2.0201    3.2882 H       1  LIG1        0.1071
@<TRIPOS>BOND
     1    14    13    1
     2    39    37    1
     3    13     7    1
     4    38    37    1
     5    37    28    1
     6     8     6    1
     7    32    29    1
     8     7     6   ar
     9     7     4   ar
    10     6     3   ar
    11    28    29   ar
    12    28    30   ar
    13    29    31   ar
    14    27    26    1
    15    22    20    1
    16    26    21    1
    17    20    21   ar
    18    20    17   ar
    19    21    18   ar
    20     9     3    1
    21     4    17    1
    22     4     2   ar
    23     3     1   ar
    24    17    15   ar
    25    18    30    1
    26    18    16   ar
    27    24    23    1
    28    30    33   ar
    29    15    16   ar
    30    15    23    1
    31    25    23    1
    32    16    19    1
    33    31    36    1
    34    31    34   ar
    35     2     1   ar
    36     2     5    1
    37     1    10    1
    38    33    34   ar
    39    33    35    1
    40    34    40    1
    41    11    10    1
    42    10    12    1
    43    40    41    1
