@<TRIPOS>MOLECULE
mol_data/opt/cam/geoms/mol2/4hg4hg4hg4hg.out
 54 57 0 0 0
SMALL
GASTEIGER

@<TRIPOS>ATOM
      1 C          -0.2212    1.4936    1.0284 C.ar    1  LIG1        0.0252
      2 C           1.1720    1.4339    0.9767 C.ar    1  LIG1       -0.0322
      3 C          -0.9359    1.1650   -0.1271 C.ar    1  LIG1       -0.0400
      4 C           1.8527    1.0616   -0.1825 C.ar    1  LIG1       -0.0012
      5 H           1.7530    1.6893    1.8579 H       1  LIG1        0.0642
      6 C          -0.2718    0.7891   -1.2824 C.ar    1  LIG1       -0.0462
      7 C           1.1201    0.7239   -1.3291 C.ar    1  LIG1        0.0126
      8 H          -0.8549    0.5380   -2.1629 H       1  LIG1        0.0629
      9 H          -2.0210    1.2095   -0.1213 H       1  LIG1        0.0636
     10 N          -0.8757    1.9225    2.1783 N.pl3   1  LIG1       -0.3579
     11 H          -1.8317    1.6152    2.2754 H       1  LIG1        0.1423
     12 H          -0.3526    1.8281    3.0359 H       1  LIG1        0.1423
     13 S           1.9889    0.2085   -2.8039 S.3     1  LIG1       -0.1420
     14 H           0.8925   -0.1730   -3.4790 H       1  LIG1        0.1071
     15 C           4.0446    0.0999    0.6097 C.ar    1  LIG1        0.0330
     16 C           5.4393    0.1316    0.5926 C.ar    1  LIG1       -0.0316
     17 C           3.3438    1.0374   -0.1701 C.ar    1  LIG1        0.0049
     18 C           6.1559    1.0539   -0.1674 C.ar    1  LIG1       -0.0012
     19 H           5.9931   -0.5852    1.1916 H       1  LIG1        0.0642
     20 C           4.0602    1.9592   -0.9274 C.ar    1  LIG1       -0.0385
     21 C           5.4519    1.9798   -0.9493 C.ar    1  LIG1        0.0132
     22 H           3.5000    2.6764   -1.5186 H       1  LIG1        0.0635
     23 N           3.3731   -0.8097    1.4200 N.pl3   1  LIG1       -0.3575
     24 H           2.4240   -1.0113    1.1411 H       1  LIG1        0.1423
     25 H           3.8975   -1.6409    1.6499 H       1  LIG1        0.1423
     26 S           6.3521    3.1490   -1.9578 S.3     1  LIG1       -0.1420
     27 H           5.2876    3.5646   -2.6627 H       1  LIG1        0.1071
     28 C           8.3671   -0.0671   -0.6244 C.ar    1  LIG1        0.0330
     29 C           9.7606   -0.0390   -0.5474 C.ar    1  LIG1       -0.0316
     30 C           7.6456    1.0310   -0.1220 C.ar    1  LIG1        0.0049
     31 C          10.4553    1.0332    0.0040 C.ar    1  LIG1       -0.0012
     32 H          10.3304   -0.8762   -0.9395 H       1  LIG1        0.0642
     33 C           8.3401    2.0980    0.4404 C.ar    1  LIG1       -0.0385
     34 C           9.7298    2.1212    0.5089 C.ar    1  LIG1        0.0132
     35 H           7.7649    2.9259    0.8426 H       1  LIG1        0.0635
     36 N           7.7168   -1.1771   -1.1521 N.pl3   1  LIG1       -0.3575
     37 H           6.7809   -1.0048   -1.4904 H       1  LIG1        0.1423
     38 H           8.2684   -1.7246   -1.7959 H       1  LIG1        0.1423
     39 S          10.6147    3.4767    1.2663 S.3     1  LIG1       -0.1420
     40 H           9.5641    4.3105    1.3268 H       1  LIG1        0.1071
     41 C          12.7186    1.7321   -0.8649 C.ar    1  LIG1        0.0325
     42 C          14.1140    1.6385   -0.7983 C.ar    1  LIG1       -0.0394
     43 C          11.9461    0.9897    0.0514 C.ar    1  LIG1        0.0049
     44 C          14.7320    0.8347    0.1435 C.ar    1  LIG1       -0.0468
     45 H          14.7149    2.2000   -1.5078 H       1  LIG1        0.0636
     46 C          12.5869    0.1796    0.9843 C.ar    1  LIG1       -0.0390
     47 C          13.9749    0.0985    1.0528 C.ar    1  LIG1        0.0054
     48 H          11.9832   -0.3953    1.6785 H       1  LIG1        0.0635
     49 H          15.8145    0.7742    0.1756 H       1  LIG1        0.0629
     50 N          12.1160    2.4890   -1.8534 N.pl3   1  LIG1       -0.3575
     51 H          11.1620    2.7655   -1.6724 H       1  LIG1        0.1423
     52 H          12.6771    3.2391   -2.2272 H       1  LIG1        0.1423
     53 S          14.7689   -0.9804    2.2397 S.3     1  LIG1       -0.1426
     54 H          14.8398   -0.1153    3.2691 H       1  LIG1        0.1071
@<TRIPOS>BOND
     1    14    13    1
     2    13     7    1
     3    27    26    1
     4    52    50    1
     5     8     6    1
     6    26    21    1
     7    50    51    1
     8    50    41    1
     9    38    36    1
    10    22    20    1
    11    45    42    1
    12    37    36    1
    13     7     6   ar
    14     7     4   ar
    15     6     3   ar
    16    36    28    1
    17    21    20   ar
    18    21    18   ar
    19    32    29    1
    20    20    17   ar
    21    41    42   ar
    22    41    43   ar
    23    42    44   ar
    24    28    29   ar
    25    28    30   ar
    26    29    31   ar
    27     4    17    1
    28     4     2   ar
    29    17    15   ar
    30    18    30    1
    31    18    16   ar
    32     3     9    1
    33     3     1   ar
    34    30    33   ar
    35    31    43    1
    36    31    34   ar
    37    43    46   ar
    38    44    49    1
    39    44    47   ar
    40    33    34   ar
    41    33    35    1
    42    34    39    1
    43    16    15   ar
    44    16    19    1
    45    15    23    1
    46     2     1   ar
    47     2     5    1
    48    46    47   ar
    49    46    48    1
    50     1    10    1
    51    47    53    1
    52    24    23    1
    53    39    40    1
    54    23    25    1
    55    10    11    1
    56    10    12    1
    57    53    54    1
