@<TRIPOS>MOLECULE
mol_data/opt/cam/geoms/mol2/4hg4hg-4hg-4hg-.out
 54 57 0 0 0
SMALL
GASTEIGER

@<TRIPOS>ATOM
      1 C          -0.2204    1.5306    1.0198 C.ar    1  LIG1        0.0252
      2 C           1.1727    1.4679    0.9690 C.ar    1  LIG1       -0.0322
      3 C          -0.9361    1.1717   -0.1259 C.ar    1  LIG1       -0.0400
      4 C           1.8523    1.0636   -0.1800 C.ar    1  LIG1       -0.0012
      5 H           1.7545    1.7464    1.8427 H       1  LIG1        0.0642
      6 C          -0.2731    0.7639   -1.2710 C.ar    1  LIG1       -0.0462
      7 C           1.1187    0.6958   -1.3166 C.ar    1  LIG1        0.0126
      8 H          -0.8570    0.4897   -2.1440 H       1  LIG1        0.0629
      9 H          -2.0212    1.2177   -0.1207 H       1  LIG1        0.0636
     10 N          -0.8737    1.9913    2.1580 N.pl3   1  LIG1       -0.3579
     11 H          -1.8300    1.6879    2.2640 H       1  LIG1        0.1423
     12 H          -0.3502    1.9196    3.0176 H       1  LIG1        0.1423
     13 S           1.9860    0.1397   -2.7775 S.3     1  LIG1       -0.1420
     14 H           0.8889   -0.2587   -3.4414 H       1  LIG1        0.1071
     15 C           4.0436    0.1210    0.6368 C.ar    1  LIG1        0.0330
     16 C           5.4382    0.1507    0.6181 C.ar    1  LIG1       -0.0316
     17 C           3.3434    1.0379   -0.1677 C.ar    1  LIG1        0.0049
     18 C           6.1556    1.0512   -0.1670 C.ar    1  LIG1       -0.0012
     19 H           5.9916   -0.5503    1.2360 H       1  LIG1        0.0642
     20 C           4.0605    1.9380   -0.9501 C.ar    1  LIG1       -0.0385
     21 C           5.4521    1.9564   -0.9732 C.ar    1  LIG1        0.0132
     22 H           3.5008    2.6397   -1.5602 H       1  LIG1        0.0635
     23 N           3.3715   -0.7655    1.4718 N.pl3   1  LIG1       -0.3575
     24 H           2.4219   -0.9734    1.1989 H       1  LIG1        0.1423
     25 H           3.8950   -1.5907    1.7238 H       1  LIG1        0.1423
     26 S           6.3531    3.0969   -2.0135 S.3     1  LIG1       -0.1420
     27 H           5.2887    3.4945   -2.7288 H       1  LIG1        0.1071
     28 C           8.3651   -0.0844   -0.5946 C.ar    1  LIG1        0.0330
     29 C           9.7587   -0.0558   -0.5192 C.ar    1  LIG1       -0.0316
     30 C           7.6452    1.0278   -0.1218 C.ar    1  LIG1        0.0049
     31 C          10.4550    1.0300    0.0026 C.ar    1  LIG1       -0.0012
     32 H          10.3273   -0.9040   -0.8888 H       1  LIG1        0.0642
     33 C           8.3413    2.1087    0.4112 C.ar    1  LIG1       -0.0385
     34 C           9.7310    2.1322    0.4783 C.ar    1  LIG1        0.0132
     35 H           7.7672    2.9479    0.7912 H       1  LIG1        0.0635
     36 N           7.7132   -1.2074   -1.0918 N.pl3   1  LIG1       -0.3575
     37 H           6.7774   -1.0432   -1.4341 H       1  LIG1        0.1423
     38 H           8.2639   -1.7729   -1.7208 H       1  LIG1        0.1423
     39 S          10.6180    3.5066    1.1983 S.3     1  LIG1       -0.1420
     40 H           9.5684    4.3430    1.2368 H       1  LIG1        0.1071
     41 C          12.7186    1.7025   -0.8860 C.ar    1  LIG1        0.0325
     42 C          14.1140    1.6091   -0.8176 C.ar    1  LIG1       -0.0394
     43 C          11.9458    0.9861    0.0505 C.ar    1  LIG1        0.0049
     44 C          14.7315    0.8303    0.1452 C.ar    1  LIG1       -0.0468
     45 H          14.7151    2.1505   -1.5424 H       1  LIG1        0.0636
     46 C          12.5861    0.2008    1.0046 C.ar    1  LIG1       -0.0390
     47 C          13.9741    0.1199    1.0745 C.ar    1  LIG1        0.0054
     48 H          11.9821   -0.3544    1.7143 H       1  LIG1        0.0635
     49 H          15.8139    0.7694    0.1783 H       1  LIG1        0.0629
     50 N          12.1163    2.4331   -1.8944 N.pl3   1  LIG1       -0.3575
     51 H          11.1628    2.7155   -1.7204 H       1  LIG1        0.1423
     52 H          12.6781    3.1721   -2.2886 H       1  LIG1        0.1423
     53 S          14.7674   -0.9274    2.2897 S.3     1  LIG1       -0.1426
     54 H          14.8399   -0.0349    3.2953 H       1  LIG1        0.1071
@<TRIPOS>BOND
     1    14    13    1
     2    13     7    1
     3    27    26    1
     4    52    50    1
     5     8     6    1
     6    26    21    1
     7    50    51    1
     8    50    41    1
     9    38    36    1
    10    22    20    1
    11    45    42    1
    12    37    36    1
    13     7     6   ar
    14     7     4   ar
    15     6     3   ar
    16    36    28    1
    17    21    20   ar
    18    21    18   ar
    19    20    17   ar
    20    32    29    1
    21    41    42   ar
    22    41    43   ar
    23    42    44   ar
    24    28    29   ar
    25    28    30   ar
    26    29    31   ar
    27     4    17    1
    28     4     2   ar
    29    17    15   ar
    30    18    30    1
    31    18    16   ar
    32     3     9    1
    33     3     1   ar
    34    30    33   ar
    35    31    43    1
    36    31    34   ar
    37    43    46   ar
    38    44    49    1
    39    44    47   ar
    40    33    34   ar
    41    33    35    1
    42    34    39    1
    43    16    15   ar
    44    16    19    1
    45    15    23    1
    46     2     1   ar
    47     2     5    1
    48    46    47   ar
    49    46    48    1
    50     1    10    1
    51    47    53    1
    52    39    40    1
    53    24    23    1
    54    23    25    1
    55    10    11    1
    56    10    12    1
    57    53    54    1
