@<TRIPOS>MOLECULE
mol_data/opt/cam/geoms/mol2/4hg4hg-4hg-.out
 41 43 0 0 0
SMALL
GASTEIGER

@<TRIPOS>ATOM
      1 C          -0.1582    0.8370    1.0373 C.ar    1  LIG1        0.0252
      2 C           1.2368    0.8226    1.0059 C.ar    1  LIG1       -0.0322
      3 C          -0.8391    1.1146   -0.1515 C.ar    1  LIG1       -0.0400
      4 C           1.9520    1.0758   -0.1647 C.ar    1  LIG1       -0.0012
      5 H           1.7918    0.6155    1.9161 H       1  LIG1        0.0642
      6 C          -0.1407    1.3630   -1.3209 C.ar    1  LIG1       -0.0462
      7 C           1.2530    1.3412   -1.3507 C.ar    1  LIG1        0.0126
      8 H          -0.6978    1.5733   -2.2285 H       1  LIG1        0.0629
      9 H          -1.9248    1.1409   -0.1578 H       1  LIG1        0.0636
     10 N          -0.8479    0.6376    2.2286 N.pl3   1  LIG1       -0.3579
     11 H          -1.7977    0.3111    2.1325 H       1  LIG1        0.1423
     12 H          -0.3411    0.1395    2.9450 H       1  LIG1        0.1423
     13 S           2.1655    1.6254   -2.8614 S.3     1  LIG1       -0.1420
     14 H           1.0930    1.6170   -3.6694 H       1  LIG1        0.1071
     15 C           4.1474   -0.1287    0.1330 C.ar    1  LIG1        0.0330
     16 C           5.5419   -0.0812    0.1721 C.ar    1  LIG1       -0.0316
     17 C           3.4425    1.0617   -0.1196 C.ar    1  LIG1        0.0049
     18 C           6.2532    1.0974   -0.0303 C.ar    1  LIG1       -0.0012
     19 H           6.0990   -0.9948    0.3569 H       1  LIG1        0.0642
     20 C           4.1537    2.2430   -0.3097 C.ar    1  LIG1       -0.0385
     21 C           5.5442    2.2824   -0.2728 C.ar    1  LIG1        0.0132
     22 H           3.5907    3.1548   -0.4818 H       1  LIG1        0.0635
     23 N           3.4797   -1.3240    0.3784 N.pl3   1  LIG1       -0.3575
     24 H           2.5418   -1.3726    0.0075 H       1  LIG1        0.1423
     25 H           4.0176   -2.1562    0.1867 H       1  LIG1        0.1423
     26 S           6.4513    3.8080   -0.4796 S.3     1  LIG1       -0.1420
     27 H           5.4037    4.5346   -0.9004 H       1  LIG1        0.1071
     28 C           8.5129    1.1081   -1.1534 C.ar    1  LIG1        0.0325
     29 C           9.9079    1.0494   -1.0494 C.ar    1  LIG1       -0.0394
     30 C           7.7440    1.0676    0.0275 C.ar    1  LIG1        0.0049
     31 C          10.5289    0.9508    0.1833 C.ar    1  LIG1       -0.0468
     32 H          10.5058    1.0700   -1.9559 H       1  LIG1        0.0636
     33 C           8.3877    0.9586    1.2568 C.ar    1  LIG1       -0.0390
     34 C           9.7754    0.9106    1.3549 C.ar    1  LIG1        0.0054
     35 H           7.7866    0.9180    2.1589 H       1  LIG1        0.0635
     36 H          11.6109    0.9029    0.2409 H       1  LIG1        0.0629
     37 N           7.9066    1.1394   -2.3966 N.pl3   1  LIG1       -0.3575
     38 H           6.9585    1.4858   -2.4123 H       1  LIG1        0.1423
     39 H           8.4718    1.5126   -3.1440 H       1  LIG1        0.1423
     40 S          10.5722    0.7322    2.9475 S.3     1  LIG1       -0.1426
     41 H          10.6680    2.0379    3.2619 H       1  LIG1        0.1071
@<TRIPOS>BOND
     1    14    13    1
     2    39    37    1
     3    13     7    1
     4    38    37    1
     5    37    28    1
     6     8     6    1
     7    32    29    1
     8     7     6   ar
     9     7     4   ar
    10     6     3   ar
    11    28    29   ar
    12    28    30   ar
    13    29    31   ar
    14    27    26    1
    15    22    20    1
    16    26    21    1
    17    20    21   ar
    18    20    17   ar
    19    21    18   ar
    20     4    17    1
    21     4     2   ar
    22     9     3    1
    23     3     1   ar
    24    17    15   ar
    25    18    30    1
    26    18    16   ar
    27    24    23    1
    28    30    33   ar
    29    15    16   ar
    30    15    23    1
    31    16    19    1
    32    31    36    1
    33    31    34   ar
    34    25    23    1
    35     2     1   ar
    36     2     5    1
    37     1    10    1
    38    33    34   ar
    39    33    35    1
    40    34    40    1
    41    11    10    1
    42    10    12    1
    43    40    41    1
