@<TRIPOS>MOLECULE
mol_data/opt/cam/geoms/mol2/4hg4hg-4hg4hg.out
 54 57 0 0 0
SMALL
GASTEIGER

@<TRIPOS>ATOM
      1 C          -0.2121    1.9070    0.7793 C.ar    1  LIG1        0.0252
      2 C           1.1817    1.8404    0.7351 C.ar    1  LIG1       -0.0322
      3 C          -0.9379    1.0813   -0.0840 C.ar    1  LIG1       -0.0400
      4 C           1.8507    0.9837   -0.1358 C.ar    1  LIG1       -0.0012
      5 H           1.7707    2.4658    1.3993 H       1  LIG1        0.0642
      6 C          -0.2846    0.2305   -0.9597 C.ar    1  LIG1       -0.0462
      7 C           1.1072    0.1672   -1.0000 C.ar    1  LIG1        0.0126
      8 H          -0.8749   -0.3884   -1.6280 H       1  LIG1        0.0629
      9 H          -2.0233    1.1134   -0.0754 H       1  LIG1        0.0636
     10 N          -0.8573    2.8048    1.6228 N.pl3   1  LIG1       -0.3579
     11 H          -1.8080    2.5679    1.8638 H       1  LIG1        0.1423
     12 H          -0.3234    3.1065    2.4241 H       1  LIG1        0.1423
     13 S           1.9767   -0.8935   -2.1463 S.3     1  LIG1       -0.1420
     14 H           0.8887   -1.5466   -2.5845 H       1  LIG1        0.1071
     15 C           4.0587   -0.0747    0.4811 C.ar    1  LIG1        0.0330
     16 C           5.4532   -0.0201    0.4636 C.ar    1  LIG1       -0.0316
     17 C           3.3429    0.9681   -0.1349 C.ar    1  LIG1        0.0049
     18 C           6.1534    1.0249   -0.1357 C.ar    1  LIG1       -0.0012
     19 H           6.0196   -0.8147    0.9402 H       1  LIG1        0.0642
     20 C           4.0420    2.0151   -0.7269 C.ar    1  LIG1       -0.0385
     21 C           5.4331    2.0595   -0.7487 C.ar    1  LIG1        0.0132
     22 H           3.4669    2.8078   -1.1951 H       1  LIG1        0.0635
     23 N           3.4033   -1.1005    1.1494 N.pl3   1  LIG1       -0.3575
     24 H           2.4596   -1.2785    0.8370 H       1  LIG1        0.1423
     25 H           3.9390   -1.9502    1.2474 H       1  LIG1        0.1423
     26 S           6.3125    3.3907   -1.5556 S.3     1  LIG1       -0.1420
     27 H           5.2346    3.9173   -2.1587 H       1  LIG1        0.1071
     28 C           8.3735    0.0160   -0.7755 C.ar    1  LIG1        0.0330
     29 C           9.7675    0.0530   -0.7085 C.ar    1  LIG1       -0.0316
     30 C           7.6435    1.0138   -0.1039 C.ar    1  LIG1        0.0049
     31 C          10.4545    1.0377   -0.0056 C.ar    1  LIG1       -0.0012
     32 H          10.3436   -0.7055   -1.2302 H       1  LIG1        0.0642
     33 C           8.3309    1.9905    0.6109 C.ar    1  LIG1       -0.0385
     34 C           9.7207    2.0232    0.6694 C.ar    1  LIG1        0.0132
     35 H           7.7497    2.7380    1.1415 H       1  LIG1        0.0635
     36 N           7.7333   -1.0097   -1.4610 N.pl3   1  LIG1       -0.3575
     37 H           6.7880   -0.8085   -1.7533 H       1  LIG1        0.1423
     38 H           8.2834   -1.4441   -2.1870 H       1  LIG1        0.1423
     39 S          10.5969    3.2578    1.6192 S.3     1  LIG1       -0.1420
     40 H           9.5342    4.0519    1.8261 H       1  LIG1        0.1071
     41 C          12.6954    1.8970   -0.7829 C.ar    1  LIG1        0.0325
     42 C          14.0928    1.8164   -0.7484 C.ar    1  LIG1       -0.0394
     43 C          11.9463    1.0109    0.0176 C.ar    1  LIG1        0.0049
     44 C          14.7353    0.8872    0.0508 C.ar    1  LIG1       -0.0468
     45 H          14.6755    2.4895   -1.3706 H       1  LIG1        0.0636
     46 C          12.6115    0.0774    0.8071 C.ar    1  LIG1       -0.0390
     47 C          14.0014    0.0084    0.8452 C.ar    1  LIG1        0.0054
     48 H          12.0260   -0.6068    1.4121 H       1  LIG1        0.0635
     49 H          15.8188    0.8394    0.0600 H       1  LIG1        0.0629
     50 N          12.0685    2.7871   -1.6363 N.pl3   1  LIG1       -0.3575
     51 H          11.1127    3.0154   -1.4053 H       1  LIG1        0.1423
     52 H          12.6131    3.5954   -1.8956 H       1  LIG1        0.1423
     53 S          14.8268   -1.2279    1.8418 S.3     1  LIG1       -0.1426
     54 H          14.9016   -0.5306    2.9912 H       1  LIG1        0.1071
@<TRIPOS>BOND
     1    14    13    1
     2    38    36    1
     3    27    26    1
     4    13     7    1
     5    52    50    1
     6    37    36    1
     7    50    51    1
     8    50    41    1
     9     8     6    1
    10    26    21    1
    11    36    28    1
    12    45    42    1
    13    32    29    1
    14    22    20    1
    15     7     6   ar
    16     7     4   ar
    17     6     3   ar
    18    41    42   ar
    19    41    43   ar
    20    28    29   ar
    21    28    30   ar
    22    21    20   ar
    23    21    18   ar
    24    42    44   ar
    25    20    17   ar
    26    29    31   ar
    27     4    17    1
    28     4     2   ar
    29    18    30    1
    30    18    16   ar
    31    17    15   ar
    32    30    33   ar
    33     3     9    1
    34     3     1   ar
    35    31    43    1
    36    31    34   ar
    37    43    46   ar
    38    44    49    1
    39    44    47   ar
    40    16    15   ar
    41    16    19    1
    42    15    23    1
    43    33    34   ar
    44    33    35    1
    45    34    39    1
    46     2     1   ar
    47     2     5    1
    48     1    10    1
    49    46    47   ar
    50    46    48    1
    51    24    23    1
    52    47    53    1
    53    23    25    1
    54    39    40    1
    55    10    11    1
    56    10    12    1
    57    53    54    1
