@<TRIPOS>MOLECULE
mol_data/opt/cam/geoms/mol2/4hg4hg-.out
 28 29 0 0 0
SMALL
GASTEIGER

@<TRIPOS>ATOM
      1 C          -0.0767    0.3126    0.8019 C.ar    1  LIG1        0.0252
      2 C           1.3184    0.3597    0.8212 C.ar    1  LIG1       -0.0322
      3 C          -0.7472    1.0722   -0.1607 C.ar    1  LIG1       -0.0400
      4 C           2.0427    1.1352   -0.0812 C.ar    1  LIG1       -0.0012
      5 H           1.8652   -0.2253    1.5547 H       1  LIG1        0.0642
      6 C          -0.0396    1.8530   -1.0592 C.ar    1  LIG1       -0.0462
      7 C           1.3534    1.8977   -1.0353 C.ar    1  LIG1        0.0126
      8 H          -0.5884    2.4442   -1.7857 H       1  LIG1        0.0629
      9 H          -1.8325    1.0591   -0.1984 H       1  LIG1        0.0636
     10 N          -0.7791   -0.4305    1.7447 N.pl3   1  LIG1       -0.3579
     11 H          -1.7100   -0.7089    1.4728 H       1  LIG1        0.1423
     12 H          -0.2635   -1.1847    2.1730 H       1  LIG1        0.1423
     13 S           2.2893    2.9282   -2.1566 S.3     1  LIG1       -0.1420
     14 H           1.2437    3.2889   -2.9179 H       1  LIG1        0.1071
     15 C           4.3137    0.4197   -0.9219 C.ar    1  LIG1        0.0325
     16 C           5.7066    0.4328   -0.7819 C.ar    1  LIG1       -0.0394
     17 C           3.5330    1.1418    0.0031 C.ar    1  LIG1        0.0049
     18 C           6.3149    1.1361    0.2429 C.ar    1  LIG1       -0.0468
     19 H           6.3130   -0.1297   -1.4858 H       1  LIG1        0.0636
     20 C           4.1640    1.8344    1.0328 C.ar    1  LIG1       -0.0390
     21 C           5.5498    1.8525    1.1614 C.ar    1  LIG1        0.0054
     22 H           3.5540    2.3783    1.7462 H       1  LIG1        0.0635
     23 H           7.3955    1.1306    0.3353 H       1  LIG1        0.0629
     24 N           3.7199   -0.3431   -1.9136 N.pl3   1  LIG1       -0.3575
     25 H           2.7824   -0.0688   -2.1684 H       1  LIG1        0.1423
     26 H           4.3011   -0.5309   -2.7165 H       1  LIG1        0.1423
     27 S           6.3298    2.7205    2.5184 S.3     1  LIG1       -0.1426
     28 H           6.4283    3.9321    1.9395 H       1  LIG1        0.1071
@<TRIPOS>BOND
     1    14    13    1
     2    26    24    1
     3    25    24    1
     4    13     7    1
     5    24    15    1
     6     8     6    1
     7    19    16    1
     8     6     7   ar
     9     6     3   ar
    10     7     4   ar
    11    15    16   ar
    12    15    17   ar
    13    16    18   ar
    14     9     3    1
    15     3     1   ar
    16     4    17    1
    17     4     2   ar
    18    17    20   ar
    19    18    23    1
    20    18    21   ar
    21     1     2   ar
    22     1    10    1
    23     2     5    1
    24    20    21   ar
    25    20    22    1
    26    21    27    1
    27    11    10    1
    28    10    12    1
    29    28    27    1
