@<TRIPOS>MOLECULE
mol_data/opt/cam/geoms/mol2/4hh.out
 16 16 0 0 0
SMALL
GASTEIGER

@<TRIPOS>ATOM
      1 C           0.0733    0.0232   -0.0419 C.ar    1  LIG1        0.0247
      2 C           1.4689    0.0303   -0.0398 C.ar    1  LIG1       -0.0393
      3 C          -0.5838    1.2544   -0.0428 C.ar    1  LIG1       -0.0393
      4 C           2.1795    1.2219   -0.0406 C.ar    1  LIG1       -0.0393
      5 H           2.0085   -0.9128   -0.0344 H       1  LIG1        0.0636
      6 C           0.1269    2.4460   -0.0434 C.ar    1  LIG1       -0.0393
      7 C           1.5224    2.4532   -0.0432 C.ar    1  LIG1        0.0247
      8 H          -0.4128    3.3892   -0.0407 H       1  LIG1        0.0636
      9 H           3.2658    1.1955   -0.0357 H       1  LIG1        0.0636
     10 H          -1.6701    1.2809   -0.0397 H       1  LIG1        0.0636
     11 N          -0.6453   -1.1817    0.0136 N.pl3   1  LIG1       -0.3580
     12 H          -1.5755   -1.1204   -0.3762 H       1  LIG1        0.1423
     13 H          -0.1490   -1.9711   -0.3757 H       1  LIG1        0.1423
     14 N           2.2410    3.6582    0.0109 N.pl3   1  LIG1       -0.3580
     15 H           3.1715    3.5962   -0.3779 H       1  LIG1        0.1423
     16 H           1.7451    4.4469   -0.3803 H       1  LIG1        0.1423
@<TRIPOS>BOND
     1    16    14    1
     2    15    14    1
     3    12    11    1
     4    13    11    1
     5     6     7   ar
     6     6     3   ar
     7     6     8    1
     8     7     4   ar
     9     7    14    1
    10     3     1   ar
    11     3    10    1
    12     1     2   ar
    13     1    11    1
    14     4     2   ar
    15     4     9    1
    16     2     5    1
