@<TRIPOS>MOLECULE
mol_data/opt/cam/geoms/mol2/4hh12il-13ai13hl.out
 55 58 0 0 0
SMALL
GASTEIGER

@<TRIPOS>ATOM
      1 C          -0.1558    0.1385   -0.8504 C.ar    1  LIG1        0.0253
      2 C           1.2278    0.2083   -0.7218 C.ar    1  LIG1       -0.0286
      3 C          -0.9218    1.0545   -0.1279 C.ar    1  LIG1       -0.0393
      4 C           1.8548    1.1440    0.1077 C.ar    1  LIG1        0.0400
      5 H           1.8498   -0.4725   -1.2949 H       1  LIG1        0.0644
      6 C          -0.3159    1.9950    0.6885 C.ar    1  LIG1       -0.0386
      7 C           1.0714    2.0634    0.8342 C.ar    1  LIG1        0.0354
      8 H          -0.9354    2.6929    1.2452 H       1  LIG1        0.0637
      9 H          -2.0050    1.0312   -0.2063 H       1  LIG1        0.0636
     10 N          -0.7623   -0.8476   -1.6442 N.pl3   1  LIG1       -0.3579
     11 H          -1.6699   -0.5823   -2.0007 H       1  LIG1        0.1423
     12 H          -0.1743   -1.1885   -2.3919 H       1  LIG1        0.1423
     13 N           1.6369    2.9676    1.7341 N.pl3   1  LIG1       -0.3574
     14 H           2.5856    3.2397    1.5283 H       1  LIG1        0.1423
     15 H           1.0451    3.7516    1.9635 H       1  LIG1        0.1423
     16 C           3.3139    1.1138    0.2153 C.ar    1  LIG1        0.1441
     17 C           4.2162    0.0958    0.3131 C.ar    1  LIG1        0.0377
     18 C           5.5021    0.7244    0.3887 C.ar    1  LIG1        0.1706
     19 C           5.3157    2.0723    0.3369 C.ar    1  LIG1        0.1934
     20 O           3.9769    2.3226    0.2304 O.2     1  LIG1       -0.4492
     21 C           3.9689   -1.3750    0.4027 C.3     1  LIG1       -0.0326
     22 H           4.6997   -1.8341    1.0734 H       1  LIG1        0.0280
     23 H           4.0645   -1.8702   -0.5700 H       1  LIG1        0.0280
     24 H           2.9668   -1.5838    0.7819 H       1  LIG1        0.0280
     25 O           6.7010    0.0920    0.5439 O.3     1  LIG1       -0.4910
     26 C           7.2417   -0.4228   -0.6660 C.3     1  LIG1        0.0790
     27 H           8.1866   -0.9029   -0.4084 H       1  LIG1        0.0660
     28 H           6.5741   -1.1641   -1.1197 H       1  LIG1        0.0660
     29 H           7.4253    0.3813   -1.3870 H       1  LIG1        0.0660
     30 C           6.2088    3.2000    0.3687 C.ar    1  LIG1        0.0865
     31 C           7.5653    3.2732    0.6015 C.ar    1  LIG1       -0.0297
     32 C           7.9563    4.6346    0.4955 C.ar    1  LIG1       -0.0230
     33 C           6.8185    5.3611    0.1870 C.ar    1  LIG1        0.0683
     34 N           5.7616    4.4748    0.1297 N.ar    1  LIG1       -0.3503
     35 H           4.8453    4.6982   -0.2235 H       1  LIG1        0.1660
     36 H           8.1945    2.4337    0.8586 H       1  LIG1        0.0643
     37 C           9.3267    5.1832    0.7526 C.3     1  LIG1       -0.0376
     38 H           9.3805    6.2494    0.5266 H       1  LIG1        0.0278
     39 H          10.0813    4.6754    0.1431 H       1  LIG1        0.0278
     40 H           9.6173    5.0452    1.7992 H       1  LIG1        0.0278
     41 C           6.6113    6.7793   -0.0440 C.ar    1  LIG1        0.0877
     42 C           7.2951    7.6710   -0.8422 C.ar    1  LIG1        0.0939
     43 C           6.6318    8.9264   -0.7308 C.ar    1  LIG1        0.1585
     44 C           5.5639    8.7758    0.1153 C.ar    1  LIG1        0.0463
     45 N           5.5355    7.4642    0.5077 N.ar    1  LIG1       -0.3550
     46 H           5.0064    7.1154    1.2892 H       1  LIG1        0.1655
     47 H           4.8267    9.4934    0.4387 H       1  LIG1        0.0845
     48 N           8.4327    7.4456   -1.6307 N.pl3   1  LIG1       -0.3535
     49 H           8.5570    6.4635   -1.8467 H       1  LIG1        0.1425
     50 H           8.3947    7.9867   -2.4871 H       1  LIG1        0.1425
     51 O           6.9782   10.0548   -1.4249 O.3     1  LIG1       -0.4918
     52 C           8.1369   10.6964   -0.9078 C.3     1  LIG1        0.0789
     53 H           8.3427   11.5489   -1.5574 H       1  LIG1        0.0660
     54 H           7.9646   11.0521    0.1147 H       1  LIG1        0.0660
     55 H           8.9988   10.0202   -0.9068 H       1  LIG1        0.0660
@<TRIPOS>BOND
     1    50    48    1
     2    12    10    1
     3    11    10    1
     4    49    48    1
     5    10     1    1
     6    48    42    1
     7    53    52    1
     8    51    52    1
     9    51    43    1
    10    29    26    1
    11     5     2    1
    12    28    26    1
    13    52    55    1
    14    52    54    1
    15     1     2   ar
    16     1     3   ar
    17    42    43   ar
    18    42    41   ar
    19    43    44   ar
    20     2     4   ar
    21    26    27    1
    22    26    25    1
    23    23    21    1
    24    35    34    1
    25     9     3    1
    26     3     6   ar
    27    41    33    1
    28    41    45   ar
    29     4    16    1
    30     4     7   ar
    31    44    47    1
    32    44    45   ar
    33    34    33   ar
    34    34    30   ar
    35    39    37    1
    36    33    32   ar
    37    16    20   ar
    38    16    17   ar
    39    20    19   ar
    40    17    18   ar
    41    17    21    1
    42    19    30    1
    43    19    18   ar
    44    30    31   ar
    45    18    25    1
    46    21    24    1
    47    21    22    1
    48    32    31   ar
    49    32    37    1
    50    45    46    1
    51    38    37    1
    52    31    36    1
    53     6     7   ar
    54     6     8    1
    55    37    40    1
    56     7    13    1
    57    14    13    1
    58    13    15    1
