@<TRIPOS>MOLECULE
mol_data/opt/cam/geoms/mol2/4hh12hl-6ld4fh4af6eh-12ih-12ha-.out
 101 108 0 0 0
SMALL
GASTEIGER

@<TRIPOS>ATOM
      1 C           0.5109   -1.3448    1.4135 C.ar    1  LIG1        0.0253
      2 C           1.7224   -0.9584    0.8540 C.ar    1  LIG1       -0.0285
      3 C          -0.4154   -0.3435    1.7163 C.ar    1  LIG1       -0.0393
      4 C           2.0299    0.3843    0.5788 C.ar    1  LIG1        0.0416
      5 H           2.4761   -1.7152    0.6573 H       1  LIG1        0.0644
      6 C          -0.1106    0.9860    1.4906 C.ar    1  LIG1       -0.0386
      7 C           1.1050    1.3927    0.9297 C.ar    1  LIG1        0.0355
      8 H          -0.8320    1.7509    1.7640 H       1  LIG1        0.0637
      9 H          -1.3715   -0.6085    2.1586 H       1  LIG1        0.0636
     10 N           0.2526   -2.6855    1.7335 N.pl3   1  LIG1       -0.3579
     11 H          -0.7291   -2.9222    1.7554 H       1  LIG1        0.1423
     12 H           0.7723   -3.3522    1.1807 H       1  LIG1        0.1423
     13 N           1.3504    2.7568    0.7794 N.pl3   1  LIG1       -0.3574
     14 H           2.1957    3.0230    0.2982 H       1  LIG1        0.1423
     15 H           0.5421    3.3087    0.5380 H       1  LIG1        0.1423
     16 C           3.2836    0.6645   -0.1083 C.ar    1  LIG1        0.1618
     17 C           4.0722   -0.0781   -0.9488 C.ar    1  LIG1        0.1140
     18 C           5.1750    0.7562   -1.2949 C.ar    1  LIG1        0.1872
     19 C           4.9953    1.9675   -0.6803 C.ar    1  LIG1        0.1841
     20 O           3.8495    1.9025    0.0436 O.2     1  LIG1       -0.4489
     21 N           3.9134   -1.3845   -1.4218 N.pl3   1  LIG1       -0.3522
     22 H           2.9428   -1.6719   -1.4461 H       1  LIG1        0.1425
     23 H           4.3276   -1.4859   -2.3417 H       1  LIG1        0.1425
     24 O           6.1845    0.3919   -2.1385 O.3     1  LIG1       -0.4896
     25 C           7.1064   -0.5327   -1.5539 C.3     1  LIG1        0.0791
     26 H           7.8251   -0.7882   -2.3327 H       1  LIG1        0.0660
     27 H           7.6282   -0.0754   -0.7071 H       1  LIG1        0.0660
     28 H           6.5912   -1.4358   -1.2131 H       1  LIG1        0.0660
     29 C           5.3750    4.3966   -0.0396 C.ar    1  LIG1        0.2262
     30 C           5.7571    3.2040   -0.7105 C.ar    1  LIG1        0.0837
     31 C           6.9316    3.2905   -1.4411 C.ar    1  LIG1       -0.0263
     32 C           7.6905    4.4657   -1.4483 C.ar    1  LIG1        0.0787
     33 C           7.2579    5.5652   -0.6940 C.ar    1  LIG1        0.0957
     34 N           6.0959    5.4991   -0.0331 N.ar    1  LIG1       -0.2109
     35 H           7.2552    2.4379   -2.0251 H       1  LIG1        0.0640
     36 O           4.2106    4.3937    0.6198 O.3     1  LIG1       -0.4792
     37 C           3.8582    5.5556    1.3664 C.3     1  LIG1        0.0804
     38 H           2.9251    5.2927    1.8629 H       1  LIG1        0.0660
     39 H           4.6314    5.7975    2.0977 H       1  LIG1        0.0660
     40 H           3.7183    6.4165    0.7089 H       1  LIG1        0.0660
     41 N           9.8161    4.5682   -2.9193 N.1     1  LIG1       -0.1908
     42 C           8.8621    4.5230   -2.2637 C.1     1  LIG1        0.1013
     43 C           9.3581    6.9610   -0.4030 C.ar    1  LIG1        0.1267
     44 C           9.9373    8.2195   -0.3115 C.ar    1  LIG1       -0.0101
     45 C           7.9781    6.8583   -0.6129 C.ar    1  LIG1        0.0449
     46 C           9.1991    9.3944   -0.4252 C.ar    1  LIG1        0.0064
     47 H          11.0015    8.2735   -0.1096 H       1  LIG1        0.0661
     48 C           7.2298    8.0322   -0.7103 C.ar    1  LIG1       -0.0277
     49 C           7.8074    9.2959   -0.6348 C.ar    1  LIG1        0.0332
     50 H           6.1580    7.9459   -0.8557 H       1  LIG1        0.0644
     51 O          10.1343    5.8470   -0.1752 O.3     1  LIG1       -0.5061
     52 H          10.5384    5.5599   -1.0069 H       1  LIG1        0.2922
     53 N           7.0001   10.4330   -0.7351 N.pl3   1  LIG1       -0.3575
     54 H           7.4767   11.2557   -1.0782 H       1  LIG1        0.1423
     55 H           6.1318   10.2730   -1.2257 H       1  LIG1        0.1423
     56 C          11.0642   10.9403   -1.0511 C.ar    1  LIG1       -0.0532
     57 C          11.7217   12.1575   -0.9361 C.ar    1  LIG1       -0.0499
     58 C           9.8944   10.7038   -0.3272 C.ar    1  LIG1       -0.0125
     59 C          11.2471   13.1748   -0.1117 C.ar    1  LIG1        0.0263
     60 H          12.6179   12.3413   -1.5204 H       1  LIG1        0.0625
     61 C           9.4173   11.7117    0.5157 C.ar    1  LIG1       -0.0118
     62 C          10.0851   12.9255    0.6311 C.ar    1  LIG1        0.1252
     63 H           8.5235   11.5360    1.1079 H       1  LIG1        0.0660
     64 H          11.4444   10.1773   -1.7210 H       1  LIG1        0.0624
     65 O           9.6649   13.8963    1.4810 O.3     1  LIG1       -0.5061
     66 H           8.8234   13.6384    1.8746 H       1  LIG1        0.2922
     67 C          11.3969   15.6932   -0.3916 C.ar    1  LIG1        0.1218
     68 C          11.9708   14.4657   -0.0059 C.ar    1  LIG1        0.0212
     69 C          13.2818   14.4901    0.4430 C.ar    1  LIG1       -0.0284
     70 C          13.9885   15.6891    0.5289 C.ar    1  LIG1        0.0546
     71 C          13.3053   16.8681    0.1666 C.ar    1  LIG1        0.1282
     72 N          12.0570   16.8469   -0.2940 N.ar    1  LIG1       -0.2328
     73 H          13.7631   13.5607    0.7339 H       1  LIG1        0.0644
     74 C          10.0718   15.7585   -0.9455 C.1     1  LIG1       -0.0492
     75 C           8.9723   15.8172   -1.4304 C.1     1  LIG1       -0.1124
     76 H           8.0006   15.8885   -1.8608 H       1  LIG1        0.1232
     77 N          15.2980   15.7130    0.9843 N.pl3   1  LIG1       -0.3562
     78 H          15.8093   14.8507    0.8657 H       1  LIG1        0.1424
     79 H          15.8233   16.5292    0.7007 H       1  LIG1        0.1424
     80 C          13.9577   18.1860    0.2313 C.ar    1  LIG1        0.1605
     81 C          14.6207   18.8711    1.2087 C.ar    1  LIG1        0.0183
     82 C          14.9528   20.1447    0.6355 C.ar    1  LIG1        0.0777
     83 C          14.4532   20.1484   -0.6399 C.ar    1  LIG1        0.1932
     84 O          13.8558   18.9591   -0.8903 O.2     1  LIG1       -0.4479
     85 C          14.8861   18.4710    2.6258 C.3     1  LIG1       -0.0343
     86 H          14.1950   18.9754    3.3100 H       1  LIG1        0.0279
     87 H          15.9011   18.7488    2.9293 H       1  LIG1        0.0279
     88 H          14.7774   17.3964    2.7713 H       1  LIG1        0.0279
     89 N          15.6787   21.2073    1.2488 N.pl3   1  LIG1       -0.3547
     90 H          15.4175   21.3089    2.2244 H       1  LIG1        0.1424
     91 H          16.6808   21.0398    1.2190 H       1  LIG1        0.1424
     92 C          14.4528   21.1214   -1.6997 C.ar    1  LIG1        0.1920
     93 C          14.6376   22.4832   -1.7247 C.ar    1  LIG1        0.0741
     94 C          14.5035   22.8675   -3.0989 C.ar    1  LIG1       -0.0024
     95 C          14.2406   21.7310   -3.7882 C.ar    1  LIG1        0.0946
     96 O          14.2038   20.6632   -2.9725 O.2     1  LIG1       -0.4579
     97 H          14.0588   21.5353   -4.8335 H       1  LIG1        0.1030
     98 N          14.8301   23.3330   -0.6516 N.pl3   1  LIG1       -0.3550
     99 H          15.1975   22.8593    0.1739 H       1  LIG1        0.1424
    100 H          15.3222   24.1832   -0.8830 H       1  LIG1        0.1424
    101 H          14.5764   23.8679   -3.4997 H       1  LIG1        0.0668
@<TRIPOS>BOND
     1    97    95    1
     2    95    94   ar
     3    95    96   ar
     4   101    94    1
     5    94    93   ar
     6    96    92   ar
     7    41    42    3
     8    23    21    1
     9    26    25    1
    10    42    32    1
    11    24    25    1
    12    24    18    1
    13    35    31    1
    14    76    75    1
    15    93    92   ar
    16    93    98    1
    17    64    56    1
    18    92    83    1
    19    25    28    1
    20    25    27    1
    21    60    57    1
    22    32    31   ar
    23    32    33   ar
    24    22    21    1
    25    31    30   ar
    26    75    74    3
    27    21    17    1
    28    18    17   ar
    29    18    19   ar
    30    55    53    1
    31    54    53    1
    32    56    57   ar
    33    56    58   ar
    34    52    51    1
    35    17    16   ar
    36    74    67    1
    37    57    59   ar
    38    84    83   ar
    39    84    80   ar
    40   100    98    1
    41    50    48    1
    42    53    49    1
    43    30    19    1
    44    30    29   ar
    45    48    49   ar
    46    48    45   ar
    47    33    45    1
    48    33    34   ar
    49    19    20   ar
    50    98    99    1
    51    83    82   ar
    52    49    46   ar
    53    45    43   ar
    54    46    58    1
    55    46    44   ar
    56    43    44   ar
    57    43    51    1
    58    67    72   ar
    59    67    68   ar
    60    58    61   ar
    61    44    47    1
    62    72    71   ar
    63    59    68    1
    64    59    62   ar
    65    16    20   ar
    66    16     4    1
    67    29    34   ar
    68    29    36    1
    69    68    69   ar
    70    71    80    1
    71    71    70   ar
    72    80    81   ar
    73    14    13    1
    74    69    70   ar
    75    69    73    1
    76    61    62   ar
    77    61    63    1
    78    70    77    1
    79    15    13    1
    80     4     2   ar
    81     4     7   ar
    82    36    37    1
    83    62    65    1
    84    82    81   ar
    85    82    89    1
    86     5     2    1
    87    79    77    1
    88    40    37    1
    89    13     7    1
    90     2     1   ar
    91    78    77    1
    92     7     6   ar
    93    12    10    1
    94    81    85    1
    95    91    89    1
    96    89    90    1
    97    37    38    1
    98    37    39    1
    99     1     3   ar
   100     1    10    1
   101    65    66    1
   102     6     3   ar
   103     6     8    1
   104     3     9    1
   105    10    11    1
   106    85    88    1
   107    85    87    1
   108    85    86    1
