@<TRIPOS>MOLECULE
mol_data/opt/cam/geoms/mol2/4hh12fh13dd-6if.out
 49 52 0 0 0
SMALL
GASTEIGER

@<TRIPOS>ATOM
      1 C          -0.0366    0.1348   -0.0163 C.ar    1  LIG1        0.0253
      2 C           1.3528    0.1329   -0.0366 C.ar    1  LIG1       -0.0285
      3 C          -0.6957    1.3318   -0.3087 C.ar    1  LIG1       -0.0393
      4 C           2.0940    1.2824   -0.3418 C.ar    1  LIG1        0.0433
      5 H           1.8898   -0.7791    0.2006 H       1  LIG1        0.0644
      6 C           0.0253    2.4680   -0.6293 C.ar    1  LIG1       -0.0386
      7 C           1.4202    2.4788   -0.6646 C.ar    1  LIG1        0.0356
      8 H          -0.5083    3.3841   -0.8680 H       1  LIG1        0.0637
      9 H          -1.7808    1.3704   -0.2898 H       1  LIG1        0.0636
     10 N          -0.7526   -1.0098    0.3492 N.pl3   1  LIG1       -0.3579
     11 H          -1.6872   -1.0570   -0.0301 H       1  LIG1        0.1423
     12 H          -0.2544   -1.8762    0.2037 H       1  LIG1        0.1423
     13 N           2.0895    3.6797   -0.9907 N.pl3   1  LIG1       -0.3574
     14 H           2.9381    3.5279   -1.5182 H       1  LIG1        0.1423
     15 H           1.4815    4.3171   -1.4888 H       1  LIG1        0.1423
     16 C           3.5452    1.1787   -0.2957 C.ar    1  LIG1        0.1807
     17 C           4.4293    0.1378   -0.2194 C.ar    1  LIG1        0.1846
     18 C           5.7510    0.6696   -0.1272 C.ar    1  LIG1        0.1153
     19 C           5.6050    2.0320   -0.1417 C.ar    1  LIG1        0.1773
     20 O           4.2772    2.3347   -0.2498 O.2     1  LIG1       -0.4476
     21 O           4.1670   -1.1891   -0.1983 O.3     1  LIG1       -0.5020
     22 H           4.9699   -1.6127    0.1480 H       1  LIG1        0.2924
     23 N           6.8451   -0.1989    0.0049 N.pl3   1  LIG1       -0.3521
     24 H           7.0911   -0.6384   -0.8767 H       1  LIG1        0.1425
     25 H           7.6783    0.2292    0.3913 H       1  LIG1        0.1425
     26 C           6.4226    3.2102   -0.0265 C.ar    1  LIG1        0.1034
     27 C           7.7833    3.4519    0.0903 C.ar    1  LIG1        0.0980
     28 C           7.9544    4.8741    0.1706 C.ar    1  LIG1        0.0951
     29 C           6.6986    5.4555    0.1023 C.ar    1  LIG1        0.0677
     30 N           5.8041    4.4279   -0.0156 N.ar    1  LIG1       -0.3496
     31 H           4.7989    4.5220   -0.0624 H       1  LIG1        0.1661
     32 N           9.5968    1.6289    0.1985 N.1     1  LIG1       -0.1908
     33 C           8.7988    2.4677    0.1463 C.1     1  LIG1        0.1027
     34 N          10.2107    6.0908    0.4346 N.1     1  LIG1       -0.1908
     35 C           9.1951    5.5474    0.3204 C.1     1  LIG1        0.1026
     36 C           5.1107    7.3270    0.7212 C.ar    1  LIG1        0.0476
     37 C           6.2956    6.8676    0.1042 C.ar    1  LIG1        0.0241
     38 C           7.1201    7.7941   -0.5315 C.ar    1  LIG1       -0.0078
     39 C           6.7589    9.1326   -0.5442 C.ar    1  LIG1        0.1355
     40 C           5.5678    9.4923    0.0768 C.ar    1  LIG1        0.0693
     41 N           4.7792    8.6174    0.6883 N.ar    1  LIG1       -0.2559
     42 H           8.0381    7.4926   -1.0213 H       1  LIG1        0.0662
     43 H           5.2430   10.5331    0.0836 H       1  LIG1        0.0867
     44 C           4.1517    6.4379    1.4722 C.3     1  LIG1       -0.0217
     45 H           4.6664    5.6854    2.0742 H       1  LIG1        0.0293
     46 H           3.4493    5.9177    0.8081 H       1  LIG1        0.0293
     47 H           3.5537    7.0663    2.1313 H       1  LIG1        0.0293
     48 O           7.5716   10.0169   -1.1712 O.3     1  LIG1       -0.5052
     49 H           7.2097   10.9075   -1.0886 H       1  LIG1        0.2922
@<TRIPOS>BOND
     1    14    13    1
     2    15    13    1
     3    48    49    1
     4    48    39    1
     5    42    38    1
     6    13     7    1
     7    24    23    1
     8     8     6    1
     9     7     6   ar
    10     7     4   ar
    11     6     3   ar
    12    39    38   ar
    13    39    40   ar
    14    38    37   ar
    15     4    16    1
    16     4     2   ar
    17     3     9    1
    18     3     1   ar
    19    16    20   ar
    20    16    17   ar
    21    20    19   ar
    22    17    21    1
    23    17    18   ar
    24    21    22    1
    25    19    18   ar
    26    19    26    1
    27    18    23    1
    28    31    30    1
    29     2     1   ar
    30     2     5    1
    31    11    10    1
    32    26    30   ar
    33    26    27   ar
    34     1    10    1
    35    30    29   ar
    36    23    25    1
    37    40    43    1
    38    40    41   ar
    39    27    33    1
    40    27    28   ar
    41    29    37    1
    42    29    28   ar
    43    37    36   ar
    44    33    32    3
    45    28    35    1
    46    12    10    1
    47    35    34    3
    48    41    36   ar
    49    36    44    1
    50    46    44    1
    51    44    45    1
    52    44    47    1
