@<TRIPOS>MOLECULE
mol_data/opt/cam/geoms/mol2/4hh4hh4hh.out
 44 46 0 0 0
SMALL
GASTEIGER

@<TRIPOS>ATOM
      1 C          -0.1028    0.5897    1.0082 C.ar    1  LIG1        0.0252
      2 C           1.2883    0.5784    0.9348 C.ar    1  LIG1       -0.0315
      3 C          -0.8034    1.2587    0.0033 C.ar    1  LIG1       -0.0393
      4 C           1.9870    1.2115   -0.0966 C.ar    1  LIG1        0.0063
      5 H           1.8597    0.0653    1.7030 H       1  LIG1        0.0643
      6 C          -0.1265    1.8896   -1.0274 C.ar    1  LIG1       -0.0387
      7 C           1.2677    1.8828   -1.1019 C.ar    1  LIG1        0.0325
      8 H          -0.6919    2.4076   -1.7974 H       1  LIG1        0.0637
      9 H          -1.8890    1.2909    0.0325 H       1  LIG1        0.0636
     10 N          -0.7745    0.0008    2.0896 N.pl3   1  LIG1       -0.3579
     11 H          -1.7107   -0.3111    1.8734 H       1  LIG1        0.1423
     12 H          -0.2493   -0.7282    2.5515 H       1  LIG1        0.1423
     13 N           1.9159    2.5701   -2.1401 N.pl3   1  LIG1       -0.3575
     14 H           2.8589    2.2494   -2.3117 H       1  LIG1        0.1423
     15 H           1.3773    2.6122   -2.9940 H       1  LIG1        0.1423
     16 C           4.1751   -0.0529   -0.1217 C.ar    1  LIG1        0.0331
     17 C           5.5686   -0.0200   -0.1276 C.ar    1  LIG1       -0.0309
     18 C           3.4774    1.1686   -0.1104 C.ar    1  LIG1        0.0063
     19 C           6.2986    1.1687   -0.1155 C.ar    1  LIG1        0.0063
     20 H           6.1164   -0.9580   -0.1371 H       1  LIG1        0.0643
     21 C           4.2075    2.3573   -0.1029 C.ar    1  LIG1       -0.0309
     22 C           5.6010    2.3902   -0.1015 C.ar    1  LIG1        0.0331
     23 H           3.6596    3.2954   -0.0930 H       1  LIG1        0.0643
     24 N           3.5054   -1.2840   -0.0817 N.pl3   1  LIG1       -0.3575
     25 H           2.5561   -1.2467   -0.4261 H       1  LIG1        0.1423
     26 H           4.0268   -2.0443   -0.4944 H       1  LIG1        0.1423
     27 N           6.2708    3.6203   -0.0409 N.pl3   1  LIG1       -0.3575
     28 H           7.2188    3.5896   -0.3895 H       1  LIG1        0.1423
     29 H           5.7479    4.3882   -0.4375 H       1  LIG1        0.1423
     30 C           8.5048    0.4734   -1.1282 C.ar    1  LIG1        0.0325
     31 C           9.8992    0.4652   -1.0589 C.ar    1  LIG1       -0.0387
     32 C           7.7891    1.1256   -0.1079 C.ar    1  LIG1        0.0063
     33 C          10.5798    1.0766   -0.0188 C.ar    1  LIG1       -0.0393
     34 H          10.4619   -0.0381   -1.8405 H       1  LIG1        0.0637
     35 C           8.4915    1.7392    0.9328 C.ar    1  LIG1       -0.0315
     36 C           9.8829    1.7265    1.0010 C.ar    1  LIG1        0.0252
     37 H           7.9229    2.2376    1.7126 H       1  LIG1        0.0643
     38 H          11.6655    1.0438    0.0059 H       1  LIG1        0.0636
     39 N           7.8528   -0.1942   -2.1770 N.pl3   1  LIG1       -0.3575
     40 H           6.9093    0.1297   -2.3391 H       1  LIG1        0.1423
     41 H           8.3884   -0.2201   -3.0333 H       1  LIG1        0.1423
     42 N          10.5585    2.2949    2.0908 N.pl3   1  LIG1       -0.3579
     43 H          11.4939    2.6110    1.8773 H       1  LIG1        0.1423
     44 H          10.0349    3.0150    2.5684 H       1  LIG1        0.1423
@<TRIPOS>BOND
     1    41    39    1
     2    15    13    1
     3    40    39    1
     4    14    13    1
     5    39    30    1
     6    13     7    1
     7    34    31    1
     8     8     6    1
     9    30    31   ar
    10    30    32   ar
    11     7     6   ar
    12     7     4   ar
    13    31    33   ar
    14     6     3   ar
    15    26    24    1
    16    29    27    1
    17    25    24    1
    18    28    27    1
    19    20    17    1
    20    17    16   ar
    21    17    19   ar
    22    16    18   ar
    23    16    24    1
    24    19    32    1
    25    19    22   ar
    26    18    21   ar
    27    18     4    1
    28    32    35   ar
    29    21    22   ar
    30    21    23    1
    31    22    27    1
    32     4     2   ar
    33    33    38    1
    34    33    36   ar
    35     3     9    1
    36     3     1   ar
    37    35    36   ar
    38    35    37    1
    39     2     1   ar
    40     2     5    1
    41    36    42    1
    42     1    10    1
    43    11    10    1
    44    43    42    1
    45    10    12    1
    46    42    44    1
