@<TRIPOS>MOLECULE
mol_data/opt/cam/geoms/mol2/4hh4hh.out
 30 31 0 0 0
SMALL
GASTEIGER

@<TRIPOS>ATOM
      1 C          -0.0187    0.1770    0.5589 C.ar    1  LIG1        0.0252
      2 C           1.3740    0.1861    0.5210 C.ar    1  LIG1       -0.0315
      3 C          -0.6938    1.2463   -0.0317 C.ar    1  LIG1       -0.0393
      4 C           2.0976    1.2203   -0.0780 C.ar    1  LIG1        0.0063
      5 H           1.9261   -0.6330    0.9731 H       1  LIG1        0.0643
      6 C           0.0083    2.2789   -0.6314 C.ar    1  LIG1       -0.0387
      7 C           1.4041    2.2921   -0.6686 C.ar    1  LIG1        0.0325
      8 H          -0.5378    3.1032   -1.0821 H       1  LIG1        0.0637
      9 H          -1.7798    1.2731   -0.0158 H       1  LIG1        0.0636
     10 N          -0.7175   -0.8425    1.2223 N.pl3   1  LIG1       -0.3579
     11 H          -1.6475   -1.0057    0.8630 H       1  LIG1        0.1423
     12 H          -0.2040   -1.7092    1.2984 H       1  LIG1        0.1423
     13 N           2.0792    3.3769   -1.2484 N.pl3   1  LIG1       -0.3575
     14 H           3.0276    3.1644   -1.5260 H       1  LIG1        0.1423
     15 H           1.5642    3.8218   -1.9950 H       1  LIG1        0.1423
     16 C           4.2806    0.1029   -0.6756 C.ar    1  LIG1        0.0325
     17 C           5.6765    0.1160   -0.6417 C.ar    1  LIG1       -0.0387
     18 C           3.5885    1.1727   -0.0799 C.ar    1  LIG1        0.0063
     19 C           6.3801    1.1466   -0.0403 C.ar    1  LIG1       -0.0393
     20 H           6.2216   -0.7068   -1.0965 H       1  LIG1        0.0637
     21 C           4.3136    2.2050    0.5208 C.ar    1  LIG1       -0.0315
     22 C           5.7064    2.2139    0.5554 C.ar    1  LIG1        0.0252
     23 H           3.7626    3.0225    0.9770 H       1  LIG1        0.0643
     24 H           7.4661    1.1197   -0.0270 H       1  LIG1        0.0636
     25 N           3.6041   -0.9800   -1.2574 N.pl3   1  LIG1       -0.3575
     26 H           2.6552   -0.7665   -1.5323 H       1  LIG1        0.1423
     27 H           4.1175   -1.4227   -2.0065 H       1  LIG1        0.1423
     28 N           6.4068    3.2312    1.2206 N.pl3   1  LIG1       -0.3579
     29 H           7.3358    3.3958    0.8594 H       1  LIG1        0.1423
     30 H           5.8933    4.0976    1.3010 H       1  LIG1        0.1423
@<TRIPOS>BOND
     1    27    25    1
     2    15    13    1
     3    26    25    1
     4    14    13    1
     5    25    16    1
     6    13     7    1
     7    20    17    1
     8     8     6    1
     9    16    17   ar
    10    16    18   ar
    11     7     6   ar
    12     7     4   ar
    13    17    19   ar
    14     6     3   ar
    15    18     4    1
    16    18    21   ar
    17     4     2   ar
    18    19    24    1
    19    19    22   ar
    20     3     9    1
    21     3     1   ar
    22    21    22   ar
    23    21    23    1
    24     2     1   ar
    25     2     5    1
    26    22    28    1
    27     1    10    1
    28    29    28    1
    29    11    10    1
    30    28    30    1
    31    10    12    1
