@<TRIPOS>MOLECULE
mol_data/opt/cam/geoms/mol2/4hh4hh4hh4hh.out
 58 61 0 0 0
SMALL
GASTEIGER

@<TRIPOS>ATOM
      1 C          -0.1883    1.1819    1.2171 C.ar    1  LIG1        0.0252
      2 C           1.2015    1.1386    1.1305 C.ar    1  LIG1       -0.0315
      3 C          -0.9124    1.3014    0.0299 C.ar    1  LIG1       -0.0393
      4 C           1.8764    1.2147   -0.0907 C.ar    1  LIG1        0.0063
      5 H           1.7904    1.0459    2.0385 H       1  LIG1        0.0643
      6 C          -0.2592    1.3755   -1.1893 C.ar    1  LIG1       -0.0387
      7 C           1.1335    1.3353   -1.2791 C.ar    1  LIG1        0.0325
      8 H          -0.8426    1.4713   -2.1011 H       1  LIG1        0.0637
      9 H          -1.9976    1.3428    0.0619 H       1  LIG1        0.0636
     10 N          -0.8357    1.1674    2.4613 N.pl3   1  LIG1       -0.3579
     11 H          -1.7717    0.7882    2.4349 H       1  LIG1        0.1423
     12 H          -0.2948    0.7406    3.2002 H       1  LIG1        0.1423
     13 N           1.7573    1.4549   -2.5311 N.pl3   1  LIG1       -0.3575
     14 H           2.6988    1.0877   -2.5511 H       1  LIG1        0.1423
     15 H           1.2023    1.0930   -3.2940 H       1  LIG1        0.1423
     16 C           4.0769    0.0900    0.4399 C.ar    1  LIG1        0.0331
     17 C           5.4696    0.1175    0.3912 C.ar    1  LIG1       -0.0309
     18 C           3.3667    1.1718   -0.1118 C.ar    1  LIG1        0.0063
     19 C           6.1879    1.1723   -0.1731 C.ar    1  LIG1        0.0063
     20 H           6.0265   -0.7142    0.8132 H       1  LIG1        0.0643
     21 C           4.0847    2.2245   -0.6798 C.ar    1  LIG1       -0.0309
     22 C           5.4774    2.2553   -0.7221 C.ar    1  LIG1        0.0331
     23 H           3.5276    3.0559   -1.1024 H       1  LIG1        0.0643
     24 N           3.4212   -0.9778    1.0684 N.pl3   1  LIG1       -0.3575
     25 H           2.4658   -1.1086    0.7664 H       1  LIG1        0.1423
     26 H           3.9437   -1.8421    1.0531 H       1  LIG1        0.1423
     27 N           6.1340    3.3701   -1.2638 N.pl3   1  LIG1       -0.3575
     28 H           7.0750    3.1783   -1.5781 H       1  LIG1        0.1423
     29 H           5.5947    3.8569   -1.9657 H       1  LIG1        0.1423
     30 C           8.3877    0.0714   -0.7562 C.ar    1  LIG1        0.0331
     31 C           9.7805    0.1010   -0.7150 C.ar    1  LIG1       -0.0309
     32 C           7.6780    1.1378   -0.1746 C.ar    1  LIG1        0.0063
     33 C          10.4993    1.1366   -0.1175 C.ar    1  LIG1        0.0063
     34 H          10.3369   -0.7177   -1.1625 H       1  LIG1        0.0643
     35 C           8.3971    2.1757    0.4192 C.ar    1  LIG1       -0.0309
     36 C           9.7900    2.2017    0.4667 C.ar    1  LIG1        0.0331
     37 H           7.8409    2.9946    0.8663 H       1  LIG1        0.0643
     38 N           7.7303   -1.0271   -1.3294 N.pl3   1  LIG1       -0.3575
     39 H           6.7889   -0.8262   -1.6366 H       1  LIG1        0.1423
     40 H           8.2686   -1.4931   -2.0460 H       1  LIG1        0.1423
     41 N          10.4466    3.2506    1.1253 N.pl3   1  LIG1       -0.3575
     42 H          11.4015    3.3903    0.8259 H       1  LIG1        0.1423
     43 H           9.9240    4.1150    1.1361 H       1  LIG1        0.1423
     44 C          12.7308    1.0074   -1.2923 C.ar    1  LIG1        0.0325
     45 C          14.1237    0.9645   -1.2057 C.ar    1  LIG1       -0.0387
     46 C          11.9897    1.0931   -0.0998 C.ar    1  LIG1        0.0063
     47 C          14.7786    1.0029    0.0143 C.ar    1  LIG1       -0.0393
     48 H          14.7057    0.8956   -2.1208 H       1  LIG1        0.0637
     49 C          12.6664    1.1334    1.1222 C.ar    1  LIG1       -0.0315
     50 C          14.0563    1.0876    1.2055 C.ar    1  LIG1        0.0252
     51 H          12.0787    1.1994    2.0333 H       1  LIG1        0.0643
     52 H          15.8638    0.9607    0.0434 H       1  LIG1        0.0636
     53 N          12.1052    0.9245   -2.5463 N.pl3   1  LIG1       -0.3575
     54 H          11.1638    1.2921   -2.5542 H       1  LIG1        0.1423
     55 H          12.6591    1.3086   -3.2990 H       1  LIG1        0.1423
     56 N          14.7054    1.0656    2.4487 N.pl3   1  LIG1       -0.3579
     57 H          15.6413    1.4455    2.4320 H       1  LIG1        0.1423
     58 H          14.1656    1.4706    3.2006 H       1  LIG1        0.1423
@<TRIPOS>BOND
     1    55    53    1
     2    15    13    1
     3    54    53    1
     4    14    13    1
     5    53    44    1
     6    13     7    1
     7    48    45    1
     8     8     6    1
     9    40    38    1
    10    29    27    1
    11    39    38    1
    12    28    27    1
    13    38    30    1
    14    44    45   ar
    15    44    46   ar
    16     7     6   ar
    17     7     4   ar
    18    27    22    1
    19    45    47   ar
    20     6     3   ar
    21    34    31    1
    22    23    21    1
    23    30    31   ar
    24    30    32   ar
    25    22    21   ar
    26    22    19   ar
    27    31    33   ar
    28    21    18   ar
    29    32    19    1
    30    32    35   ar
    31    19    17   ar
    32    33    46    1
    33    33    36   ar
    34    18     4    1
    35    18    16   ar
    36    46    49   ar
    37     4     2   ar
    38    47    52    1
    39    47    50   ar
    40     3     9    1
    41     3     1   ar
    42    17    16   ar
    43    17    20    1
    44    35    36   ar
    45    35    37    1
    46    16    24    1
    47    36    41    1
    48    25    24    1
    49    42    41    1
    50    26    24    1
    51    49    50   ar
    52    49    51    1
    53    41    43    1
    54     2     1   ar
    55     2     5    1
    56    50    56    1
    57     1    10    1
    58    57    56    1
    59    11    10    1
    60    56    58    1
    61    10    12    1
