@<TRIPOS>MOLECULE
mol_data/opt/cam/geoms/mol2/4hh6ee-4he6ld.out
 57 60 0 0 0
SMALL
GASTEIGER

@<TRIPOS>ATOM
      1 C          -0.1661    0.7999    0.9761 C.ar    1  LIG1        0.0252
      2 C           1.2249    0.8255    0.9138 C.ar    1  LIG1       -0.0315
      3 C          -0.8734    1.2329   -0.1472 C.ar    1  LIG1       -0.0393
      4 C           1.9067    1.2745   -0.2181 C.ar    1  LIG1        0.0072
      5 H           1.8042    0.5051    1.7756 H       1  LIG1        0.0643
      6 C          -0.2080    1.6680   -1.2805 C.ar    1  LIG1       -0.0387
      7 C           1.1869    1.6981   -1.3464 C.ar    1  LIG1        0.0326
      8 H          -0.7823    1.9945   -2.1430 H       1  LIG1        0.0637
      9 H          -1.9596    1.2308   -0.1318 H       1  LIG1        0.0636
     10 N          -0.8330    0.4112    2.1456 N.pl3   1  LIG1       -0.3579
     11 H          -1.7607    0.0431    1.9898 H       1  LIG1        0.1423
     12 H          -0.2977   -0.2018    2.7440 H       1  LIG1        0.1423
     13 N           1.8268    2.1696   -2.4963 N.pl3   1  LIG1       -0.3575
     14 H           2.7730    1.8427   -2.6246 H       1  LIG1        0.1423
     15 H           1.2830    2.0775   -3.3417 H       1  LIG1        0.1423
     16 C           4.1893    2.4057   -0.2078 C.ar    1  LIG1        0.1216
     17 C           3.3942    1.2422   -0.2142 C.ar    1  LIG1        0.0190
     18 C           4.0707    0.0312   -0.1586 C.ar    1  LIG1       -0.0338
     19 C           5.4666   -0.0175   -0.1260 C.ar    1  LIG1        0.0513
     20 C           6.1678    1.2053   -0.1832 C.ar    1  LIG1        0.0895
     21 N           5.5269    2.3726   -0.2045 N.ar    1  LIG1       -0.2365
     22 H           3.5067   -0.8946   -0.1247 H       1  LIG1        0.0637
     23 C           3.5887    3.7091   -0.1788 C.1     1  LIG1       -0.0492
     24 C           3.0911    4.8028   -0.1402 C.1     1  LIG1       -0.1124
     25 H           2.6449    5.7702   -0.1121 H       1  LIG1        0.1232
     26 C           6.1255   -1.2784    0.0109 C.1     1  LIG1       -0.0675
     27 C           6.6416   -2.3572    0.1437 C.1     1  LIG1       -0.1138
     28 H           7.1194   -3.3033    0.2560 H       1  LIG1        0.1232
     29 C           8.4667    0.7012   -1.1470 C.ar    1  LIG1        0.0345
     30 C           9.8563    0.8489   -1.0433 C.ar    1  LIG1       -0.0314
     31 C           7.6551    1.2818   -0.1546 C.ar    1  LIG1        0.0234
     32 C          10.4490    1.5594   -0.0120 C.ar    1  LIG1        0.0044
     33 H          10.4869    0.4083   -1.8100 H       1  LIG1        0.0643
     34 C           8.2546    2.0120    0.8646 C.ar    1  LIG1       -0.0348
     35 C           9.6370    2.1583    0.9712 C.ar    1  LIG1        0.0333
     36 H           7.6189    2.4801    1.6071 H       1  LIG1        0.0637
     37 N           7.9406   -0.0097   -2.2060 N.pl3   1  LIG1       -0.3574
     38 H           6.9634    0.1216   -2.4121 H       1  LIG1        0.1423
     39 H           8.5243   -0.0948   -3.0228 H       1  LIG1        0.1423
     40 C          10.1922    2.8698    2.0810 C.1     1  LIG1       -0.0690
     41 C          10.6416    3.4567    3.0319 C.1     1  LIG1       -0.1139
     42 H          11.0375    3.9752    3.8741 H       1  LIG1        0.1232
     43 C          12.6231    2.8715   -0.0312 C.ar    1  LIG1        0.2225
     44 C          11.9302    1.6389    0.0494 C.ar    1  LIG1        0.0461
     45 C          12.7049    0.5051    0.1650 C.ar    1  LIG1       -0.0300
     46 C          14.1044    0.6094    0.2263 C.ar    1  LIG1        0.0706
     47 C          14.6659    1.8783    0.1709 C.ar    1  LIG1        0.0488
     48 N          13.9396    2.9859    0.0397 N.ar    1  LIG1       -0.2195
     49 H          12.2292   -0.4675    0.2265 H       1  LIG1        0.0639
     50 H          15.7433    2.0050    0.2304 H       1  LIG1        0.0844
     51 O          11.8838    3.9662   -0.2109 O.3     1  LIG1       -0.4792
     52 C          12.5531    5.2235   -0.2117 C.3     1  LIG1        0.0804
     53 H          11.7693    5.9661   -0.3519 H       1  LIG1        0.0660
     54 H          13.0682    5.3877    0.7370 H       1  LIG1        0.0660
     55 H          13.2833    5.2775   -1.0216 H       1  LIG1        0.0660
     56 N          15.6006   -1.4900    0.4495 N.1     1  LIG1       -0.1908
     57 C          14.9315   -0.5511    0.3518 C.1     1  LIG1        0.1007
@<TRIPOS>BOND
     1    15    13    1
     2    39    37    1
     3    14    13    1
     4    13     7    1
     5    38    37    1
     6    37    29    1
     7     8     6    1
     8    33    30    1
     9     7     6   ar
    10     7     4   ar
    11     6     3   ar
    12    29    30   ar
    13    29    31   ar
    14    30    32   ar
    15    55    52    1
    16    53    52    1
    17     4    17    1
    18     4     2   ar
    19    17    16   ar
    20    17    18   ar
    21    52    51    1
    22    52    54    1
    23    51    43    1
    24    16    21   ar
    25    16    23    1
    26    21    20   ar
    27    20    31    1
    28    20    19   ar
    29    23    24    3
    30    18    19   ar
    31    18    22    1
    32    31    34   ar
    33     3     9    1
    34     3     1   ar
    35    24    25    1
    36    19    26    1
    37    43    48   ar
    38    43    44   ar
    39    32    44    1
    40    32    35   ar
    41    26    27    3
    42    48    47   ar
    43    44    45   ar
    44    27    28    1
    45    45    46   ar
    46    45    49    1
    47    47    46   ar
    48    47    50    1
    49    46    57    1
    50    57    56    3
    51    34    35   ar
    52    34    36    1
    53     2     1   ar
    54     2     5    1
    55    35    40    1
    56     1    10    1
    57    11    10    1
    58    40    41    3
    59    10    12    1
    60    41    42    1
