@<TRIPOS>MOLECULE
mol_data/opt/cam/geoms/mol2/4hh6hl12fa6ia.out
 51 54 0 0 0
SMALL
GASTEIGER

@<TRIPOS>ATOM
      1 C          -0.1287    0.0926    0.7205 C.ar    1  LIG1        0.0252
      2 C           1.2627    0.2172    0.6294 C.ar    1  LIG1       -0.0315
      3 C          -0.9186    1.0686    0.0961 C.ar    1  LIG1       -0.0393
      4 C           1.8826    1.2786   -0.0478 C.ar    1  LIG1        0.0079
      5 H           1.8948   -0.5111    1.1311 H       1  LIG1        0.0643
      6 C          -0.3233    2.1164   -0.5974 C.ar    1  LIG1       -0.0387
      7 C           1.0678    2.2393   -0.6878 C.ar    1  LIG1        0.0326
      8 H          -0.9533    2.8534   -1.0906 H       1  LIG1        0.0637
      9 H          -2.0024    1.0069    0.1531 H       1  LIG1        0.0636
     10 N          -0.7141   -0.9355    1.4776 N.pl3   1  LIG1       -0.3579
     11 H          -1.6478   -1.1872    1.1804 H       1  LIG1        0.1423
     12 H          -0.1347   -1.7591    1.5742 H       1  LIG1        0.1423
     13 N           1.6472    3.3398   -1.3679 N.pl3   1  LIG1       -0.3575
     14 H           2.4808    3.0831   -1.8877 H       1  LIG1        0.1423
     15 H           0.9916    3.8069   -1.9833 H       1  LIG1        0.1423
     16 C           4.1530    2.4218    0.3379 C.ar    1  LIG1        0.1250
     17 C           3.3700    1.3184   -0.1035 C.ar    1  LIG1        0.0270
     18 C           4.0722    0.1867   -0.5396 C.ar    1  LIG1       -0.0067
     19 C           5.4647    0.1464   -0.5232 C.ar    1  LIG1        0.1498
     20 C           6.1500    1.2704   -0.0127 C.ar    1  LIG1        0.1531
     21 N           5.4904    2.3732    0.3747 N.ar    1  LIG1       -0.2249
     22 H           3.5031   -0.6556   -0.9162 H       1  LIG1        0.0662
     23 N           3.5763    3.5796    0.8366 N.pl3   1  LIG1       -0.3426
     24 H           4.2704    4.3020    0.9790 H       1  LIG1        0.1437
     25 H           2.7518    3.8982    0.3340 H       1  LIG1        0.1437
     26 O           6.2210   -0.8793   -1.0145 O.3     1  LIG1       -0.4928
     27 C           5.5658   -2.0766   -1.3865 C.3     1  LIG1        0.0789
     28 H           6.3538   -2.7742   -1.6737 H       1  LIG1        0.0660
     29 H           4.9931   -2.5028   -0.5520 H       1  LIG1        0.0660
     30 H           4.8911   -1.9266   -2.2407 H       1  LIG1        0.0660
     31 C           7.6050    1.3208    0.0861 C.ar    1  LIG1        0.1986
     32 C           8.6160    0.4231    0.3750 C.ar    1  LIG1        0.1649
     33 C           9.8361    1.1549    0.4065 C.ar    1  LIG1        0.0265
     34 C           9.5129    2.4663    0.1443 C.ar    1  LIG1        0.1411
     35 O           8.1727    2.5685   -0.0436 O.2     1  LIG1       -0.4493
     36 O           8.4530   -0.8996    0.6453 O.3     1  LIG1       -0.5031
     37 H           9.3106   -1.2598    0.9034 H       1  LIG1        0.2923
     38 H          10.8180    0.7640    0.6356 H       1  LIG1        0.0692
     39 C           9.8536    4.9858    0.2260 C.ar    1  LIG1        0.0488
     40 C          10.3383    3.6636    0.0256 C.ar    1  LIG1        0.0384
     41 C          11.6996    3.5090   -0.2833 C.ar    1  LIG1       -0.0479
     42 C          12.5253    4.6209   -0.3788 C.ar    1  LIG1       -0.0429
     43 C          11.9536    5.8746   -0.1737 C.ar    1  LIG1        0.0279
     44 N          10.6615    6.0524    0.1192 N.ar    1  LIG1       -0.2595
     45 H          12.0963    2.5149   -0.4661 H       1  LIG1        0.0626
     46 H          12.5562    6.7783   -0.2466 H       1  LIG1        0.0829
     47 C           8.4217    5.2969    0.5847 C.3     1  LIG1       -0.0217
     48 H           8.0717    4.6913    1.4255 H       1  LIG1        0.0293
     49 H           7.7424    5.0789   -0.2448 H       1  LIG1        0.0293
     50 H           8.3538    6.3558    0.8374 H       1  LIG1        0.0293
     51 H          13.5788    4.5208   -0.6191 H       1  LIG1        0.0633
@<TRIPOS>BOND
     1    30    27    1
     2    15    13    1
     3    14    13    1
     4    28    27    1
     5    27    26    1
     6    27    29    1
     7    13     7    1
     8     8     6    1
     9    26    19    1
    10    22    18    1
    11     7     6   ar
    12     7     4   ar
    13    51    42    1
    14     6     3   ar
    15    18    19   ar
    16    18    17   ar
    17    19    20   ar
    18    45    41    1
    19    42    41   ar
    20    42    43   ar
    21    41    40   ar
    22    46    43    1
    23    49    47    1
    24    43    44   ar
    25    17     4    1
    26    17    16   ar
    27     4     2   ar
    28    35    31   ar
    29    35    34   ar
    30    20    31    1
    31    20    21   ar
    32    40    34    1
    33    40    39   ar
    34    31    32   ar
    35     3     9    1
    36     3     1   ar
    37    44    39   ar
    38    34    33   ar
    39    39    47    1
    40    25    23    1
    41    16    21   ar
    42    16    23    1
    43    32    33   ar
    44    32    36    1
    45    33    38    1
    46    47    50    1
    47    47    48    1
    48     2     1   ar
    49     2     5    1
    50    36    37    1
    51     1    10    1
    52    23    24    1
    53    11    10    1
    54    10    12    1
