@<TRIPOS>MOLECULE
mol_data/opt/cam/geoms/mol2/4hi13hf-6da12li.out
 52 55 0 0 0
SMALL
GASTEIGER

@<TRIPOS>ATOM
      1 C          -0.0288   -0.1897    0.8961 C.ar    1  LIG1        0.0252
      2 C           1.3232   -0.0050    0.6111 C.ar    1  LIG1       -0.0316
      3 C          -0.9246    0.8055    0.4988 C.ar    1  LIG1       -0.0408
      4 C           1.7882    1.1348   -0.0508 C.ar    1  LIG1        0.0049
      5 H           2.0404   -0.7497    0.9429 H       1  LIG1        0.0643
      6 C          -0.4639    1.9323   -0.1615 C.ar    1  LIG1       -0.0565
      7 C           0.8839    2.1334   -0.4576 C.ar    1  LIG1       -0.0412
      8 H          -1.1818    2.6862   -0.4715 H       1  LIG1        0.0621
      9 H          -1.9841    0.6936    0.7108 H       1  LIG1        0.0636
     10 N          -0.4649   -1.3033    1.6109 N.pl3   1  LIG1       -0.3579
     11 H          -1.4375   -1.5407    1.4848 H       1  LIG1        0.1423
     12 H           0.1338   -2.1137    1.5584 H       1  LIG1        0.1423
     13 C           1.3033    3.3720   -1.2099 C.3     1  LIG1       -0.0391
     14 H           0.4470    3.7993   -1.7367 H       1  LIG1        0.0278
     15 H           2.0785    3.1554   -1.9487 H       1  LIG1        0.0278
     16 H           1.6942    4.1555   -0.5514 H       1  LIG1        0.0278
     17 C           3.2328    1.2249   -0.3167 C.ar    1  LIG1        0.0718
     18 C           4.1128    0.2703   -0.8089 C.ar    1  LIG1        0.0929
     19 C           5.3859    0.8679   -0.8734 C.ar    1  LIG1        0.1635
     20 C           5.2987    2.1764   -0.4152 C.ar    1  LIG1        0.0936
     21 N           3.9577    2.3547   -0.0943 N.ar    1  LIG1       -0.3497
     22 H           3.5777    3.1842    0.3341 H       1  LIG1        0.1661
     23 N           3.9370   -1.0607   -1.2809 N.pl3   1  LIG1       -0.3535
     24 H           3.7109   -1.7125   -0.5376 H       1  LIG1        0.1425
     25 H           3.2060   -1.1255   -1.9813 H       1  LIG1        0.1425
     26 O           6.4704    0.2151   -1.3477 O.3     1  LIG1       -0.5031
     27 H           6.1225   -0.6493   -1.6336 H       1  LIG1        0.2923
     28 C           6.1588    4.5207    0.0954 C.ar    1  LIG1        0.1500
     29 C           6.3383    3.1789   -0.2975 C.ar    1  LIG1        0.0378
     30 C           7.6731    2.8334   -0.5999 C.ar    1  LIG1       -0.0477
     31 C           8.6809    3.7611   -0.5022 C.ar    1  LIG1       -0.0318
     32 C           8.3766    5.0703   -0.0872 C.ar    1  LIG1        0.1111
     33 N           7.1324    5.4303    0.2009 N.ar    1  LIG1       -0.2325
     34 H           7.8916    1.8230   -0.9202 H       1  LIG1        0.0626
     35 N           3.7869    5.4046    0.6908 N.1     1  LIG1       -0.1893
     36 C           4.8524    5.0357    0.4275 C.1     1  LIG1        0.1198
     37 H           9.7035    3.5033   -0.7480 H       1  LIG1        0.0640
     38 C           9.4189    6.0815    0.0387 C.ar    1  LIG1        0.1945
     39 C          10.7846    6.0338   -0.0387 C.ar    1  LIG1        0.1700
     40 C          11.2813    7.3645    0.1503 C.ar    1  LIG1        0.0297
     41 C          10.1657    8.1171    0.3272 C.ar    1  LIG1        0.0992
     42 O           9.0427    7.3672    0.2643 O.2     1  LIG1       -0.4573
     43 H          10.0179    9.1732    0.4928 H       1  LIG1        0.1033
     44 O          11.5383    4.9253   -0.2996 O.3     1  LIG1       -0.4910
     45 C          12.2113    4.3974    0.8376 C.3     1  LIG1        0.0790
     46 H          12.7729    3.5285    0.4930 H       1  LIG1        0.0660
     47 H          12.9060    5.1270    1.2667 H       1  LIG1        0.0660
     48 H          11.4961    4.0904    1.6085 H       1  LIG1        0.0660
     49 C          12.7087    7.8048    0.1210 C.3     1  LIG1       -0.0332
     50 H          12.7831    8.8863   -0.0111 H       1  LIG1        0.0280
     51 H          13.2431    7.3246   -0.7030 H       1  LIG1        0.0280
     52 H          13.2358    7.5492    1.0460 H       1  LIG1        0.0280
@<TRIPOS>BOND
     1    25    23    1
     2    15    13    1
     3    14    13    1
     4    27    26    1
     5    26    19    1
     6    23    18    1
     7    23    24    1
     8    13    16    1
     9    13     7    1
    10    34    30    1
    11    19    18   ar
    12    19    20   ar
    13    18    17   ar
    14    37    31    1
    15    51    49    1
    16    30    31   ar
    17    30    29   ar
    18    31    32   ar
    19     8     6    1
    20     7     6   ar
    21     7     4   ar
    22    20    29    1
    23    20    21   ar
    24    17    21   ar
    25    17     4    1
    26    44    39    1
    27    44    45    1
    28    29    28   ar
    29     6     3   ar
    30    21    22    1
    31    32    38    1
    32    32    33   ar
    33     4     2   ar
    34    39    38   ar
    35    39    40   ar
    36    50    49    1
    37    38    42   ar
    38    28    33   ar
    39    28    36    1
    40    49    40    1
    41    49    52    1
    42    40    41   ar
    43    42    41   ar
    44    41    43    1
    45    36    35    3
    46    46    45    1
    47     3     9    1
    48     3     1   ar
    49     2     1   ar
    50     2     5    1
    51    45    47    1
    52    45    48    1
    53     1    10    1
    54    11    10    1
    55    12    10    1
