@<TRIPOS>MOLECULE
mol_data/opt/cam/geoms/mol2/4hi12ah-4hi-6di.out
 54 57 0 0 0
SMALL
GASTEIGER

@<TRIPOS>ATOM
      1 C           0.0113   -0.2846   -0.4284 C.ar    1  LIG1        0.0252
      2 C           1.3895   -0.0877   -0.3763 C.ar    1  LIG1       -0.0301
      3 C          -0.8180    0.7804   -0.0727 C.ar    1  LIG1       -0.0408
      4 C           1.9460    1.1282    0.0293 C.ar    1  LIG1        0.0220
      5 H           2.0517   -0.8946   -0.6753 H       1  LIG1        0.0643
      6 C          -0.2648    1.9878    0.3231 C.ar    1  LIG1       -0.0564
      7 C           1.1106    2.2021    0.3900 C.ar    1  LIG1       -0.0397
      8 H          -0.9299    2.8007    0.6002 H       1  LIG1        0.0621
      9 H          -1.8969    0.6594   -0.1039 H       1  LIG1        0.0636
     10 N          -0.5218   -1.5230   -0.7864 N.pl3   1  LIG1       -0.3579
     11 H          -1.4599   -1.4881   -1.1578 H       1  LIG1        0.1423
     12 H           0.0832   -2.0968   -1.3555 H       1  LIG1        0.1423
     13 C           1.6314    3.5372    0.8572 C.3     1  LIG1       -0.0390
     14 H           0.8122    4.1429    1.2511 H       1  LIG1        0.0278
     15 H           2.1080    4.0954    0.0475 H       1  LIG1        0.0278
     16 H           2.3790    3.4251    1.6471 H       1  LIG1        0.0278
     17 C           3.4085    1.2050    0.0797 C.ar    1  LIG1        0.1378
     18 C           4.3528    0.2494    0.3119 C.ar    1  LIG1        0.0055
     19 C           5.6285    0.8834    0.2032 C.ar    1  LIG1        0.0716
     20 C           5.3759    2.1998   -0.1124 C.ar    1  LIG1        0.1580
     21 O           4.0114    2.3893   -0.1695 O.2     1  LIG1       -0.4529
     22 H           4.1694   -0.7806    0.5807 H       1  LIG1        0.0674
     23 N           6.8471    0.2880    0.4915 N.pl3   1  LIG1       -0.3550
     24 H           6.8471   -0.7150    0.3752 H       1  LIG1        0.1424
     25 H           7.6387    0.7341    0.0367 H       1  LIG1        0.1424
     26 C           7.4566    3.3679   -0.8706 C.ar    1  LIG1        0.0360
     27 C           8.2253    4.5259   -0.8974 C.ar    1  LIG1       -0.0323
     28 C           6.2008    3.3947   -0.2383 C.ar    1  LIG1        0.0400
     29 C           7.7625    5.7292   -0.3676 C.ar    1  LIG1       -0.0105
     30 H           9.1989    4.5018   -1.3799 H       1  LIG1        0.0642
     31 C           5.7459    4.6146    0.2700 C.ar    1  LIG1       -0.0458
     32 C           6.4886    5.7883    0.2192 C.ar    1  LIG1       -0.0419
     33 H           4.7717    4.6314    0.7469 H       1  LIG1        0.0628
     34 N           7.9321    2.1759   -1.4531 N.pl3   1  LIG1       -0.3574
     35 H           7.1910    1.6773   -1.9363 H       1  LIG1        0.1423
     36 H           8.7093    2.3339   -2.0819 H       1  LIG1        0.1423
     37 C           5.9254    7.0543    0.8126 C.3     1  LIG1       -0.0391
     38 H           5.1366    6.8212    1.5307 H       1  LIG1        0.0278
     39 H           5.4897    7.6966    0.0415 H       1  LIG1        0.0278
     40 H           6.6898    7.6372    1.3327 H       1  LIG1        0.0278
     41 C           8.4131    8.0400   -1.2122 C.ar    1  LIG1        0.1477
     42 C           8.6699    6.9071   -0.4252 C.ar    1  LIG1        0.0185
     43 C           9.8640    6.9145    0.2925 C.ar    1  LIG1       -0.0469
     44 C          10.7289    8.0020    0.2344 C.ar    1  LIG1       -0.0317
     45 C          10.3429    9.0713   -0.5750 C.ar    1  LIG1        0.0320
     46 N           9.2235    9.0978   -1.2859 N.ar    1  LIG1       -0.2438
     47 H          10.1067    6.0554    0.9114 H       1  LIG1        0.0628
     48 H          10.9790    9.9504   -0.6536 H       1  LIG1        0.0832
     49 N           6.2777    8.1679   -2.6927 N.1     1  LIG1       -0.1893
     50 C           7.2263    8.1092   -2.0349 C.1     1  LIG1        0.1197
     51 C          12.0171    8.0306    1.0067 C.3     1  LIG1       -0.0383
     52 H          12.5475    8.9731    0.8573 H       1  LIG1        0.0278
     53 H          12.6810    7.2184    0.6964 H       1  LIG1        0.0278
     54 H          11.8367    7.9115    2.0789 H       1  LIG1        0.0278
@<TRIPOS>BOND
     1    49    50    3
     2    36    34    1
     3    50    41    1
     4    35    34    1
     5    34    26    1
     6    30    27    1
     7    12    10    1
     8    46    41   ar
     9    46    45   ar
    10    41    42   ar
    11    11    10    1
    12    27    26   ar
    13    27    29   ar
    14    26    28   ar
    15    10     1    1
    16     5     2    1
    17    48    45    1
    18    45    44   ar
    19     1     2   ar
    20     1     3   ar
    21    42    29    1
    22    42    43   ar
    23     2     4   ar
    24    29    32   ar
    25    28    20    1
    26    28    31   ar
    27    21    20   ar
    28    21    17   ar
    29    20    19   ar
    30     9     3    1
    31     3     6   ar
    32     4    17    1
    33     4     7   ar
    34    25    23    1
    35    39    37    1
    36    15    13    1
    37    17    18   ar
    38    19    18   ar
    39    19    23    1
    40    32    31   ar
    41    32    37    1
    42    44    43   ar
    43    44    51    1
    44    31    33    1
    45    43    47    1
    46    18    22    1
    47     6     7   ar
    48     6     8    1
    49    24    23    1
    50     7    13    1
    51    53    51    1
    52    37    40    1
    53    37    38    1
    54    13    14    1
    55    13    16    1
    56    52    51    1
    57    51    54    1
