@<TRIPOS>MOLECULE
mol_data/opt/cam/geoms/mol2/4hi6aa13df-6ii-13dd6ha12if-4ae-.out
 95 102 0 0 0
SMALL
GASTEIGER

@<TRIPOS>ATOM
      1 C           0.4273   -1.3271   -1.6441 C.ar    1  LIG1        0.0251
      2 C           1.6711   -0.9865   -1.1118 C.ar    1  LIG1       -0.0330
      3 C          -0.5255   -0.3149   -1.7824 C.ar    1  LIG1       -0.0408
      4 C           1.9750    0.3209   -0.7288 C.ar    1  LIG1       -0.0118
      5 H           2.4306   -1.7563   -1.0065 H       1  LIG1        0.0642
      6 C          -0.2260    0.9796   -1.3924 C.ar    1  LIG1       -0.0565
      7 C           1.0138    1.3370   -0.8625 C.ar    1  LIG1       -0.0426
      8 H          -0.9896    1.7456   -1.4943 H       1  LIG1        0.0621
      9 H          -1.5065   -0.5490   -2.1855 H       1  LIG1        0.0636
     10 N           0.1297   -2.6441   -1.9784 N.pl3   1  LIG1       -0.3579
     11 H          -0.6086   -2.7620   -2.6560 H       1  LIG1        0.1423
     12 H           0.9255   -3.2326   -2.1743 H       1  LIG1        0.1423
     13 C           1.2526    2.7634   -0.4316 C.3     1  LIG1       -0.0391
     14 H           0.3029    3.2554   -0.2092 H       1  LIG1        0.0278
     15 H           1.7457    3.3571   -1.2088 H       1  LIG1        0.0278
     16 H           1.8762    2.8222    0.4632 H       1  LIG1        0.0278
     17 C           4.1693    1.5646   -0.6901 C.ar    1  LIG1        0.0360
     18 C           3.3281    0.5762   -0.1706 C.ar    1  LIG1        0.0006
     19 C           3.8428   -0.1916    0.8744 C.ar    1  LIG1       -0.0505
     20 C           5.1209    0.0459    1.3538 C.ar    1  LIG1       -0.0336
     21 C           5.8697    1.0636    0.7651 C.ar    1  LIG1        0.0885
     22 N           5.3951    1.8080   -0.2455 N.ar    1  LIG1       -0.2529
     23 H           3.2317   -0.9705    1.3188 H       1  LIG1        0.0625
     24 H           3.8325    2.1780   -1.5213 H       1  LIG1        0.0836
     25 H           5.5258   -0.5416    2.1685 H       1  LIG1        0.0640
     26 C           7.2296    1.4092    1.1819 C.ar    1  LIG1        0.0866
     27 C           8.1000    0.9143    2.1546 C.ar    1  LIG1        0.1204
     28 C           9.3010    1.6628    2.0480 C.ar    1  LIG1        0.1601
     29 C           9.1481    2.5897    1.0322 C.ar    1  LIG1        0.0920
     30 N           7.8717    2.4096    0.5412 N.ar    1  LIG1       -0.3490
     31 H           7.4266    2.8808   -0.2340 H       1  LIG1        0.1661
     32 N           7.6253   -0.9702    3.8446 N.1     1  LIG1       -0.1907
     33 C           7.8496   -0.1218    3.0886 C.1     1  LIG1        0.1050
     34 O          10.3704    1.4523    2.8501 O.3     1  LIG1       -0.5034
     35 H          10.9540    2.2203    2.8137 H       1  LIG1        0.2923
     36 C           9.7765    4.8866    0.1668 C.ar    1  LIG1        0.0482
     37 C          10.1129    3.5630    0.5219 C.ar    1  LIG1        0.0232
     38 C          11.4563    3.2042    0.4208 C.ar    1  LIG1       -0.0458
     39 C          12.4328    4.0852   -0.0366 C.ar    1  LIG1       -0.0224
     40 C          11.9756    5.3488   -0.4332 C.ar    1  LIG1        0.0916
     41 N          10.6934    5.7252   -0.2967 N.ar    1  LIG1       -0.2495
     42 H          11.7546    2.1976    0.7010 H       1  LIG1        0.0628
     43 C           8.3832    5.4395    0.2966 C.3     1  LIG1       -0.0217
     44 H           7.8784    5.0661    1.1898 H       1  LIG1        0.0293
     45 H           7.7645    5.1787   -0.5695 H       1  LIG1        0.0293
     46 H           8.4372    6.5273    0.3379 H       1  LIG1        0.0293
     47 C          13.8741    3.6592   -0.0386 C.3     1  LIG1       -0.0376
     48 H          14.5402    4.4957    0.1821 H       1  LIG1        0.0278
     49 H          14.1803    3.2516   -1.0044 H       1  LIG1        0.0278
     50 H          14.0370    2.8874    0.7167 H       1  LIG1        0.0278
     51 C          12.8238    6.4309   -0.9609 C.ar    1  LIG1        0.0845
     52 C          13.9306    6.5057   -1.7943 C.ar    1  LIG1        0.0964
     53 C          14.2251    7.8948   -1.9875 C.ar    1  LIG1        0.0951
     54 C          13.2842    8.6269   -1.2739 C.ar    1  LIG1        0.0691
     55 N          12.4630    7.7151   -0.6803 N.ar    1  LIG1       -0.3508
     56 H          11.6404    7.9507   -0.1361 H       1  LIG1        0.1660
     57 N          15.1143    4.5855   -3.0396 N.1     1  LIG1       -0.1908
     58 C          14.5863    5.4438   -2.4703 C.1     1  LIG1        0.1026
     59 N          16.1279    8.8508   -3.4381 N.1     1  LIG1       -0.1908
     60 C          15.2715    8.4153   -2.7920 C.1     1  LIG1        0.1026
     61 C          11.8750   10.6546   -0.7730 C.ar    1  LIG1        0.1261
     62 C          13.1251   10.0673   -1.0782 C.ar    1  LIG1        0.0391
     63 C          14.2149   10.9338   -1.1464 C.ar    1  LIG1       -0.0472
     64 C          14.0604   12.2829   -0.8824 C.ar    1  LIG1       -0.0319
     65 C          12.7949   12.7485   -0.5182 C.ar    1  LIG1        0.1085
     66 N          11.7281   11.9384   -0.4871 N.ar    1  LIG1       -0.2287
     67 H          15.1950   10.5471   -1.3997 H       1  LIG1        0.0626
     68 N          10.7091    9.8858   -0.7064 N.pl3   1  LIG1       -0.3426
     69 H           9.9085   10.4887   -0.5583 H       1  LIG1        0.1437
     70 H          10.5661    9.2655   -1.4951 H       1  LIG1        0.1437
     71 H          14.9038   12.9540   -0.9591 H       1  LIG1        0.0640
     72 C          12.5621   14.1437   -0.1668 C.ar    1  LIG1        0.1604
     73 C          13.3947   15.1827    0.1667 C.ar    1  LIG1        0.0390
     74 C          12.5266   16.2827    0.4161 C.ar    1  LIG1        0.1662
     75 C          11.2399   15.8621    0.2151 C.ar    1  LIG1        0.1772
     76 O          11.2655   14.5464   -0.1247 O.2     1  LIG1       -0.4492
     77 C          14.8807   15.2372    0.3134 C.3     1  LIG1       -0.0325
     78 H          15.1546   16.1232    0.8890 H       1  LIG1        0.0280
     79 H          15.3859   15.3082   -0.6554 H       1  LIG1        0.0280
     80 H          15.2700   14.3570    0.8307 H       1  LIG1        0.0280
     81 O          12.9809   17.5039    0.8071 O.3     1  LIG1       -0.5030
     82 H          12.3052   17.9362    1.3439 H       1  LIG1        0.2923
     83 C           9.8416   17.9120    0.2811 C.ar    1  LIG1       -0.0509
     84 C           8.6048   18.5276    0.4203 C.ar    1  LIG1       -0.0599
     85 C           9.9466   16.5160    0.3329 C.ar    1  LIG1        0.0221
     86 C           7.4571   17.7706    0.5981 C.ar    1  LIG1       -0.0463
     87 H           8.5355   19.6093    0.3742 H       1  LIG1        0.0618
     88 C           8.7876   15.7544    0.5021 C.ar    1  LIG1       -0.0355
     89 C           7.5439   16.3730    0.6314 C.ar    1  LIG1        0.0254
     90 H           8.8593   14.6740    0.5322 H       1  LIG1        0.0637
     91 H           6.4894   18.2469    0.7036 H       1  LIG1        0.0630
     92 H          10.7223   18.5143    0.0839 H       1  LIG1        0.0625
     93 C           6.3615   15.5819    0.8048 C.1     1  LIG1       -0.0696
     94 C           5.3649   14.9230    0.9510 C.1     1  LIG1       -0.1139
     95 H           4.4829   14.3393    1.0809 H       1  LIG1        0.1232
@<TRIPOS>BOND
     1    59    60    3
     2    57    58    3
     3    60    53    1
     4    11    10    1
     5    58    52    1
     6     9     3    1
     7    12    10    1
     8    53    52   ar
     9    53    54   ar
    10    10     1    1
    11    52    51   ar
    12     3     1   ar
    13     3     6   ar
    14     1     2   ar
    15    24    17    1
    16    70    68    1
    17     8     6    1
    18    67    63    1
    19     6     7   ar
    20    54    62    1
    21    54    55   ar
    22    15    13    1
    23    63    62   ar
    24    63    64   ar
    25     2     5    1
    26     2     4   ar
    27    62    61   ar
    28    49    47    1
    29    51    55   ar
    30    51    40    1
    31    71    64    1
    32    64    65   ar
    33     7     4   ar
    34     7    13    1
    35    61    68    1
    36    61    66   ar
    37     4    18    1
    38    68    69    1
    39    17    22   ar
    40    17    18   ar
    41    55    56    1
    42    79    77    1
    43    45    43    1
    44    65    66   ar
    45    65    72    1
    46    40    41   ar
    47    40    39   ar
    48    13    14    1
    49    13    16    1
    50    41    36   ar
    51    22    21   ar
    52    31    30    1
    53    18    19   ar
    54    72    76   ar
    55    72    73   ar
    56    76    75   ar
    57    47    39    1
    58    47    48    1
    59    47    50    1
    60    39    38   ar
    61    92    83    1
    62    73    77    1
    63    73    74   ar
    64    36    43    1
    65    36    37   ar
    66    75    85    1
    67    75    74   ar
    68    83    85   ar
    69    83    84   ar
    70    43    46    1
    71    43    44    1
    72    77    80    1
    73    77    78    1
    74    85    88   ar
    75    87    84    1
    76    74    81    1
    77    84    86   ar
    78    38    37   ar
    79    38    42    1
    80    88    90    1
    81    88    89   ar
    82    37    29    1
    83    30    29   ar
    84    30    26   ar
    85    86    89   ar
    86    86    91    1
    87    89    93    1
    88    21    26    1
    89    21    20   ar
    90    93    94    3
    91    81    82    1
    92    19    23    1
    93    19    20   ar
    94    94    95    1
    95    29    28   ar
    96    26    27   ar
    97    20    25    1
    98    28    27   ar
    99    28    34    1
   100    27    33    1
   101    35    34    1
   102    33    32    3
