@<TRIPOS>MOLECULE
mol_data/opt/cam/geoms/mol2/4hl6id12fi-6da-.out
 52 55 0 0 0
SMALL
GASTEIGER

@<TRIPOS>ATOM
      1 C          -0.0002    0.3727    0.9846 C.ar    1  LIG1        0.0253
      2 C           1.3937    0.4240    0.8234 C.ar    1  LIG1       -0.0298
      3 C          -0.7698    1.3426    0.3319 C.ar    1  LIG1       -0.0376
      4 C           2.0157    1.4060    0.0473 C.ar    1  LIG1        0.0273
      5 H           2.0170   -0.3078    1.3312 H       1  LIG1        0.0643
      6 C          -0.1697    2.3255   -0.4558 C.ar    1  LIG1       -0.0176
      7 C           1.2179    2.3668   -0.6092 C.ar    1  LIG1        0.1279
      8 H          -0.8005    3.0517   -0.9541 H       1  LIG1        0.0655
      9 H          -1.8513    1.3356    0.4404 H       1  LIG1        0.0637
     10 N          -0.5898   -0.5784    1.8277 N.pl3   1  LIG1       -0.3579
     11 H          -1.5547   -0.7896    1.6105 H       1  LIG1        0.1423
     12 H          -0.0506   -1.4257    1.9467 H       1  LIG1        0.1423
     13 O           1.8834    3.2802   -1.3870 O.3     1  LIG1       -0.4945
     14 C           1.1170    4.2288   -2.1113 C.3     1  LIG1        0.0788
     15 H           1.8345    4.8311   -2.6700 H       1  LIG1        0.0660
     16 H           0.4302    3.7399   -2.8143 H       1  LIG1        0.0660
     17 H           0.5407    4.8825   -1.4438 H       1  LIG1        0.0660
     18 C           4.3529    2.4008    0.4005 C.ar    1  LIG1        0.0469
     19 C           3.4977    1.3833   -0.1073 C.ar    1  LIG1        0.0080
     20 C           4.1054    0.3110   -0.7463 C.ar    1  LIG1       -0.0326
     21 C           5.5029    0.2517   -0.8797 C.ar    1  LIG1        0.0814
     22 C           6.2810    1.2882   -0.3033 C.ar    1  LIG1        0.1272
     23 N           5.6802    2.3274    0.3005 N.ar    1  LIG1       -0.2468
     24 H           3.4975   -0.4785   -1.1761 H       1  LIG1        0.0638
     25 C           3.8190    3.6125    1.1130 C.3     1  LIG1       -0.0217
     26 H           3.0743    3.3311    1.8644 H       1  LIG1        0.0293
     27 H           3.3196    4.2747    0.3983 H       1  LIG1        0.0293
     28 H           4.6451    4.1454    1.5846 H       1  LIG1        0.0293
     29 N           6.6117   -1.6572   -2.2316 N.1     1  LIG1       -0.1908
     30 C           6.0908   -0.8045   -1.6280 C.1     1  LIG1        0.1014
     31 C           7.7375    1.3249   -0.2907 C.ar    1  LIG1        0.1964
     32 C           8.7838    0.4072   -0.3032 C.ar    1  LIG1        0.1678
     33 C           9.9997    1.1333   -0.1090 C.ar    1  LIG1        0.0376
     34 C           9.6240    2.4545    0.0033 C.ar    1  LIG1        0.1450
     35 O           8.2765    2.5751   -0.1051 O.2     1  LIG1       -0.4491
     36 O           8.8044   -0.9409   -0.3606 O.3     1  LIG1       -0.5030
     37 H           8.0864   -1.2973   -0.9123 H       1  LIG1        0.2923
     38 C          11.3498    0.4930   -0.0019 C.3     1  LIG1       -0.0326
     39 H          12.0189    1.0640    0.6473 H       1  LIG1        0.0280
     40 H          11.8331    0.3925   -0.9817 H       1  LIG1        0.0280
     41 H          11.2487   -0.5151    0.4070 H       1  LIG1        0.0280
     42 C           9.8800    4.8263    0.8685 C.ar    1  LIG1        0.1506
     43 C          10.3850    3.6820    0.1965 C.ar    1  LIG1        0.0535
     44 C          11.6975    3.7835   -0.2990 C.ar    1  LIG1       -0.0469
     45 C          12.4258    4.9501   -0.1162 C.ar    1  LIG1       -0.0428
     46 C          11.8200    6.0174    0.5509 C.ar    1  LIG1        0.0291
     47 N          10.5789    5.9622    1.0323 N.ar    1  LIG1       -0.2439
     48 H          12.1254    2.9529   -0.8480 H       1  LIG1        0.0626
     49 H          12.3515    6.9538    0.7042 H       1  LIG1        0.0830
     50 N           7.5432    4.9502    2.0139 N.1     1  LIG1       -0.1893
     51 C           8.5699    4.8607    1.4775 C.1     1  LIG1        0.1198
     52 H          13.4373    5.0413   -0.4982 H       1  LIG1        0.0633
@<TRIPOS>BOND
     1    16    14    1
     2    15    14    1
     3    29    30    3
     4    14    17    1
     5    14    13    1
     6    30    21    1
     7    13     7    1
     8    24    20    1
     9    40    38    1
    10     8     6    1
    11    37    36    1
    12    21    20   ar
    13    21    22   ar
    14    48    44    1
    15    20    19   ar
    16     7     6   ar
    17     7     4   ar
    18    52    45    1
    19     6     3   ar
    20    36    32    1
    21    22    31    1
    22    22    23   ar
    23    32    31   ar
    24    32    33   ar
    25    44    45   ar
    26    44    43   ar
    27    31    35   ar
    28    45    46   ar
    29    33    38    1
    30    33    34   ar
    31    19     4    1
    32    19    18   ar
    33    35    34   ar
    34    38    41    1
    35    38    39    1
    36    34    43    1
    37     4     2   ar
    38    43    42   ar
    39    23    18   ar
    40     3     9    1
    41     3     1   ar
    42    27    25    1
    43    18    25    1
    44    46    49    1
    45    46    47   ar
    46     2     1   ar
    47     2     5    1
    48    42    47   ar
    49    42    51    1
    50     1    10    1
    51    25    28    1
    52    25    26    1
    53    51    50    3
    54    11    10    1
    55    10    12    1
