@<TRIPOS>MOLECULE
mol_data/opt/cam/geoms/mol2/4ia.out
 15 15 0 0 0
SMALL
GASTEIGER

@<TRIPOS>ATOM
      1 C           0.1195    0.0936    0.0151 C.ar    1  LIG1       -0.0504
      2 C           1.5145    0.0985    0.0110 C.ar    1  LIG1       -0.0588
      3 C          -0.5454    1.3198    0.0112 C.ar    1  LIG1       -0.0588
      4 C           2.2257    1.2923   -0.0028 C.ar    1  LIG1       -0.0615
      5 H           2.0498   -0.8469    0.0206 H       1  LIG1        0.0620
      6 C           0.1608    2.5166   -0.0025 C.ar    1  LIG1       -0.0615
      7 C           1.5506    2.5073   -0.0102 C.ar    1  LIG1       -0.0617
      8 H          -0.3770    3.4596   -0.0032 H       1  LIG1        0.0618
      9 H           3.3110    1.2729   -0.0037 H       1  LIG1        0.0618
     10 H          -1.6318    1.3359    0.0211 H       1  LIG1        0.0620
     11 C          -0.6487   -1.2022   -0.0019 C.3     1  LIG1       -0.0397
     12 H          -0.0949   -2.0012    0.4971 H       1  LIG1        0.0278
     13 H          -0.8430   -1.5320   -1.0282 H       1  LIG1        0.0278
     14 H          -1.6163   -1.0993    0.4953 H       1  LIG1        0.0278
     15 H           2.1040    3.4407   -0.0179 H       1  LIG1        0.0618
@<TRIPOS>BOND
     1    13    11    1
     2    15     7    1
     3     7     4   ar
     4     7     6   ar
     5     9     4    1
     6     8     6    1
     7     4     2   ar
     8     6     3   ar
     9    11     1    1
    10    11    14    1
    11    11    12    1
    12     2     1   ar
    13     2     5    1
    14     3     1   ar
    15     3    10    1
