@<TRIPOS>MOLECULE
mol_data/opt/cam/geoms/mol2/4ia13hf-12ha6la.out
 48 51 0 0 0
SMALL
GASTEIGER

@<TRIPOS>ATOM
      1 C          -0.0778   -0.1371    0.4676 C.ar    1  LIG1       -0.0498
      2 C           1.3086   -0.0975    0.3673 C.ar    1  LIG1       -0.0497
      3 C          -0.8126    0.9914    0.0975 C.ar    1  LIG1       -0.0588
      4 C           1.9792    1.0414   -0.1019 C.ar    1  LIG1        0.0005
      5 H           1.8938   -0.9566    0.6795 H       1  LIG1        0.0627
      6 C          -0.1647    2.1274   -0.3679 C.ar    1  LIG1       -0.0609
      7 C           1.2188    2.1557   -0.4743 C.ar    1  LIG1       -0.0526
      8 H          -0.7437    2.9982   -0.6599 H       1  LIG1        0.0618
      9 H          -1.8961    0.9770    0.1743 H       1  LIG1        0.0620
     10 C          -0.7786   -1.3751    0.9645 C.3     1  LIG1       -0.0397
     11 H          -0.0697   -2.0939    1.3806 H       1  LIG1        0.0278
     12 H          -1.3214   -1.8736    0.1545 H       1  LIG1        0.0278
     13 H          -1.5099   -1.1333    1.7412 H       1  LIG1        0.0278
     14 H           1.7093    3.0382   -0.8731 H       1  LIG1        0.0624
     15 C           3.4356    1.0608   -0.1811 C.ar    1  LIG1        0.0716
     16 C           4.3488    0.0233   -0.3039 C.ar    1  LIG1        0.0930
     17 C           5.6416    0.5951   -0.3432 C.ar    1  LIG1        0.1666
     18 C           5.5019    1.9704   -0.2416 C.ar    1  LIG1        0.1282
     19 N           4.1505    2.2377   -0.1822 N.ar    1  LIG1       -0.3473
     20 H           3.7818    3.1371    0.0786 H       1  LIG1        0.1662
     21 N           4.1050   -1.3596   -0.3775 N.pl3   1  LIG1       -0.3535
     22 H           3.3769   -1.5910   -1.0436 H       1  LIG1        0.1425
     23 H           4.9589   -1.8457   -0.6264 H       1  LIG1        0.1425
     24 O           6.7578   -0.1511   -0.4843 O.3     1  LIG1       -0.5030
     25 H           7.5363    0.4568   -0.5166 H       1  LIG1        0.2923
     26 C           6.4805    3.0153   -0.1990 C.ar    1  LIG1        0.1759
     27 C           7.8464    3.0427   -0.3055 C.ar    1  LIG1        0.0732
     28 C           8.2334    4.4105   -0.1793 C.ar    1  LIG1        0.0058
     29 C           7.0896    5.1293   -0.0017 C.ar    1  LIG1        0.1427
     30 O           6.0194    4.2776   -0.0127 O.2     1  LIG1       -0.4512
     31 N           8.6587    1.8862   -0.5236 N.pl3   1  LIG1       -0.3550
     32 H           9.1536    1.9440   -1.4097 H       1  LIG1        0.1424
     33 H           9.3583    1.7841    0.2063 H       1  LIG1        0.1424
     34 H           9.2358    4.8096   -0.2401 H       1  LIG1        0.0674
     35 C           5.6938    7.2388   -0.1889 C.ar    1  LIG1        0.2254
     36 C           6.8633    6.5514    0.2208 C.ar    1  LIG1        0.0788
     37 C           7.8406    7.3245    0.8353 C.ar    1  LIG1       -0.0445
     38 C           7.6579    8.6931    1.0120 C.ar    1  LIG1       -0.0427
     39 C           6.4708    9.2472    0.5747 C.ar    1  LIG1        0.0314
     40 N           5.5056    8.5327   -0.0136 N.ar    1  LIG1       -0.2207
     41 H           8.7452    6.8420    1.1907 H       1  LIG1        0.0627
     42 H           6.2701   10.3085    0.6958 H       1  LIG1        0.0831
     43 O           4.7338    6.5228   -0.7989 O.3     1  LIG1       -0.4792
     44 C           3.5809    7.2307   -1.2376 C.3     1  LIG1        0.0804
     45 H           2.9472    6.4836   -1.7149 H       1  LIG1        0.0660
     46 H           3.0584    7.6929   -0.3971 H       1  LIG1        0.0660
     47 H           3.8466    8.0143   -1.9507 H       1  LIG1        0.0660
     48 H           8.4136    9.3038    1.4910 H       1  LIG1        0.0633
@<TRIPOS>BOND
     1    47    44    1
     2    45    44    1
     3    32    31    1
     4    44    43    1
     5    44    46    1
     6    22    21    1
     7    14     7    1
     8    43    35    1
     9     8     6    1
    10    23    21    1
    11    31    27    1
    12    31    33    1
    13    25    24    1
    14    24    17    1
    15     7     6   ar
    16     7     4   ar
    17    21    16    1
    18     6     3   ar
    19    17    16   ar
    20    17    18   ar
    21    27    26   ar
    22    27    28   ar
    23    16    15   ar
    24    18    26    1
    25    18    19   ar
    26    34    28    1
    27    26    30   ar
    28    35    40   ar
    29    35    36   ar
    30    19    15   ar
    31    19    20    1
    32    15     4    1
    33    28    29   ar
    34     4     2   ar
    35    40    39   ar
    36    30    29   ar
    37    29    36    1
    38     3     9    1
    39     3     1   ar
    40    12    10    1
    41    36    37   ar
    42     2     1   ar
    43     2     5    1
    44     1    10    1
    45    39    42    1
    46    39    38   ar
    47    37    38   ar
    48    37    41    1
    49    10    11    1
    50    10    13    1
    51    38    48    1
