@<TRIPOS>MOLECULE
mol_data/opt/cam/geoms/mol2/4ia13di-4ha13dl.out
 52 55 0 0 0
SMALL
GASTEIGER

@<TRIPOS>ATOM
      1 C          -0.0655    0.1094   -0.8734 C.ar    1  LIG1       -0.0498
      2 C           1.2763    0.0348   -0.5106 C.ar    1  LIG1       -0.0497
      3 C          -0.6980    1.3525   -0.8426 C.ar    1  LIG1       -0.0588
      4 C           1.9878    1.1704   -0.1140 C.ar    1  LIG1       -0.0002
      5 H           1.7778   -0.9264   -0.5388 H       1  LIG1        0.0627
      6 C          -0.0043    2.4906   -0.4523 C.ar    1  LIG1       -0.0609
      7 C           1.3301    2.4045   -0.0840 C.ar    1  LIG1       -0.0526
      8 H          -0.5113    3.4494   -0.4192 H       1  LIG1        0.0618
      9 H          -1.7453    1.4268   -1.1203 H       1  LIG1        0.0620
     10 C          -0.8058   -1.1236   -1.3200 C.3     1  LIG1       -0.0397
     11 H          -0.3909   -2.0238   -0.8616 H       1  LIG1        0.0278
     12 H          -0.7416   -1.2477   -2.4062 H       1  LIG1        0.0278
     13 H          -1.8654   -1.0661   -1.0602 H       1  LIG1        0.0278
     14 H           1.8497    3.2923    0.2629 H       1  LIG1        0.0624
     15 C           3.4008    1.0758    0.2609 C.ar    1  LIG1        0.0648
     16 C           4.1513    0.0429    0.8095 C.ar    1  LIG1        0.0804
     17 C           5.4990    0.4946    0.9800 C.ar    1  LIG1       -0.0072
     18 C           5.5361    1.7929    0.5203 C.ar    1  LIG1        0.0529
     19 N           4.2584    2.1228    0.1094 N.ar    1  LIG1       -0.3529
     20 H           4.0310    2.9735   -0.3807 H       1  LIG1        0.1659
     21 N           3.3086   -2.2880    1.5200 N.1     1  LIG1       -0.1908
     22 C           3.6720   -1.2351    1.2010 C.1     1  LIG1        0.1016
     23 C           6.6068   -0.2873    1.6112 C.3     1  LIG1       -0.0365
     24 H           7.4187    0.3692    1.9266 H       1  LIG1        0.0279
     25 H           7.0314   -1.0256    0.9235 H       1  LIG1        0.0279
     26 H           6.2412   -0.8331    2.4848 H       1  LIG1        0.0279
     27 C           7.8393    2.5131   -0.1867 C.ar    1  LIG1        0.0344
     28 C           8.8275    3.5016   -0.2242 C.ar    1  LIG1       -0.0313
     29 C           6.6162    2.7891    0.4622 C.ar    1  LIG1        0.0193
     30 C           8.6181    4.7616    0.3273 C.ar    1  LIG1        0.0014
     31 H           9.7723    3.2738   -0.7047 H       1  LIG1        0.0643
     32 C           6.4234    4.0583    1.0126 C.ar    1  LIG1       -0.0502
     33 C           7.3938    5.0424    0.9466 C.ar    1  LIG1       -0.0519
     34 H           5.4803    4.2689    1.5080 H       1  LIG1        0.0625
     35 N           8.0861    1.2769   -0.7522 N.pl3   1  LIG1       -0.3574
     36 H           7.2703    0.7216   -0.9650 H       1  LIG1        0.1423
     37 H           8.7954    1.2553   -1.4692 H       1  LIG1        0.1423
     38 H           7.1886    6.0301    1.3453 H       1  LIG1        0.0624
     39 C           9.6665    5.7825    0.2637 C.ar    1  LIG1        0.0678
     40 C          10.6649    6.0228   -0.6772 C.ar    1  LIG1        0.1185
     41 C          11.3988    7.1732   -0.2364 C.ar    1  LIG1        0.1552
     42 C          10.8395    7.5885    0.9405 C.ar    1  LIG1        0.0457
     43 N           9.7872    6.7470    1.2153 N.ar    1  LIG1       -0.3565
     44 H           9.2418    6.7633    2.0615 H       1  LIG1        0.1655
     45 H          11.1047    8.4131    1.5813 H       1  LIG1        0.0845
     46 N          11.0459    4.7170   -2.8654 N.1     1  LIG1       -0.1907
     47 C          10.8648    5.3073   -1.8846 C.1     1  LIG1        0.1050
     48 O          12.4118    7.8091   -0.8727 O.3     1  LIG1       -0.4923
     49 C          13.5543    7.0112   -1.1648 C.3     1  LIG1        0.0789
     50 H          14.2861    7.6811   -1.6161 H       1  LIG1        0.0660
     51 H          13.9716    6.5789   -0.2485 H       1  LIG1        0.0660
     52 H          13.3192    6.2097   -1.8704 H       1  LIG1        0.0660
@<TRIPOS>BOND
     1    46    47    3
     2    12    10    1
     3    47    40    1
     4    52    49    1
     5    50    49    1
     6    37    35    1
     7    10    13    1
     8    10     1    1
     9    10    11    1
    10    49    48    1
    11    49    51    1
    12     9     3    1
    13    36    35    1
    14     1     3   ar
    15     1     2   ar
    16    48    41    1
    17     3     6   ar
    18    35    27    1
    19    31    28    1
    20    40    41   ar
    21    40    39   ar
    22     5     2    1
    23     2     4   ar
    24     6     8    1
    25     6     7   ar
    26    20    19    1
    27    41    42   ar
    28    28    27   ar
    29    28    30   ar
    30    27    29   ar
    31     4     7   ar
    32     4    15    1
    33     7    14    1
    34    19    15   ar
    35    19    18   ar
    36    15    16   ar
    37    39    30    1
    38    39    43   ar
    39    30    33   ar
    40    29    18    1
    41    29    32   ar
    42    18    17   ar
    43    16    17   ar
    44    16    22    1
    45    25    23    1
    46    42    43   ar
    47    42    45    1
    48    33    32   ar
    49    33    38    1
    50    17    23    1
    51    32    34    1
    52    22    21    3
    53    43    44    1
    54    23    24    1
    55    23    26    1
