@<TRIPOS>MOLECULE
mol_data/opt/cam/geoms/mol2/4ia13li-4di-12if-.out
 55 58 0 0 0
SMALL
GASTEIGER

@<TRIPOS>ATOM
      1 C          -0.2431    0.1619   -0.7435 C.ar    1  LIG1       -0.0498
      2 C           1.1406    0.1186   -0.6165 C.ar    1  LIG1       -0.0496
      3 C          -0.9059    1.3614   -0.4717 C.ar    1  LIG1       -0.0588
      4 C           1.8748    1.2446   -0.2212 C.ar    1  LIG1        0.0021
      5 H           1.6756   -0.7999   -0.8330 H       1  LIG1        0.0627
      6 C          -0.1934    2.4848   -0.0777 C.ar    1  LIG1       -0.0609
      7 C           1.1880    2.4306    0.0538 C.ar    1  LIG1       -0.0525
      8 H          -0.7183    3.4094    0.1410 H       1  LIG1        0.0618
      9 H          -1.9869    1.4109   -0.5667 H       1  LIG1        0.0620
     10 C          -1.0147   -1.0531   -1.1883 C.3     1  LIG1       -0.0397
     11 H          -0.3814   -1.9424   -1.2051 H       1  LIG1        0.0278
     12 H          -1.4204   -0.9153   -2.1957 H       1  LIG1        0.0278
     13 H          -1.8606   -1.2517   -0.5239 H       1  LIG1        0.0278
     14 H           1.7284    3.3066    0.3993 H       1  LIG1        0.0624
     15 C           3.3304    1.1715   -0.1118 C.ar    1  LIG1        0.0894
     16 C           4.1872    0.1007    0.0684 C.ar    1  LIG1        0.1487
     17 C           5.5296    0.5599    0.0663 C.ar    1  LIG1        0.0171
     18 C           5.4644    1.9290   -0.1288 C.ar    1  LIG1        0.0547
     19 N           4.1324    2.2836   -0.1911 N.ar    1  LIG1       -0.3510
     20 H           3.8159    3.1715   -0.5467 H       1  LIG1        0.1660
     21 O           3.8284   -1.2092    0.2451 O.3     1  LIG1       -0.4927
     22 C           3.3876   -1.5173    1.5605 C.3     1  LIG1        0.0789
     23 H           3.1957   -2.5912    1.5850 H       1  LIG1        0.0660
     24 H           4.1550   -1.2694    2.3026 H       1  LIG1        0.0660
     25 H           2.4660   -0.9790    1.8075 H       1  LIG1        0.0660
     26 C           6.7219   -0.3086    0.3078 C.3     1  LIG1       -0.0342
     27 H           7.5489    0.2558    0.7450 H       1  LIG1        0.0279
     28 H           7.0872   -0.7567   -0.6199 H       1  LIG1        0.0279
     29 H           6.4636   -1.1227    0.9891 H       1  LIG1        0.0279
     30 C           7.6756    2.8563   -0.9191 C.ar    1  LIG1        0.0615
     31 C           8.6150    3.8890   -0.9068 C.ar    1  LIG1       -0.0328
     32 C           6.4908    2.9698   -0.1715 C.ar    1  LIG1        0.0163
     33 C           8.4145    5.0551   -0.1746 C.ar    1  LIG1        0.0218
     34 H           9.5054    3.7886   -1.5160 H       1  LIG1        0.0638
     35 C           6.2999    4.1576    0.5443 C.ar    1  LIG1       -0.0478
     36 C           7.2207    5.1971    0.5649 C.ar    1  LIG1       -0.0391
     37 H           5.4019    4.2490    1.1474 H       1  LIG1        0.0627
     38 N           8.1633    0.8574   -2.4932 N.1     1  LIG1       -0.1908
     39 C           7.9260    1.7349   -1.7772 C.1     1  LIG1        0.0998
     40 C           6.9378    6.4170    1.3996 C.3     1  LIG1       -0.0390
     41 H           6.0773    6.2464    2.0491 H       1  LIG1        0.0278
     42 H           6.7323    7.2874    0.7727 H       1  LIG1        0.0278
     43 H           7.7966    6.6767    2.0236 H       1  LIG1        0.0278
     44 C           9.4586    6.0834   -0.1979 C.ar    1  LIG1        0.1416
     45 C          10.8219    6.0040   -0.1619 C.ar    1  LIG1        0.0367
     46 C          11.2779    7.3580   -0.2467 C.ar    1  LIG1        0.1580
     47 C          10.1833    8.1555   -0.3238 C.ar    1  LIG1        0.1341
     48 O           9.0605    7.3829   -0.2930 O.2     1  LIG1       -0.4589
     49 H          10.0378    9.2207   -0.4013 H       1  LIG1        0.1068
     50 C          11.7102    4.8109   -0.0238 C.3     1  LIG1       -0.0326
     51 H          12.5432    5.0370    0.6464 H       1  LIG1        0.0280
     52 H          12.1445    4.5157   -0.9845 H       1  LIG1        0.0280
     53 H          11.1668    3.9535    0.3772 H       1  LIG1        0.0280
     54 O          12.5986    7.6702   -0.2307 O.3     1  LIG1       -0.5034
     55 H          12.7066    8.6276   -0.2589 H       1  LIG1        0.2923
@<TRIPOS>BOND
     1    38    39    3
     2    12    10    1
     3    39    30    1
     4    34    31    1
     5    11    10    1
     6    10     1    1
     7    10    13    1
     8    52    50    1
     9    30    31   ar
    10    30    32   ar
    11    31    33   ar
    12     5     2    1
    13     1     2   ar
    14     1     3   ar
    15    28    26    1
    16     2     4   ar
    17     9     3    1
    18    20    19    1
    19     3     6   ar
    20    49    47    1
    21    47    48   ar
    22    47    46   ar
    23    48    44   ar
    24    55    54    1
    25    46    54    1
    26    46    45   ar
    27     4    15    1
    28     4     7   ar
    29    44    33    1
    30    44    45   ar
    31    19    18   ar
    32    19    15   ar
    33    33    36   ar
    34    32    18    1
    35    32    35   ar
    36    45    50    1
    37    18    17   ar
    38    15    16   ar
    39     6     7   ar
    40     6     8    1
    41    50    53    1
    42    50    51    1
    43     7    14    1
    44    17    16   ar
    45    17    26    1
    46    16    21    1
    47    21    22    1
    48    26    27    1
    49    26    29    1
    50    35    36   ar
    51    35    37    1
    52    36    40    1
    53    42    40    1
    54    40    43    1
    55    40    41    1
    56    22    23    1
    57    22    25    1
    58    22    24    1
