@<TRIPOS>MOLECULE
mol_data/opt/cam/geoms/mol2/4ia13ee-6fd-12hh.out
 49 52 0 0 0
SMALL
GASTEIGER

@<TRIPOS>ATOM
      1 C          -0.0553    0.2518    0.8181 C.ar    1  LIG1       -0.0498
      2 C           1.3052    0.1293    0.5561 C.ar    1  LIG1       -0.0497
      3 C          -0.6932    1.4530    0.5026 C.ar    1  LIG1       -0.0588
      4 C           2.0320    1.1734   -0.0251 C.ar    1  LIG1       -0.0002
      5 H           1.8165   -0.7919    0.8106 H       1  LIG1        0.0627
      6 C           0.0143    2.4987   -0.0734 C.ar    1  LIG1       -0.0609
      7 C           1.3690    2.3630   -0.3422 C.ar    1  LIG1       -0.0526
      8 H          -0.4934    3.4248   -0.3226 H       1  LIG1        0.0618
      9 H          -1.7534    1.5667    0.7093 H       1  LIG1        0.0620
     10 C          -0.8289   -0.8907    1.4219 C.3     1  LIG1       -0.0397
     11 H          -0.1620   -1.6377    1.8571 H       1  LIG1        0.0278
     12 H          -1.4393   -1.3933    0.6646 H       1  LIG1        0.0278
     13 H          -1.5065   -0.5423    2.2059 H       1  LIG1        0.0278
     14 H           1.9019    3.1761   -0.8257 H       1  LIG1        0.0624
     15 C           3.4680    1.0360   -0.2765 C.ar    1  LIG1        0.0637
     16 C           4.2660   -0.0637   -0.5448 C.ar    1  LIG1        0.0659
     17 C           5.6145    0.4079   -0.7061 C.ar    1  LIG1        0.0660
     18 C           5.5994    1.7793   -0.5296 C.ar    1  LIG1        0.0689
     19 N           4.2884    2.1380   -0.2971 N.ar    1  LIG1       -0.3521
     20 H           4.0132    3.0371    0.0701 H       1  LIG1        0.1660
     21 C           3.8567   -1.4152   -0.6928 C.1     1  LIG1       -0.0663
     22 C           3.5348   -2.5682   -0.8219 C.1     1  LIG1       -0.1138
     23 H           3.2539   -3.5885   -0.9458 H       1  LIG1        0.1232
     24 C           6.7444   -0.3917   -1.0210 C.1     1  LIG1       -0.0663
     25 C           7.7033   -1.0717   -1.2818 C.1     1  LIG1       -0.1138
     26 H           8.5476   -1.6769   -1.5196 H       1  LIG1        0.1232
     27 C           6.5056    4.0673   -1.0784 C.ar    1  LIG1        0.2224
     28 C           6.6779    2.7655   -0.5436 C.ar    1  LIG1        0.0621
     29 C           7.9420    2.4817   -0.0588 C.ar    1  LIG1       -0.0279
     30 C           8.9384    3.4610   -0.0549 C.ar    1  LIG1        0.0816
     31 C           8.6144    4.7681   -0.4875 C.ar    1  LIG1        0.1290
     32 N           7.4079    5.0153   -1.0212 N.ar    1  LIG1       -0.2080
     33 H           8.1675    1.4870    0.3068 H       1  LIG1        0.0639
     34 O           5.3475    4.4256   -1.6772 O.3     1  LIG1       -0.4919
     35 H           4.8479    3.6298   -1.9071 H       1  LIG1        0.2937
     36 N          11.3321    2.7757    0.6345 N.1     1  LIG1       -0.1908
     37 C          10.2581    3.0846    0.3268 C.1     1  LIG1        0.1014
     38 C           9.5091    5.9018   -0.4072 C.ar    1  LIG1        0.1767
     39 C          10.5291    6.3168    0.4315 C.ar    1  LIG1        0.0935
     40 C          10.8648    7.6516    0.0165 C.ar    1  LIG1        0.0845
     41 C          10.0454    7.9435   -1.0244 C.ar    1  LIG1        0.1151
     42 O           9.2295    6.9182   -1.2999 O.2     1  LIG1       -0.4576
     43 H           9.9563    8.8121   -1.6598 H       1  LIG1        0.1049
     44 N          11.1316    5.7605    1.5311 N.pl3   1  LIG1       -0.3536
     45 H          11.2633    4.7585    1.5370 H       1  LIG1        0.1425
     46 H          11.9736    6.2703    1.7735 H       1  LIG1        0.1425
     47 N          11.8986    8.3888    0.6402 N.pl3   1  LIG1       -0.3541
     48 H          12.3836    8.9988   -0.0059 H       1  LIG1        0.1425
     49 H          11.5579    8.9452    1.4175 H       1  LIG1        0.1425
@<TRIPOS>BOND
     1    35    34    1
     2    34    27    1
     3    43    41    1
     4    26    25    1
     5    42    41   ar
     6    42    38   ar
     7    25    24    3
     8    27    32   ar
     9    27    28   ar
    10    41    40   ar
    11    32    31   ar
    12    24    17    1
    13    23    22    1
    14    14     7    1
    15    22    21    3
    16    17    16   ar
    17    17    18   ar
    18    21    16    1
    19    16    15   ar
    20    28    18    1
    21    28    29   ar
    22    18    19   ar
    23    31    38    1
    24    31    30   ar
    25    38    39   ar
    26     7     6   ar
    27     7     4   ar
    28     8     6    1
    29    19    15   ar
    30    19    20    1
    31    15     4    1
    32     6     3   ar
    33    29    30   ar
    34    29    33    1
    35    30    37    1
    36     4     2   ar
    37    48    47    1
    38    40    39   ar
    39    40    47    1
    40    37    36    3
    41    39    44    1
    42     3     9    1
    43     3     1   ar
    44     2     5    1
    45     2     1   ar
    46    47    49    1
    47    12    10    1
    48     1    10    1
    49    10    11    1
    50    10    13    1
    51    44    45    1
    52    44    46    1
