@<TRIPOS>MOLECULE
mol_data/opt/cam/geoms/mol2/4ia4ia4ia4ia.out
 54 57 0 0 0
SMALL
GASTEIGER

@<TRIPOS>ATOM
      1 C          -0.3141    0.9594   -0.5019 C.ar    1  LIG1       -0.0499
      2 C           1.0678    0.8485   -0.6332 C.ar    1  LIG1       -0.0511
      3 C          -0.8528    1.0816    0.7794 C.ar    1  LIG1       -0.0588
      4 C           1.9172    0.8629    0.4760 C.ar    1  LIG1       -0.0174
      5 H           1.4982    0.7671   -1.6269 H       1  LIG1        0.0626
      6 C          -0.0252    1.1021    1.8936 C.ar    1  LIG1       -0.0609
      7 C           1.3522    0.9964    1.7456 C.ar    1  LIG1       -0.0540
      8 H          -0.4557    1.1947    2.8857 H       1  LIG1        0.0618
      9 H          -1.9292    1.1615    0.9023 H       1  LIG1        0.0620
     10 C          -1.2057    0.9783   -1.7162 C.3     1  LIG1       -0.0397
     11 H          -0.7125    0.5288   -2.5810 H       1  LIG1        0.0278
     12 H          -1.4779    2.0034   -1.9895 H       1  LIG1        0.0278
     13 H          -2.1359    0.4334   -1.5357 H       1  LIG1        0.0278
     14 H           1.9976    1.0006    2.6180 H       1  LIG1        0.0624
     15 C           4.0323   -0.2825   -0.3454 C.ar    1  LIG1       -0.0422
     16 C           5.4235   -0.2824   -0.4298 C.ar    1  LIG1       -0.0505
     17 C           3.3961    0.7788    0.3225 C.ar    1  LIG1       -0.0149
     18 C           6.2116    0.7292    0.1190 C.ar    1  LIG1       -0.0173
     19 H           5.9093   -1.1004   -0.9533 H       1  LIG1        0.0626
     20 C           4.1828    1.7886    0.8813 C.ar    1  LIG1       -0.0532
     21 C           5.5651    1.7739    0.7802 C.ar    1  LIG1       -0.0534
     22 H           3.6911    2.6079    1.3964 H       1  LIG1        0.0624
     23 C           3.2656   -1.4308   -0.9537 C.3     1  LIG1       -0.0391
     24 H           3.9066   -2.3102   -1.0484 H       1  LIG1        0.0278
     25 H           2.8965   -1.1896   -1.9556 H       1  LIG1        0.0278
     26 H           2.3973   -1.7014   -0.3499 H       1  LIG1        0.0278
     27 H           6.1513    2.5710    1.2261 H       1  LIG1        0.0624
     28 C           8.4984   -0.3435    0.4062 C.ar    1  LIG1       -0.0422
     29 C           9.8798   -0.2474    0.2474 C.ar    1  LIG1       -0.0505
     30 C           7.6938    0.7291   -0.0175 C.ar    1  LIG1       -0.0149
     31 C          10.4977    0.8684   -0.3169 C.ar    1  LIG1       -0.0173
     32 H          10.4964   -1.0814    0.5693 H       1  LIG1        0.0626
     33 C           8.3106    1.8523   -0.5741 C.ar    1  LIG1       -0.0532
     34 C           9.6859    1.9250   -0.7297 C.ar    1  LIG1       -0.0534
     35 H           7.6888    2.6798   -0.9013 H       1  LIG1        0.0624
     36 C           7.9239   -1.5835    1.0456 C.3     1  LIG1       -0.0391
     37 H           8.6754   -2.0757    1.6672 H       1  LIG1        0.0278
     38 H           7.5951   -2.3124    0.2980 H       1  LIG1        0.0278
     39 H           7.0587   -1.3525    1.6697 H       1  LIG1        0.0278
     40 H          10.1381    2.8108   -1.1642 H       1  LIG1        0.0624
     41 C          12.8839    0.7696    0.5471 C.ar    1  LIG1       -0.0427
     42 C          14.2488    0.8504    0.2692 C.ar    1  LIG1       -0.0583
     43 C          11.9727    0.9305   -0.5123 C.ar    1  LIG1       -0.0150
     44 C          14.7226    1.0824   -1.0148 C.ar    1  LIG1       -0.0615
     45 H          14.9548    0.7381    1.0874 H       1  LIG1        0.0620
     46 C          12.4602    1.1775   -1.7989 C.ar    1  LIG1       -0.0538
     47 C          13.8213    1.2511   -2.0572 C.ar    1  LIG1       -0.0612
     48 H          11.7486    1.2984   -2.6097 H       1  LIG1        0.0624
     49 H          15.7911    1.1389   -1.1967 H       1  LIG1        0.0618
     50 C          12.4385    0.5431    1.9706 C.3     1  LIG1       -0.0391
     51 H          13.2183    0.8568    2.6683 H       1  LIG1        0.0278
     52 H          12.2313   -0.5132    2.1703 H       1  LIG1        0.0278
     53 H          11.5268    1.0969    2.2027 H       1  LIG1        0.0278
     54 H          14.1739    1.4373   -3.0664 H       1  LIG1        0.0618
@<TRIPOS>BOND
     1    54    47    1
     2    48    46    1
     3    11    10    1
     4    47    46   ar
     5    47    44   ar
     6    12    10    1
     7    25    23    1
     8    46    43   ar
     9    10    13    1
    10    10     1    1
    11     5     2    1
    12    49    44    1
    13    40    34    1
    14    24    23    1
    15    44    42   ar
    16    23    26    1
    17    23    15    1
    18    19    16    1
    19    35    33    1
    20    34    33   ar
    21    34    31   ar
    22     2     1   ar
    23     2     4   ar
    24    33    30   ar
    25    43    31    1
    26    43    41   ar
    27     1     3   ar
    28    16    15   ar
    29    16    18   ar
    30    15    17   ar
    31    31    29   ar
    32    30    18    1
    33    30    28   ar
    34    18    21   ar
    35    29    28   ar
    36    29    32    1
    37    42    41   ar
    38    42    45    1
    39    38    36    1
    40    17     4    1
    41    17    20   ar
    42    28    36    1
    43     4     7   ar
    44    41    50    1
    45     3     9    1
    46     3     6   ar
    47    21    20   ar
    48    21    27    1
    49    20    22    1
    50    36    37    1
    51    36    39    1
    52     7     6   ar
    53     7    14    1
    54     6     8    1
    55    50    52    1
    56    50    53    1
    57    50    51    1
