@<TRIPOS>MOLECULE
mol_data/opt/cam/geoms/mol2/4ia4ia4ia.out
 41 43 0 0 0
SMALL
GASTEIGER

@<TRIPOS>ATOM
      1 C          -0.2156    0.4904   -0.4946 C.ar    1  LIG1       -0.0499
      2 C           1.1693    0.4182   -0.6194 C.ar    1  LIG1       -0.0511
      3 C          -0.7501    1.1567    0.6090 C.ar    1  LIG1       -0.0588
      4 C           2.0255    0.9964    0.3215 C.ar    1  LIG1       -0.0174
      5 H           1.5957   -0.0855   -1.4818 H       1  LIG1        0.0626
      6 C           0.0837    1.7409    1.5520 C.ar    1  LIG1       -0.0609
      7 C           1.4639    1.6652    1.4103 C.ar    1  LIG1       -0.0540
      8 H          -0.3435    2.2543    2.4078 H       1  LIG1        0.0618
      9 H          -1.8284    1.2171    0.7273 H       1  LIG1        0.0620
     10 C          -1.1183   -0.1115   -1.5399 C.3     1  LIG1       -0.0397
     11 H          -0.5844   -0.8349   -2.1601 H       1  LIG1        0.0278
     12 H          -1.5203    0.6596   -2.2056 H       1  LIG1        0.0278
     13 H          -1.9711   -0.6213   -1.0836 H       1  LIG1        0.0278
     14 H           2.1152    2.1125    2.1543 H       1  LIG1        0.0624
     15 C           4.2128   -0.2643    0.0291 C.ar    1  LIG1       -0.0422
     16 C           5.5988   -0.2163   -0.1083 C.ar    1  LIG1       -0.0505
     17 C           3.5049    0.9436    0.1595 C.ar    1  LIG1       -0.0149
     18 C           6.3133    0.9815   -0.1246 C.ar    1  LIG1       -0.0173
     19 H           6.1406   -1.1513   -0.2161 H       1  LIG1        0.0626
     20 C           4.2184    2.1444    0.1537 C.ar    1  LIG1       -0.0532
     21 C           5.5967    2.1709    0.0086 C.ar    1  LIG1       -0.0534
     22 H           3.6711    3.0765    0.2541 H       1  LIG1        0.0624
     23 C           3.5289   -1.6090    0.0547 C.3     1  LIG1       -0.0391
     24 H           4.2343   -2.3906    0.3457 H       1  LIG1        0.0278
     25 H           3.1294   -1.8823   -0.9272 H       1  LIG1        0.0278
     26 H           2.6918   -1.6230    0.7552 H       1  LIG1        0.0278
     27 H           6.1256    3.1186    0.0090 H       1  LIG1        0.0624
     28 C           8.6743    0.3135    0.5307 C.ar    1  LIG1       -0.0427
     29 C          10.0438    0.4020    0.2787 C.ar    1  LIG1       -0.0583
     30 C           7.7901    1.0085   -0.3139 C.ar    1  LIG1       -0.0150
     31 C          10.5477    1.1519   -0.7752 C.ar    1  LIG1       -0.0615
     32 H          10.7298   -0.1245    0.9363 H       1  LIG1        0.0620
     33 C           8.3089    1.7720   -1.3636 C.ar    1  LIG1       -0.0538
     34 C           9.6738    1.8458   -1.6011 C.ar    1  LIG1       -0.0612
     35 H           7.6179    2.3034   -2.0105 H       1  LIG1        0.0624
     36 H          11.6188    1.1993   -0.9439 H       1  LIG1        0.0618
     37 C           8.1980   -0.4959    1.7115 C.3     1  LIG1       -0.0391
     38 H           8.9952   -0.5949    2.4518 H       1  LIG1        0.0278
     39 H           7.9000   -1.5081    1.4193 H       1  LIG1        0.0278
     40 H           7.3346   -0.0360    2.1958 H       1  LIG1        0.0278
     41 H          10.0505    2.4404   -2.4270 H       1  LIG1        0.0618
@<TRIPOS>BOND
     1    41    34    1
     2    12    10    1
     3    11    10    1
     4    35    33    1
     5    34    33   ar
     6    34    31   ar
     7    10    13    1
     8    10     1    1
     9     5     2    1
    10    33    30   ar
    11    36    31    1
    12    25    23    1
    13    31    29   ar
    14     2     1   ar
    15     2     4   ar
    16     1     3   ar
    17    30    18    1
    18    30    28   ar
    19    19    16    1
    20    18    16   ar
    21    18    21   ar
    22    16    15   ar
    23    21    27    1
    24    21    20   ar
    25    15    23    1
    26    15    17   ar
    27    23    24    1
    28    23    26    1
    29    20    17   ar
    30    20    22    1
    31    17     4    1
    32    29    28   ar
    33    29    32    1
    34     4     7   ar
    35    28    37    1
    36     3     9    1
    37     3     6   ar
    38     7     6   ar
    39     7    14    1
    40    39    37    1
    41     6     8    1
    42    37    40    1
    43    37    38    1
