@<TRIPOS>MOLECULE
mol_data/opt/cam/geoms/mol2/4ia4ia-4ia4ia.out
 54 57 0 0 0
SMALL
GASTEIGER

@<TRIPOS>ATOM
      1 C          -0.2647    0.3006   -0.1840 C.ar    1  LIG1       -0.0499
      2 C           1.1266    0.2477   -0.1404 C.ar    1  LIG1       -0.0511
      3 C          -0.8793    1.5512   -0.2437 C.ar    1  LIG1       -0.0588
      4 C           1.9110    1.4041   -0.1563 C.ar    1  LIG1       -0.0174
      5 H           1.6198   -0.7184   -0.0781 H       1  LIG1        0.0626
      6 C          -0.1170    2.7116   -0.2660 C.ar    1  LIG1       -0.0609
      7 C           1.2694    2.6421   -0.2230 C.ar    1  LIG1       -0.0540
      8 H          -0.6066    3.6788   -0.3204 H       1  LIG1        0.0618
      9 H          -1.9635    1.6147   -0.2724 H       1  LIG1        0.0620
     10 C          -1.0860   -0.9623   -0.1861 C.3     1  LIG1       -0.0397
     11 H          -0.5236   -1.8049    0.2225 H       1  LIG1        0.0278
     12 H          -1.3903   -1.2325   -1.2030 H       1  LIG1        0.0278
     13 H          -1.9982   -0.8456    0.4047 H       1  LIG1        0.0278
     14 H           1.8590    3.5517   -0.2589 H       1  LIG1        0.0624
     15 C           4.1984    1.9545    0.8053 C.ar    1  LIG1       -0.0422
     16 C           5.5807    1.7860    0.7432 C.ar    1  LIG1       -0.0505
     17 C           3.3957    1.2937   -0.1410 C.ar    1  LIG1       -0.0149
     18 C           6.2023    0.9870   -0.2171 C.ar    1  LIG1       -0.0173
     19 H           6.1995    2.2797    1.4874 H       1  LIG1        0.0626
     20 C           4.0148    0.4863   -1.0991 C.ar    1  LIG1       -0.0532
     21 C           5.3911    0.3328   -1.1446 C.ar    1  LIG1       -0.0534
     22 H           3.3955   -0.0130   -1.8377 H       1  LIG1        0.0624
     23 C           3.6190    2.8116    1.9035 C.3     1  LIG1       -0.0391
     24 H           2.6717    2.4130    2.2715 H       1  LIG1        0.0278
     25 H           3.4258    3.8340    1.5632 H       1  LIG1        0.0278
     26 H           4.3146    2.8766    2.7431 H       1  LIG1        0.0278
     27 H           5.8394   -0.2797   -1.9194 H       1  LIG1        0.0624
     28 C           8.3613   -0.3538   -0.2243 C.ar    1  LIG1       -0.0422
     29 C           9.7548   -0.3550   -0.2508 C.ar    1  LIG1       -0.0505
     30 C           7.6862    0.8796   -0.2522 C.ar    1  LIG1       -0.0149
     31 C          10.5088    0.8171   -0.3068 C.ar    1  LIG1       -0.0173
     32 H          10.2711   -1.3103   -0.2357 H       1  LIG1        0.0626
     33 C           8.4390    2.0556   -0.2987 C.ar    1  LIG1       -0.0532
     34 C           9.8244    2.0324   -0.3317 C.ar    1  LIG1       -0.0534
     35 H           7.9177    3.0074   -0.3220 H       1  LIG1        0.0624
     36 C           7.6351   -1.6739   -0.1445 C.3     1  LIG1       -0.0391
     37 H           8.2850   -2.4413    0.2820 H       1  LIG1        0.0278
     38 H           7.3224   -2.0276   -1.1321 H       1  LIG1        0.0278
     39 H           6.7357   -1.6045    0.4702 H       1  LIG1        0.0278
     40 H          10.3833    2.9620   -0.3663 H       1  LIG1        0.0624
     41 C          12.7847    0.1428    0.5957 C.ar    1  LIG1       -0.0427
     42 C          14.1724    0.1738    0.4536 C.ar    1  LIG1       -0.0583
     43 C          11.9960    0.7879   -0.3738 C.ar    1  LIG1       -0.0150
     44 C          14.7854    0.8189   -0.6118 C.ar    1  LIG1       -0.0615
     45 H          14.7846   -0.3138    1.2071 H       1  LIG1        0.0620
     46 C          12.6240    1.4463   -1.4351 C.ar    1  LIG1       -0.0538
     47 C          14.0055    1.4638   -1.5622 C.ar    1  LIG1       -0.0612
     48 H          12.0065    1.9395   -2.1793 H       1  LIG1        0.0624
     49 H          15.8676    0.8237   -0.6930 H       1  LIG1        0.0618
     50 C          12.1869   -0.5524    1.7938 C.3     1  LIG1       -0.0391
     51 H          12.9139   -0.6018    2.6078 H       1  LIG1        0.0278
     52 H          11.8898   -1.5806    1.5629 H       1  LIG1        0.0278
     53 H          11.2967   -0.0369    2.1587 H       1  LIG1        0.0278
     54 H          14.4679    1.9765   -2.3994 H       1  LIG1        0.0618
@<TRIPOS>BOND
     1    54    47    1
     2    48    46    1
     3    27    21    1
     4    22    20    1
     5    47    46   ar
     6    47    44   ar
     7    46    43   ar
     8    12    10    1
     9    21    20   ar
    10    21    18   ar
    11    38    36    1
    12    20    17   ar
    13    49    44    1
    14    44    42   ar
    15    43    31    1
    16    43    41   ar
    17    40    34    1
    18    34    31   ar
    19    34    33   ar
    20    35    33    1
    21     8     6    1
    22    31    29   ar
    23    33    30   ar
    24     9     3    1
    25     6     3   ar
    26     6     7   ar
    27    14     7    1
    28    30    28   ar
    29    30    18    1
    30    29    32    1
    31    29    28   ar
    32     3     1   ar
    33    28    36    1
    34     7     4   ar
    35    18    16   ar
    36    10     1    1
    37    10    11    1
    38    10    13    1
    39     1     2   ar
    40     4    17    1
    41     4     2   ar
    42    36    37    1
    43    36    39    1
    44    17    15   ar
    45     2     5    1
    46    42    41   ar
    47    42    45    1
    48    41    50    1
    49    16    15   ar
    50    16    19    1
    51    15    23    1
    52    52    50    1
    53    25    23    1
    54    50    53    1
    55    50    51    1
    56    23    24    1
    57    23    26    1
