@<TRIPOS>MOLECULE
mol_data/opt/cam/geoms/mol2/4ia4ia-4ia-4ia.out
 54 57 0 0 0
SMALL
GASTEIGER

@<TRIPOS>ATOM
      1 C          -0.2086    0.3909    0.5221 C.ar    1  LIG1       -0.0499
      2 C           1.1816    0.4747    0.5632 C.ar    1  LIG1       -0.0511
      3 C          -0.8798    1.0157   -0.5285 C.ar    1  LIG1       -0.0588
      4 C           1.9093    1.1604   -0.4127 C.ar    1  LIG1       -0.0174
      5 H           1.7183    0.0064    1.3836 H       1  LIG1        0.0626
      6 C          -0.1737    1.6975   -1.5110 C.ar    1  LIG1       -0.0609
      7 C           1.2119    1.7713   -1.4566 C.ar    1  LIG1       -0.0540
      8 H          -0.7072    2.1735   -2.3278 H       1  LIG1        0.0618
      9 H          -1.9640    0.9673   -0.5757 H       1  LIG1        0.0620
     10 C          -0.9664   -0.3737    1.5759 C.3     1  LIG1       -0.0397
     11 H          -0.3978   -0.4416    2.5062 H       1  LIG1        0.0278
     12 H          -1.1772   -1.3965    1.2452 H       1  LIG1        0.0278
     13 H          -1.9261    0.0992    1.7990 H       1  LIG1        0.0278
     14 H           1.7584    2.2907   -2.2364 H       1  LIG1        0.0624
     15 C           4.1307    2.3929   -0.3409 C.ar    1  LIG1       -0.0422
     16 C           5.5206    2.3266   -0.2610 C.ar    1  LIG1       -0.0505
     17 C           3.3963    1.1937   -0.3421 C.ar    1  LIG1       -0.0149
     18 C           6.2146    1.1189   -0.1858 C.ar    1  LIG1       -0.0173
     19 H           6.0834    3.2551   -0.2677 H       1  LIG1        0.0626
     20 C           4.0877   -0.0171   -0.2575 C.ar    1  LIG1       -0.0532
     21 C           5.4712   -0.0617   -0.1867 C.ar    1  LIG1       -0.0534
     22 H           3.5203   -0.9424   -0.2598 H       1  LIG1        0.0624
     23 C           3.4691    3.7474   -0.4021 C.3     1  LIG1       -0.0391
     24 H           2.5276    3.7632    0.1502 H       1  LIG1        0.0278
     25 H           3.2418    4.0437   -1.4311 H       1  LIG1        0.0278
     26 H           4.1266    4.5127    0.0165 H       1  LIG1        0.0278
     27 H           5.9815   -1.0171   -0.1197 H       1  LIG1        0.0624
     28 C           8.4570    1.7544    0.8279 C.ar    1  LIG1       -0.0422
     29 C           9.8461    1.6426    0.7927 C.ar    1  LIG1       -0.0505
     30 C           7.7014    1.0717   -0.1412 C.ar    1  LIG1       -0.0149
     31 C          10.5186    0.8797   -0.1623 C.ar    1  LIG1       -0.0173
     32 H          10.4294    2.1527    1.5544 H       1  LIG1        0.0626
     33 C           8.3717    0.2999   -1.0942 C.ar    1  LIG1       -0.0532
     34 C           9.7537    0.2029   -1.1126 C.ar    1  LIG1       -0.0534
     35 H           7.7882   -0.2168   -1.8497 H       1  LIG1        0.0624
     36 C           7.8204    2.5750    1.9224 C.3     1  LIG1       -0.0391
     37 H           6.8787    2.1384    2.2602 H       1  LIG1        0.0278
     38 H           7.6006    3.5950    1.5910 H       1  LIG1        0.0278
     39 H           8.4919    2.6520    2.7805 H       1  LIG1        0.0278
     40 H          10.2428   -0.3834   -1.8832 H       1  LIG1        0.0624
     41 C          12.7237   -0.3785   -0.1248 C.ar    1  LIG1       -0.0427
     42 C          14.1180   -0.3267   -0.1288 C.ar    1  LIG1       -0.0583
     43 C          12.0067    0.8309   -0.1682 C.ar    1  LIG1       -0.0150
     44 C          14.8063    0.8778   -0.1756 C.ar    1  LIG1       -0.0615
     45 H          14.6743   -1.2588   -0.0835 H       1  LIG1        0.0620
     46 C          12.7099    2.0386   -0.2016 C.ar    1  LIG1       -0.0538
     47 C          14.0969    2.0708   -0.2088 C.ar    1  LIG1       -0.0612
     48 H          12.1477    2.9664   -0.2382 H       1  LIG1        0.0624
     49 H          15.8916    0.8828   -0.1784 H       1  LIG1        0.0618
     50 C          12.0424   -1.7222   -0.0457 C.3     1  LIG1       -0.0391
     51 H          12.7116   -2.4628    0.3981 H       1  LIG1        0.0278
     52 H          11.7589   -2.0948   -1.0354 H       1  LIG1        0.0278
     53 H          11.1308   -1.6804    0.5533 H       1  LIG1        0.0278
     54 H          14.6185    3.0217   -0.2421 H       1  LIG1        0.0618
@<TRIPOS>BOND
     1     8     6    1
     2    14     7    1
     3    40    34    1
     4    35    33    1
     5     6     7   ar
     6     6     3   ar
     7     7     4   ar
     8    25    23    1
     9    34    33   ar
    10    34    31   ar
    11    33    30   ar
    12    52    50    1
    13     9     3    1
    14     3     1   ar
    15     4    17    1
    16     4     2   ar
    17    23    15    1
    18    23    26    1
    19    23    24    1
    20    17    15   ar
    21    17    20   ar
    22    15    16   ar
    23    19    16    1
    24    16    18   ar
    25    22    20    1
    26    20    21   ar
    27    54    47    1
    28    48    46    1
    29    47    46   ar
    30    47    44   ar
    31    46    43   ar
    32    21    18   ar
    33    21    27    1
    34    18    30    1
    35    49    44    1
    36    44    42   ar
    37    43    31    1
    38    43    41   ar
    39    31    29   ar
    40    30    28   ar
    41    42    41   ar
    42    42    45    1
    43    41    50    1
    44    50    51    1
    45    50    53    1
    46     1     2   ar
    47     1    10    1
    48     2     5    1
    49    29    28   ar
    50    29    32    1
    51    28    36    1
    52    12    10    1
    53    10    13    1
    54    10    11    1
    55    38    36    1
    56    36    37    1
    57    36    39    1
