@<TRIPOS>MOLECULE
mol_data/opt/cam/geoms/mol2/4ia4ia-4ia4ia-.out
 54 57 0 0 0
SMALL
GASTEIGER

@<TRIPOS>ATOM
      1 C          -0.2319    0.1576    0.1276 C.ar    1  LIG1       -0.0499
      2 C           1.1591    0.1840    0.1914 C.ar    1  LIG1       -0.0511
      3 C          -0.8879    1.2213   -0.4922 C.ar    1  LIG1       -0.0588
      4 C           1.9035    1.2383   -0.3451 C.ar    1  LIG1       -0.0174
      5 H           1.6842   -0.6299    0.6835 H       1  LIG1        0.0626
      6 C          -0.1658    2.2750   -1.0360 C.ar    1  LIG1       -0.0609
      7 C           1.2213    2.2866   -0.9647 C.ar    1  LIG1       -0.0540
      8 H          -0.6873    3.0933   -1.5226 H       1  LIG1        0.0618
      9 H          -1.9729    1.2225   -0.5481 H       1  LIG1        0.0620
     10 C          -1.0108   -0.9988    0.6983 C.3     1  LIG1       -0.0397
     11 H          -0.4061   -1.5815    1.3967 H       1  LIG1        0.0278
     12 H          -1.3458   -1.6774   -0.0933 H       1  LIG1        0.0278
     13 H          -1.9030   -0.6551    1.2286 H       1  LIG1        0.0278
     14 H           1.7802    3.1039   -1.4075 H       1  LIG1        0.0624
     15 C           4.1517    2.2492    0.2722 C.ar    1  LIG1       -0.0422
     16 C           5.5401    2.1268    0.2911 C.ar    1  LIG1       -0.0505
     17 C           3.3906    1.2049   -0.2813 C.ar    1  LIG1       -0.0149
     18 C           6.2073    1.0103   -0.2142 C.ar    1  LIG1       -0.0173
     19 H           6.1272    2.9244    0.7379 H       1  LIG1        0.0626
     20 C           4.0553    0.0813   -0.7800 C.ar    1  LIG1       -0.0532
     21 C           5.4368   -0.0204   -0.7532 C.ar    1  LIG1       -0.0534
     22 H           3.4677   -0.7191   -1.2188 H       1  LIG1        0.0624
     23 C           3.5215    3.4807    0.8743 C.3     1  LIG1       -0.0391
     24 H           2.5795    3.2499    1.3751 H       1  LIG1        0.0278
     25 H           3.3033    4.2391    0.1155 H       1  LIG1        0.0278
     26 H           4.1960    3.9368    1.6024 H       1  LIG1        0.0278
     27 H           5.9211   -0.8944   -1.1751 H       1  LIG1        0.0624
     28 C           8.4150   -0.1087    0.3626 C.ar    1  LIG1       -0.0422
     29 C           9.8080   -0.0647    0.3316 C.ar    1  LIG1       -0.0505
     30 C           7.6944    0.9591   -0.2006 C.ar    1  LIG1       -0.0149
     31 C          10.5180    0.9957   -0.2323 C.ar    1  LIG1       -0.0173
     32 H          10.3654   -0.8795    0.7851 H       1  LIG1        0.0626
     33 C           8.4031    2.0266   -0.7589 C.ar    1  LIG1       -0.0532
     34 C           9.7882    2.0506   -0.7805 C.ar    1  LIG1       -0.0534
     35 H           7.8461    2.8443   -1.2052 H       1  LIG1        0.0624
     36 C           7.7391   -1.2823    1.0276 C.3     1  LIG1       -0.0391
     37 H           8.4134   -1.7533    1.7463 H       1  LIG1        0.0278
     38 H           7.4506   -2.0506    0.3030 H       1  LIG1        0.0278
     39 H           6.8310   -0.9817    1.5535 H       1  LIG1        0.0278
     40 H          10.3058    2.8821   -1.2464 H       1  LIG1        0.0624
     41 C          12.7968    2.0037    0.2560 C.ar    1  LIG1       -0.0427
     42 C          14.1851    1.8860    0.1827 C.ar    1  LIG1       -0.0583
     43 C          12.0062    0.9647   -0.2676 C.ar    1  LIG1       -0.0150
     44 C          14.7974    0.7799   -0.3905 C.ar    1  LIG1       -0.0615
     45 H          14.7981    2.6816    0.5970 H       1  LIG1        0.0620
     46 C          12.6334   -0.1506   -0.8306 C.ar    1  LIG1       -0.0538
     47 C          14.0156   -0.2487   -0.8985 C.ar    1  LIG1       -0.0612
     48 H          12.0147   -0.9454   -1.2353 H       1  LIG1        0.0624
     49 H          15.8803    0.7202   -0.4323 H       1  LIG1        0.0618
     50 C          12.2003    3.2220    0.9164 C.3     1  LIG1       -0.0391
     51 H          11.2960    2.9779    1.4769 H       1  LIG1        0.0278
     52 H          11.9267    3.9896    0.1852 H       1  LIG1        0.0278
     53 H          12.9196    3.6731    1.6038 H       1  LIG1        0.0278
     54 H          14.4772   -1.1224   -1.3471 H       1  LIG1        0.0618
@<TRIPOS>BOND
     1     8     6    1
     2    14     7    1
     3    54    47    1
     4    40    34    1
     5    48    46    1
     6    22    20    1
     7    35    33    1
     8    27    21    1
     9     6     7   ar
    10     6     3   ar
    11     7     4   ar
    12    47    46   ar
    13    47    44   ar
    14    46    43   ar
    15    34    33   ar
    16    34    31   ar
    17    20    21   ar
    18    20    17   ar
    19    33    30   ar
    20    21    18   ar
    21     9     3    1
    22     3     1   ar
    23    49    44    1
    24    44    42   ar
    25     4    17    1
    26     4     2   ar
    27    17    15   ar
    28    43    31    1
    29    43    41   ar
    30    31    29   ar
    31    18    30    1
    32    18    16   ar
    33    30    28   ar
    34    12    10    1
    35    25    23    1
    36     1     2   ar
    37     1    10    1
    38    42    41   ar
    39    42    45    1
    40    52    50    1
    41     2     5    1
    42    41    50    1
    43    15    16   ar
    44    15    23    1
    45    16    19    1
    46    38    36    1
    47    29    28   ar
    48    29    32    1
    49    28    36    1
    50    10    13    1
    51    10    11    1
    52    23    24    1
    53    23    26    1
    54    50    51    1
    55    50    53    1
    56    36    39    1
    57    36    37    1
