@<TRIPOS>MOLECULE
mol_data/opt/cam/geoms/mol2/4ia4ia.out
 28 29 0 0 0
SMALL
GASTEIGER

@<TRIPOS>ATOM
      1 C          -0.0610    0.1752   -0.3329 C.ar    1  LIG1       -0.0499
      2 C           1.3262    0.1467   -0.4487 C.ar    1  LIG1       -0.0511
      3 C          -0.6501    1.2439    0.3442 C.ar    1  LIG1       -0.0588
      4 C           2.1317    1.1550    0.0869 C.ar    1  LIG1       -0.0174
      5 H           1.7939   -0.6732   -0.9859 H       1  LIG1        0.0626
      6 C           0.1327    2.2570    0.8797 C.ar    1  LIG1       -0.0609
      7 C           1.5158    2.2168    0.7509 C.ar    1  LIG1       -0.0540
      8 H          -0.3363    3.0820    1.4067 H       1  LIG1        0.0618
      9 H          -1.7307    1.2801    0.4508 H       1  LIG1        0.0620
     10 C          -0.9107   -0.9071   -0.9464 C.3     1  LIG1       -0.0397
     11 H          -0.3187   -1.7945   -1.1812 H       1  LIG1        0.0278
     12 H          -1.3748   -0.5649   -1.8775 H       1  LIG1        0.0278
     13 H          -1.7187   -1.2078   -0.2740 H       1  LIG1        0.0278
     14 H           2.1279    3.0039    1.1794 H       1  LIG1        0.0624
     15 C           4.4031    0.0561    0.3702 C.ar    1  LIG1       -0.0427
     16 C           5.7841    0.1229    0.1826 C.ar    1  LIG1       -0.0583
     17 C           3.6127    1.1313   -0.0737 C.ar    1  LIG1       -0.0150
     18 C           6.3884    1.2140   -0.4267 C.ar    1  LIG1       -0.0615
     19 H           6.3986   -0.7009    0.5349 H       1  LIG1        0.0620
     20 C           4.2325    2.2312   -0.6733 C.ar    1  LIG1       -0.0538
     21 C           5.6072    2.2787   -0.8551 C.ar    1  LIG1       -0.0612
     22 H           3.6130    3.0549   -1.0139 H       1  LIG1        0.0624
     23 H           7.4655    1.2343   -0.5581 H       1  LIG1        0.0618
     24 C           3.8152   -1.1474    1.0645 C.3     1  LIG1       -0.0391
     25 H           4.5713   -1.6387    1.6811 H       1  LIG1        0.0278
     26 H           3.4466   -1.8908    0.3503 H       1  LIG1        0.0278
     27 H           2.9740   -0.8748    1.7045 H       1  LIG1        0.0278
     28 H           6.0633    3.1415   -1.3296 H       1  LIG1        0.0618
@<TRIPOS>BOND
     1    12    10    1
     2    28    21    1
     3    11    10    1
     4    22    20    1
     5     5     2    1
     6    10     1    1
     7    10    13    1
     8    21    20   ar
     9    21    18   ar
    10    20    17   ar
    11    23    18    1
    12     2     1   ar
    13     2     4   ar
    14    18    16   ar
    15     1     3   ar
    16    17     4    1
    17    17    15   ar
    18     4     7   ar
    19    16    15   ar
    20    16    19    1
    21     3     9    1
    22     3     6   ar
    23    26    24    1
    24    15    24    1
    25     7     6   ar
    26     7    14    1
    27     6     8    1
    28    24    25    1
    29    24    27    1
