@<TRIPOS>MOLECULE
mol_data/opt/cam/geoms/mol2/4ia4ia4ia-4ia-.out
 54 57 0 0 0
SMALL
GASTEIGER

@<TRIPOS>ATOM
      1 C          -0.2081   -0.1524   -0.2289 C.ar    1  LIG1       -0.0499
      2 C           1.1833   -0.1178   -0.1813 C.ar    1  LIG1       -0.0511
      3 C          -0.9039    1.0569   -0.2160 C.ar    1  LIG1       -0.0588
      4 C           1.8897    1.0862   -0.1284 C.ar    1  LIG1       -0.0174
      5 H           1.7353   -1.0528   -0.2046 H       1  LIG1        0.0626
      6 C          -0.2200    2.2639   -0.1675 C.ar    1  LIG1       -0.0609
      7 C           1.1685    2.2817   -0.1268 C.ar    1  LIG1       -0.0540
      8 H          -0.7723    3.1983   -0.1548 H       1  LIG1        0.0618
      9 H          -1.9899    1.0501   -0.2444 H       1  LIG1        0.0620
     10 C          -0.9447   -1.4631   -0.3234 C.3     1  LIG1       -0.0397
     11 H          -0.3346   -2.2918    0.0430 H       1  LIG1        0.0278
     12 H          -1.2162   -1.6890   -1.3602 H       1  LIG1        0.0278
     13 H          -1.8709   -1.4420    0.2567 H       1  LIG1        0.0278
     14 H           1.7017    3.2256   -0.0766 H       1  LIG1        0.0624
     15 C           4.1420    0.4305    0.8494 C.ar    1  LIG1       -0.0422
     16 C           5.5318    0.5164    0.7835 C.ar    1  LIG1       -0.0505
     17 C           3.3784    1.1117   -0.1143 C.ar    1  LIG1       -0.0149
     18 C           6.1974    1.2523   -0.1975 C.ar    1  LIG1       -0.0173
     19 H           6.1218    0.0072    1.5405 H       1  LIG1        0.0626
     20 C           4.0417    1.8572   -1.0925 C.ar    1  LIG1       -0.0532
     21 C           5.4246    1.9290   -1.1415 C.ar    1  LIG1       -0.0534
     22 H           3.4514    2.3729   -1.8434 H       1  LIG1        0.0624
     23 C           3.5137   -0.3619    1.9692 C.3     1  LIG1       -0.0391
     24 H           4.2044   -0.4453    2.8113 H       1  LIG1        0.0278
     25 H           3.2606   -1.3798    1.6557 H       1  LIG1        0.0278
     26 H           2.5916    0.1016    2.3251 H       1  LIG1        0.0278
     27 H           5.9071    2.4943   -1.9315 H       1  LIG1        0.0624
     28 C           8.4321    2.4623   -0.2390 C.ar    1  LIG1       -0.0422
     29 C           9.8231    2.3803   -0.2685 C.ar    1  LIG1       -0.0505
     30 C           7.6850    1.2709   -0.2366 C.ar    1  LIG1       -0.0149
     31 C          10.5061    1.1647   -0.2987 C.ar    1  LIG1       -0.0173
     32 H          10.3951    3.3034   -0.2781 H       1  LIG1        0.0626
     33 C           8.3667    0.0515   -0.2566 C.ar    1  LIG1       -0.0532
     34 C           9.7508   -0.0082   -0.2931 C.ar    1  LIG1       -0.0534
     35 H           7.7899   -0.8681   -0.2564 H       1  LIG1        0.0624
     36 C           7.7853    3.8246   -0.1896 C.3     1  LIG1       -0.0391
     37 H           6.8819    3.8217    0.4230 H       1  LIG1        0.0278
     38 H           7.4967    4.1749   -1.1858 H       1  LIG1        0.0278
     39 H           8.4785    4.5612    0.2230 H       1  LIG1        0.0278
     40 H          10.2536   -0.9699   -0.3068 H       1  LIG1        0.0624
     41 C          12.8241    1.7277    0.5743 C.ar    1  LIG1       -0.0427
     42 C          14.2066    1.6095    0.4265 C.ar    1  LIG1       -0.0583
     43 C          11.9921    1.1032   -0.3722 C.ar    1  LIG1       -0.0150
     44 C          14.7732    0.8983   -0.6223 C.ar    1  LIG1       -0.0615
     45 H          14.8517    2.0811    1.1626 H       1  LIG1        0.0620
     46 C          12.5730    0.3777   -1.4165 C.ar    1  LIG1       -0.0538
     47 C          13.9500    0.2740   -1.5497 C.ar    1  LIG1       -0.0612
     48 H          11.9222   -0.0992   -2.1428 H       1  LIG1        0.0624
     49 H          15.8527    0.8265   -0.7085 H       1  LIG1        0.0618
     50 C          12.2778    2.4930    1.7540 C.3     1  LIG1       -0.0391
     51 H          11.3573    2.0474    2.1356 H       1  LIG1        0.0278
     52 H          12.0481    3.5318    1.4955 H       1  LIG1        0.0278
     53 H          13.0098    2.5169    2.5646 H       1  LIG1        0.0278
     54 H          14.3756   -0.2895   -2.3737 H       1  LIG1        0.0618
@<TRIPOS>BOND
     1    54    47    1
     2    48    46    1
     3    27    21    1
     4    22    20    1
     5    47    46   ar
     6    47    44   ar
     7    46    43   ar
     8    12    10    1
     9    38    36    1
    10    21    20   ar
    11    21    18   ar
    12    20    17   ar
    13    49    44    1
    14    44    42   ar
    15    43    31    1
    16    43    41   ar
    17    10     1    1
    18    10    11    1
    19    10    13    1
    20    40    34    1
    21    31    34   ar
    22    31    29   ar
    23    34    33   ar
    24    32    29    1
    25    29    28   ar
    26    33    35    1
    27    33    30   ar
    28     9     3    1
    29    28    30   ar
    30    28    36    1
    31    30    18    1
    32     1     3   ar
    33     1     2   ar
    34     3     6   ar
    35     5     2    1
    36    18    16   ar
    37    36    39    1
    38    36    37    1
    39     2     4   ar
    40     6     8    1
    41     6     7   ar
    42     4     7   ar
    43     4    17    1
    44     7    14    1
    45    17    15   ar
    46    42    41   ar
    47    42    45    1
    48    41    50    1
    49    16    15   ar
    50    16    19    1
    51    15    23    1
    52    52    50    1
    53    25    23    1
    54    50    51    1
    55    50    53    1
    56    23    26    1
    57    23    24    1
