@<TRIPOS>MOLECULE
mol_data/opt/cam/geoms/mol2/4ia4ia4ia-4ia.out
 54 57 0 0 0
SMALL
GASTEIGER

@<TRIPOS>ATOM
      1 C          -0.2546    0.1737   -0.5580 C.ar    1  LIG1       -0.0499
      2 C           1.1372    0.1312   -0.5295 C.ar    1  LIG1       -0.0511
      3 C          -0.8978    1.2776    0.0024 C.ar    1  LIG1       -0.0588
      4 C           1.8948    1.1602    0.0351 C.ar    1  LIG1       -0.0174
      5 H           1.6483   -0.7169   -0.9753 H       1  LIG1        0.0626
      6 C          -0.1625    2.3121    0.5647 C.ar    1  LIG1       -0.0609
      7 C           1.2255    2.2579    0.5799 C.ar    1  LIG1       -0.0540
      8 H          -0.6740    3.1645    1.0006 H       1  LIG1        0.0618
      9 H          -1.9831    1.3247   -0.0033 H       1  LIG1        0.0620
     10 C          -1.0463   -0.9315   -1.2072 C.3     1  LIG1       -0.0397
     11 H          -0.4787   -1.8644   -1.2387 H       1  LIG1        0.0278
     12 H          -1.3108   -0.6738   -2.2383 H       1  LIG1        0.0278
     13 H          -1.9797   -1.1209   -0.6708 H       1  LIG1        0.0278
     14 H           1.7991    3.0614    1.0305 H       1  LIG1        0.0624
     15 C           4.1193    0.0549    0.5733 C.ar    1  LIG1       -0.0422
     16 C           5.5113    0.1098    0.5235 C.ar    1  LIG1       -0.0505
     17 C           3.3832    1.1211    0.0279 C.ar    1  LIG1       -0.0149
     18 C           6.2055    1.1800   -0.0421 C.ar    1  LIG1       -0.0173
     19 H           6.0810   -0.7040    0.9636 H       1  LIG1        0.0626
     20 C           4.0754    2.1985   -0.5313 C.ar    1  LIG1       -0.0532
     21 C           5.4599    2.2335   -0.5717 C.ar    1  LIG1       -0.0534
     22 H           3.5058    3.0157   -0.9627 H       1  LIG1        0.0624
     23 C           3.4604   -1.1279    1.2391 C.3     1  LIG1       -0.0391
     24 H           4.1483   -1.6010    1.9434 H       1  LIG1        0.0278
     25 H           3.1642   -1.8916    0.5128 H       1  LIG1        0.0278
     26 H           2.5592   -0.8361    1.7816 H       1  LIG1        0.0278
     27 H           5.9644    3.0726   -1.0383 H       1  LIG1        0.0624
     28 C           8.4875    2.2045    0.4049 C.ar    1  LIG1       -0.0422
     29 C           9.8740    2.0933    0.3120 C.ar    1  LIG1       -0.0505
     30 C           7.6923    1.1599   -0.0981 C.ar    1  LIG1       -0.0149
     31 C          10.5069    0.9879   -0.2573 C.ar    1  LIG1       -0.0173
     32 H          10.4890    2.8906    0.7200 H       1  LIG1        0.0626
     33 C           8.3238    0.0477   -0.6617 C.ar    1  LIG1       -0.0532
     34 C           9.7038   -0.0428   -0.7458 C.ar    1  LIG1       -0.0534
     35 H           7.7093   -0.7525   -1.0622 H       1  LIG1        0.0624
     36 C           7.8991    3.4245    1.0694 C.3     1  LIG1       -0.0391
     37 H           7.0025    3.1811    1.6426 H       1  LIG1        0.0278
     38 H           7.6150    4.1890    0.3390 H       1  LIG1        0.0278
     39 H           8.6270    3.8785    1.7454 H       1  LIG1        0.0278
     40 H          10.1598   -0.9083   -1.2144 H       1  LIG1        0.0624
     41 C          12.7566   -0.1174    0.1498 C.ar    1  LIG1       -0.0427
     42 C          14.1440   -0.0669    0.0114 C.ar    1  LIG1       -0.0583
     43 C          11.9916    0.9471   -0.3606 C.ar    1  LIG1       -0.0150
     44 C          14.7798    0.9975   -0.6130 C.ar    1  LIG1       -0.0615
     45 H          14.7381   -0.8819    0.4152 H       1  LIG1        0.0620
     46 C          12.6432    2.0201   -0.9758 C.ar    1  LIG1       -0.0538
     47 C          14.0239    2.0516   -1.1079 C.ar    1  LIG1       -0.0612
     48 H          12.0440    2.8351   -1.3695 H       1  LIG1        0.0624
     49 H          15.8612    1.0052   -0.7049 H       1  LIG1        0.0618
     50 C          12.1354   -1.2928    0.8632 C.3     1  LIG1       -0.0391
     51 H          12.8635   -1.7626    1.5284 H       1  LIG1        0.0278
     52 H          11.7946   -2.0617    0.1623 H       1  LIG1        0.0278
     53 H          11.2693   -0.9952    1.4572 H       1  LIG1        0.0278
     54 H          14.5043    2.8933   -1.5960 H       1  LIG1        0.0618
@<TRIPOS>BOND
     1    12    10    1
     2    54    47    1
     3    48    46    1
     4    11    10    1
     5    40    34    1
     6    10    13    1
     7    10     1    1
     8    47    46   ar
     9    47    44   ar
    10    35    33    1
    11    27    21    1
    12    46    43   ar
    13     5     2    1
    14    22    20    1
    15    34    33   ar
    16    34    31   ar
    17    49    44    1
    18    33    30   ar
    19    44    42   ar
    20    21    20   ar
    21    21    18   ar
    22     1     2   ar
    23     1     3   ar
    24    20    17   ar
    25     2     4   ar
    26    43    31    1
    27    43    41   ar
    28    31    29   ar
    29    30    18    1
    30    30    28   ar
    31    18    16   ar
    32     9     3    1
    33     3     6   ar
    34    42    41   ar
    35    42    45    1
    36    17     4    1
    37    17    15   ar
    38     4     7   ar
    39    41    50    1
    40    52    50    1
    41    29    28   ar
    42    29    32    1
    43    38    36    1
    44    28    36    1
    45    25    23    1
    46    16    15   ar
    47    16    19    1
    48     6     7   ar
    49     6     8    1
    50    15    23    1
    51     7    14    1
    52    50    53    1
    53    50    51    1
    54    36    37    1
    55    36    39    1
    56    23    26    1
    57    23    24    1
