@<TRIPOS>MOLECULE
mol_data/opt/cam/geoms/mol2/4ia4ia-4ia.out
 41 43 0 0 0
SMALL
GASTEIGER

@<TRIPOS>ATOM
      1 C          -0.1193    0.1675    0.0598 C.ar    1  LIG1       -0.0499
      2 C           1.2734    0.1805    0.1109 C.ar    1  LIG1       -0.0511
      3 C          -0.7769    1.3119   -0.3890 C.ar    1  LIG1       -0.0588
      4 C           2.0160    1.2990   -0.2740 C.ar    1  LIG1       -0.0174
      5 H           1.8002   -0.6982    0.4731 H       1  LIG1        0.0626
      6 C          -0.0556    2.4325   -0.7813 C.ar    1  LIG1       -0.0609
      7 C           1.3314    2.4295   -0.7256 C.ar    1  LIG1       -0.0540
      8 H          -0.5790    3.3150   -1.1358 H       1  LIG1        0.0618
      9 H          -1.8623    1.3246   -0.4305 H       1  LIG1        0.0620
     10 C          -0.8922   -1.0622    0.4595 C.3     1  LIG1       -0.0397
     11 H          -0.3558   -1.6435    1.2131 H       1  LIG1        0.0278
     12 H          -1.0599   -1.7189   -0.4011 H       1  LIG1        0.0278
     13 H          -1.8726   -0.8023    0.8662 H       1  LIG1        0.0278
     14 H           1.8893    3.3015   -1.0495 H       1  LIG1        0.0624
     15 C           4.2744    2.1981    0.4664 C.ar    1  LIG1       -0.0422
     16 C           5.6626    2.0705    0.4523 C.ar    1  LIG1       -0.0505
     17 C           3.5038    1.2528   -0.2324 C.ar    1  LIG1       -0.0149
     18 C           6.3197    1.0428   -0.2250 C.ar    1  LIG1       -0.0173
     19 H           6.2577    2.7887    1.0094 H       1  LIG1        0.0626
     20 C           4.1586    0.2172   -0.9045 C.ar    1  LIG1       -0.0532
     21 C           5.5400    0.1091   -0.9078 C.ar    1  LIG1       -0.0534
     22 H           3.5633   -0.5048   -1.4545 H       1  LIG1        0.0624
     23 C           3.6543    3.3252    1.2545 C.3     1  LIG1       -0.0391
     24 H           2.7168    3.0228    1.7248 H       1  LIG1        0.0278
     25 H           3.4308    4.1897    0.6210 H       1  LIG1        0.0278
     26 H           4.3375    3.6655    2.0359 H       1  LIG1        0.0278
     27 H           6.0165   -0.6915   -1.4634 H       1  LIG1        0.0624
     28 C           8.5233   -0.1544    0.1744 C.ar    1  LIG1       -0.0427
     29 C           9.9175   -0.1142    0.1367 C.ar    1  LIG1       -0.0583
     30 C           7.8075    0.9854   -0.2343 C.ar    1  LIG1       -0.0150
     31 C          10.6068    1.0118   -0.2918 C.ar    1  LIG1       -0.0615
     32 H          10.4730   -0.9891    0.4631 H       1  LIG1        0.0620
     33 C           8.5120    2.1186   -0.6515 C.ar    1  LIG1       -0.0538
     34 C           9.8987    2.1391   -0.6861 C.ar    1  LIG1       -0.0612
     35 H           7.9505    2.9919   -0.9680 H       1  LIG1        0.0624
     36 H          11.6919    1.0095   -0.3097 H       1  LIG1        0.0618
     37 C           7.8412   -1.4030    0.6762 C.3     1  LIG1       -0.0391
     38 H           8.5150   -1.9719    1.3209 H       1  LIG1        0.0278
     39 H           7.5449   -2.0638   -0.1449 H       1  LIG1        0.0278
     40 H           6.9373   -1.1719    1.2428 H       1  LIG1        0.0278
     41 H          10.4211    3.0294   -1.0208 H       1  LIG1        0.0618
@<TRIPOS>BOND
     1    27    21    1
     2    22    20    1
     3     8     6    1
     4    14     7    1
     5    41    34    1
     6    35    33    1
     7    21    20   ar
     8    21    18   ar
     9    20    17   ar
    10     6     7   ar
    11     6     3   ar
    12     7     4   ar
    13    34    33   ar
    14    34    31   ar
    15    33    30   ar
    16     9     3    1
    17    12    10    1
    18     3     1   ar
    19    36    31    1
    20    31    29   ar
    21     4    17    1
    22     4     2   ar
    23    30    18    1
    24    30    28   ar
    25    17    15   ar
    26    18    16   ar
    27    39    37    1
    28     1     2   ar
    29     1    10    1
    30     2     5    1
    31    29    28   ar
    32    29    32    1
    33    28    37    1
    34    16    15   ar
    35    16    19    1
    36    10    13    1
    37    10    11    1
    38    15    23    1
    39    25    23    1
    40    37    40    1
    41    37    38    1
    42    23    24    1
    43    23    26    1
