@<TRIPOS>MOLECULE
mol_data/opt/cam/geoms/mol2/4ia4ia4ia4ia-.out
 54 57 0 0 0
SMALL
GASTEIGER

@<TRIPOS>ATOM
      1 C          -0.2705    0.4909   -0.7189 C.ar    1  LIG1       -0.0499
      2 C           1.1194    0.4143   -0.7407 C.ar    1  LIG1       -0.0511
      3 C          -0.8838    1.1499    0.3478 C.ar    1  LIG1       -0.0588
      4 C           1.9051    0.9801    0.2670 C.ar    1  LIG1       -0.0174
      5 H           1.6070   -0.0830   -1.5739 H       1  LIG1        0.0626
      6 C          -0.1207    1.7218    1.3558 C.ar    1  LIG1       -0.0609
      7 C           1.2660    1.6412    1.3170 C.ar    1  LIG1       -0.0540
      8 H          -0.6086    2.2295    2.1819 H       1  LIG1        0.0618
      9 H          -1.9676    1.2141    0.3856 H       1  LIG1        0.0620
     10 C          -1.0958   -0.1003   -1.8321 C.3     1  LIG1       -0.0397
     11 H          -0.5081   -0.7897   -2.4422 H       1  LIG1        0.0278
     12 H          -1.4815    0.6809   -2.4956 H       1  LIG1        0.0278
     13 H          -1.9583   -0.6466   -1.4407 H       1  LIG1        0.0278
     14 H           1.8612    2.0788    2.1121 H       1  LIG1        0.0624
     15 C           4.1040   -0.2863    0.1210 C.ar    1  LIG1       -0.0422
     16 C           5.4966   -0.2424    0.0884 C.ar    1  LIG1       -0.0505
     17 C           3.3922    0.9227    0.2157 C.ar    1  LIG1       -0.0149
     18 C           6.2148    0.9521    0.1434 C.ar    1  LIG1       -0.0173
     19 H           6.0412   -1.1782    0.0068 H       1  LIG1        0.0626
     20 C           4.1085    2.1202    0.2812 C.ar    1  LIG1       -0.0532
     21 C           5.4937    2.1427    0.2405 C.ar    1  LIG1       -0.0534
     22 H           3.5584    3.0530    0.3543 H       1  LIG1        0.0624
     23 C           3.4172   -1.6288    0.0746 C.3     1  LIG1       -0.0391
     24 H           4.0929   -2.4153    0.4183 H       1  LIG1        0.0278
     25 H           3.1046   -1.8918   -0.9410 H       1  LIG1        0.0278
     26 H           2.5222   -1.6472    0.6994 H       1  LIG1        0.0278
     27 H           6.0238    3.0881    0.2959 H       1  LIG1        0.0624
     28 C           8.5228    0.2374    0.9341 C.ar    1  LIG1       -0.0422
     29 C           9.9058    0.3277    0.7836 C.ar    1  LIG1       -0.0505
     30 C           7.7007    0.9758    0.0649 C.ar    1  LIG1       -0.0149
     31 C          10.5096    1.1226   -0.1908 C.ar    1  LIG1       -0.0173
     32 H          10.5416   -0.2272    1.4681 H       1  LIG1        0.0626
     33 C           8.3031    1.7808   -0.9061 C.ar    1  LIG1       -0.0532
     34 C           9.6801    1.8561   -1.0394 C.ar    1  LIG1       -0.0534
     35 H           7.6678    2.3415   -1.5845 H       1  LIG1        0.0624
     36 C           7.9680   -0.6220    2.0433 C.3     1  LIG1       -0.0391
     37 H           8.7068   -0.7400    2.8391 H       1  LIG1        0.0278
     38 H           7.7097   -1.6259    1.6907 H       1  LIG1        0.0278
     39 H           7.0626   -0.1918    2.4753 H       1  LIG1        0.0278
     40 H          10.1130    2.4696   -1.8221 H       1  LIG1        0.0624
     41 C          12.7376    2.3369   -0.2919 C.ar    1  LIG1       -0.0427
     42 C          14.1247    2.2591   -0.4205 C.ar    1  LIG1       -0.0583
     43 C          11.9923    1.1444   -0.3249 C.ar    1  LIG1       -0.0150
     44 C          14.7788    1.0451   -0.5799 C.ar    1  LIG1       -0.0615
     45 H          14.7040    3.1775   -0.3836 H       1  LIG1        0.0620
     46 C          12.6624   -0.0736   -0.4726 C.ar    1  LIG1       -0.0538
     47 C          14.0424   -0.1315   -0.6029 C.ar    1  LIG1       -0.0612
     48 H          12.0780   -0.9879   -0.5004 H       1  LIG1        0.0624
     49 H          15.8594    1.0199   -0.6780 H       1  LIG1        0.0618
     50 C          12.0959    3.6881   -0.0951 C.3     1  LIG1       -0.0391
     51 H          11.2436    3.6371    0.5851 H       1  LIG1        0.0278
     52 H          11.7291    4.1067   -1.0378 H       1  LIG1        0.0278
     53 H          12.8194    4.3975    0.3131 H       1  LIG1        0.0278
     54 H          14.5374   -1.0896   -0.7234 H       1  LIG1        0.0618
@<TRIPOS>BOND
     1    12    10    1
     2    11    10    1
     3    10    13    1
     4    10     1    1
     5    40    34    1
     6    35    33    1
     7     5     2    1
     8    34    33   ar
     9    34    31   ar
    10    52    50    1
    11    25    23    1
    12    33    30   ar
    13     2     1   ar
    14     2     4   ar
    15    54    47    1
    16     1     3   ar
    17    49    44    1
    18    47    44   ar
    19    47    46   ar
    20    44    42   ar
    21    48    46    1
    22    46    43   ar
    23    42    45    1
    24    42    41   ar
    25    43    41   ar
    26    43    31    1
    27    41    50    1
    28    31    29   ar
    29    50    53    1
    30    50    51    1
    31    19    16    1
    32    30    18    1
    33    30    28   ar
    34    23    15    1
    35    23    24    1
    36    23    26    1
    37    16    15   ar
    38    16    18   ar
    39    15    17   ar
    40    18    21   ar
    41    17     4    1
    42    17    20   ar
    43    21    20   ar
    44    21    27    1
    45     4     7   ar
    46    20    22    1
    47     3     9    1
    48     3     6   ar
    49    29    28   ar
    50    29    32    1
    51    28    36    1
    52     7     6   ar
    53     7    14    1
    54     6     8    1
    55    38    36    1
    56    36    39    1
    57    36    37    1
