@<TRIPOS>MOLECULE
mol_data/opt/cam/geoms/mol2/4ia4ia-.out
 28 29 0 0 0
SMALL
GASTEIGER

@<TRIPOS>ATOM
      1 C           0.0117    0.1563    0.2147 C.ar    1  LIG1       -0.0499
      2 C           1.4039    0.1956    0.2662 C.ar    1  LIG1       -0.0511
      3 C          -0.6580    1.2012   -0.4203 C.ar    1  LIG1       -0.0588
      4 C           2.1341    1.2436   -0.2984 C.ar    1  LIG1       -0.0174
      5 H           1.9402   -0.6035    0.7708 H       1  LIG1        0.0626
      6 C           0.0511    2.2497   -0.9929 C.ar    1  LIG1       -0.0609
      7 C           1.4379    2.2737   -0.9343 C.ar    1  LIG1       -0.0540
      8 H          -0.4817    3.0537   -1.4910 H       1  LIG1        0.0618
      9 H          -1.7433    1.1927   -0.4659 H       1  LIG1        0.0620
     10 C          -0.7477   -0.9999    0.8113 C.3     1  LIG1       -0.0397
     11 H          -0.2068   -1.4419    1.6514 H       1  LIG1        0.0278
     12 H          -0.9043   -1.7918    0.0709 H       1  LIG1        0.0278
     13 H          -1.7326   -0.6888    1.1680 H       1  LIG1        0.0278
     14 H           1.9867    3.0866   -1.3977 H       1  LIG1        0.0624
     15 C           4.3716    2.2800    0.3063 C.ar    1  LIG1       -0.0427
     16 C           5.7628    2.1744    0.3178 C.ar    1  LIG1       -0.0583
     17 C           3.6229    1.2252   -0.2459 C.ar    1  LIG1       -0.0150
     18 C           6.4173    1.0647   -0.1992 C.ar    1  LIG1       -0.0615
     19 H           6.3435    2.9823    0.7541 H       1  LIG1        0.0620
     20 C           4.2914    0.1066   -0.7514 C.ar    1  LIG1       -0.0538
     21 C           5.6760    0.0205   -0.7353 C.ar    1  LIG1       -0.0612
     22 H           3.7042   -0.7008   -1.1777 H       1  LIG1        0.0624
     23 H           7.5012    1.0145   -0.1756 H       1  LIG1        0.0618
     24 C           3.7244    3.5027    0.9083 C.3     1  LIG1       -0.0391
     25 H           2.7925    3.2572    1.4209 H       1  LIG1        0.0278
     26 H           3.4837    4.2528    0.1482 H       1  LIG1        0.0278
     27 H           4.3978    3.9756    1.6268 H       1  LIG1        0.0278
     28 H           6.1711   -0.8561   -1.1405 H       1  LIG1        0.0618
@<TRIPOS>BOND
     1     8     6    1
     2    14     7    1
     3    22    20    1
     4    28    21    1
     5     6     7   ar
     6     6     3   ar
     7     7     4   ar
     8    20    21   ar
     9    20    17   ar
    10    21    18   ar
    11     9     3    1
    12     3     1   ar
    13     4    17    1
    14     4     2   ar
    15    17    15   ar
    16    18    23    1
    17    18    16   ar
    18    12    10    1
    19    26    24    1
    20     1     2   ar
    21     1    10    1
    22     2     5    1
    23    15    16   ar
    24    15    24    1
    25    16    19    1
    26    10    13    1
    27    10    11    1
    28    24    25    1
    29    24    27    1
