@<TRIPOS>MOLECULE
mol_data/opt/cam/geoms/mol2/4ia4ia-4ia-4ia-.out
 54 57 0 0 0
SMALL
GASTEIGER

@<TRIPOS>ATOM
      1 C          -0.1458    0.5385    0.9298 C.ar    1  LIG1       -0.0499
      2 C           1.2380    0.6909    0.8821 C.ar    1  LIG1       -0.0511
      3 C          -0.8670    0.6502   -0.2587 C.ar    1  LIG1       -0.0588
      4 C           1.9120    0.9485   -0.3146 C.ar    1  LIG1       -0.0174
      5 H           1.8122    0.6216    1.8018 H       1  LIG1        0.0626
      6 C          -0.2148    0.9004   -1.4588 C.ar    1  LIG1       -0.0609
      7 C           1.1657    1.0490   -1.4901 C.ar    1  LIG1       -0.0540
      8 H          -0.7861    0.9776   -2.3785 H       1  LIG1        0.0618
      9 H          -1.9477    0.5403   -0.2422 H       1  LIG1        0.0620
     10 C          -0.8453    0.2403    2.2303 C.3     1  LIG1       -0.0397
     11 H          -0.2361    0.5347    3.0879 H       1  LIG1        0.0278
     12 H          -1.0549   -0.8303    2.3283 H       1  LIG1        0.0278
     13 H          -1.8019    0.7649    2.2982 H       1  LIG1        0.0278
     14 H           1.6706    1.2267   -2.4335 H       1  LIG1        0.0624
     15 C           4.0659    2.1903   -0.8434 C.ar    1  LIG1       -0.0422
     16 C           5.4585    2.2200   -0.7967 C.ar    1  LIG1       -0.0505
     17 C           3.3960    1.0704   -0.3190 C.ar    1  LIG1       -0.0149
     18 C           6.2168    1.1828   -0.2535 C.ar    1  LIG1       -0.0173
     19 H           5.9708    3.0832   -1.2108 H       1  LIG1        0.0626
     20 C           4.1523    0.0347    0.2348 C.ar    1  LIG1       -0.0532
     21 C           5.5372    0.0804    0.2653 C.ar    1  LIG1       -0.0534
     22 H           3.6353   -0.8304    0.6381 H       1  LIG1        0.0624
     23 C           3.3327    3.3686   -1.4354 C.3     1  LIG1       -0.0391
     24 H           2.4018    3.5744   -0.9036 H       1  LIG1        0.0278
     25 H           3.0716    3.2008   -2.4852 H       1  LIG1        0.0278
     26 H           3.9564    4.2645   -1.3970 H       1  LIG1        0.0278
     27 H           6.0986   -0.7385    0.7035 H       1  LIG1        0.0624
     28 C           8.4443    2.2696    0.3143 C.ar    1  LIG1       -0.0422
     29 C           9.8362    2.2076    0.2743 C.ar    1  LIG1       -0.0505
     30 C           7.7048    1.2170   -0.2538 C.ar    1  LIG1       -0.0149
     31 C          10.5271    1.1457   -0.3089 C.ar    1  LIG1       -0.0173
     32 H          10.4025    3.0265    0.7079 H       1  LIG1        0.0626
     33 C           8.3942    0.1466   -0.8291 C.ar    1  LIG1       -0.0532
     34 C           9.7790    0.1077   -0.8650 C.ar    1  LIG1       -0.0534
     35 H           7.8231   -0.6655   -1.2680 H       1  LIG1        0.0624
     36 C           7.7886    3.4519    0.9842 C.3     1  LIG1       -0.0391
     37 H           6.8740    3.1653    1.5065 H       1  LIG1        0.0278
     38 H           7.5166    4.2295    0.2633 H       1  LIG1        0.0278
     39 H           8.4697    3.9066    1.7071 H       1  LIG1        0.0278
     40 H          10.2876   -0.7375   -1.3175 H       1  LIG1        0.0624
     41 C          12.8272    1.2305    0.7661 C.ar    1  LIG1       -0.0427
     42 C          14.2125    1.1925    0.6040 C.ar    1  LIG1       -0.0583
     43 C          12.0145    1.1226   -0.3768 C.ar    1  LIG1       -0.0150
     44 C          14.8005    1.0534   -0.6457 C.ar    1  LIG1       -0.0615
     45 H          14.8426    1.2639    1.4862 H       1  LIG1        0.0620
     46 C          12.6168    0.9689   -1.6290 C.ar    1  LIG1       -0.0538
     47 C          13.9964    0.9370   -1.7715 C.ar    1  LIG1       -0.0612
     48 H          11.9808    0.8887   -2.5050 H       1  LIG1        0.0624
     49 H          15.8817    1.0282   -0.7367 H       1  LIG1        0.0618
     50 C          12.2569    1.3564    2.1571 C.3     1  LIG1       -0.0391
     51 H          11.3357    0.7822    2.2715 H       1  LIG1        0.0278
     52 H          12.0205    2.3954    2.4084 H       1  LIG1        0.0278
     53 H          12.9774    1.0015    2.8977 H       1  LIG1        0.0278
     54 H          14.4389    0.8236   -2.7558 H       1  LIG1        0.0618
@<TRIPOS>BOND
     1    54    47    1
     2    48    46    1
     3    25    23    1
     4    14     7    1
     5     8     6    1
     6    47    46   ar
     7    47    44   ar
     8    46    43   ar
     9     7     6   ar
    10     7     4   ar
    11     6     3   ar
    12    23    26    1
    13    23    24    1
    14    23    15    1
    15    40    34    1
    16    35    33    1
    17    19    16    1
    18    34    33   ar
    19    34    31   ar
    20    15    16   ar
    21    15    17   ar
    22    33    30   ar
    23    16    18   ar
    24    49    44    1
    25    44    42   ar
    26    43    31    1
    27    43    41   ar
    28    17     4    1
    29    17    20   ar
    30     4     2   ar
    31    31    29   ar
    32     3     9    1
    33     3     1   ar
    34    30    18    1
    35    30    28   ar
    36    18    21   ar
    37    20    21   ar
    38    20    22    1
    39    38    36    1
    40    21    27    1
    41    29    28   ar
    42    29    32    1
    43    28    36    1
    44    42    41   ar
    45    42    45    1
    46    41    50    1
    47     2     1   ar
    48     2     5    1
    49     1    10    1
    50    36    37    1
    51    36    39    1
    52    50    51    1
    53    50    52    1
    54    50    53    1
    55    10    13    1
    56    10    12    1
    57    10    11    1
