@<TRIPOS>MOLECULE
mol_data/opt/cam/geoms/mol2/4ia6ad-13af-6ah-.out
 45 48 0 0 0
SMALL
GASTEIGER

@<TRIPOS>ATOM
      1 C          -0.1181    0.2359   -0.5128 C.ar    1  LIG1       -0.0499
      2 C           1.2693    0.1641   -0.4319 C.ar    1  LIG1       -0.0511
      3 C          -0.7566    1.3586    0.0167 C.ar    1  LIG1       -0.0588
      4 C           2.0246    1.1806    0.1603 C.ar    1  LIG1       -0.0162
      5 H           1.7779   -0.6944   -0.8613 H       1  LIG1        0.0626
      6 C          -0.0223    2.3777    0.6066 C.ar    1  LIG1       -0.0609
      7 C           1.3618    2.2930    0.6819 C.ar    1  LIG1       -0.0540
      8 H          -0.5320    3.2405    1.0230 H       1  LIG1        0.0618
      9 H          -1.8392    1.4313   -0.0336 H       1  LIG1        0.0620
     10 C          -0.9120   -0.8559   -1.1805 C.3     1  LIG1       -0.0397
     11 H          -0.3210   -1.7669   -1.2960 H       1  LIG1        0.0278
     12 H          -1.2428   -0.5479   -2.1778 H       1  LIG1        0.0278
     13 H          -1.8073   -1.1042   -0.6045 H       1  LIG1        0.0278
     14 H           1.9261    3.0790    1.1728 H       1  LIG1        0.0624
     15 C           4.3243    2.1902    0.0432 C.ar    1  LIG1        0.0361
     16 C           3.4985    1.0763    0.2331 C.ar    1  LIG1        0.0015
     17 C           4.1490   -0.1255    0.4844 C.ar    1  LIG1       -0.0330
     18 C           5.5408   -0.1792    0.5404 C.ar    1  LIG1        0.0797
     19 C           6.2823    1.0043    0.3438 C.ar    1  LIG1        0.1045
     20 N           5.6459    2.1621    0.0973 N.ar    1  LIG1       -0.2516
     21 H           3.5801   -1.0323    0.6583 H       1  LIG1        0.0638
     22 H           3.8792    3.1563   -0.1832 H       1  LIG1        0.0836
     23 N           6.6211   -2.4804    1.0262 N.1     1  LIG1       -0.1908
     24 C           6.1574   -1.4429    0.8087 C.1     1  LIG1        0.1014
     25 C           7.7317    1.0992    0.3799 C.ar    1  LIG1        0.0702
     26 C           8.7620    0.1897    0.5855 C.ar    1  LIG1        0.0073
     27 C           9.9613    0.9096    0.4684 C.ar    1  LIG1        0.1427
     28 C           9.6605    2.2400    0.1932 C.ar    1  LIG1        0.0905
     29 N           8.2962    2.3256    0.1651 N.ar    1  LIG1       -0.3500
     30 H           7.7334    3.1315   -0.0627 H       1  LIG1        0.1661
     31 H           8.6780   -0.8621    0.8031 H       1  LIG1        0.0676
     32 O          11.1998    0.3555    0.6127 O.3     1  LIG1       -0.5046
     33 H          11.8016    1.0259    0.9590 H       1  LIG1        0.2922
     34 C          10.1422    4.6822    0.3338 C.ar    1  LIG1        0.0369
     35 C          10.5423    3.3840   -0.0041 C.ar    1  LIG1        0.0217
     36 C          11.8222    3.2186   -0.5387 C.ar    1  LIG1       -0.0289
     37 C          12.6468    4.3286   -0.7125 C.ar    1  LIG1        0.0435
     38 C          12.1292    5.5788   -0.3456 C.ar    1  LIG1        0.0482
     39 N          10.9143    5.7491    0.1581 N.ar    1  LIG1       -0.2608
     40 H          12.1596    2.2346   -0.8507 H       1  LIG1        0.0643
     41 H          12.7386    6.4727   -0.4706 H       1  LIG1        0.0848
     42 H           9.1661    4.8595    0.7786 H       1  LIG1        0.0836
     43 N          13.9398    4.2073   -1.1951 N.pl3   1  LIG1       -0.3568
     44 H          14.1290    3.3886   -1.7534 H       1  LIG1        0.1424
     45 H          14.3432    5.0463   -1.5839 H       1  LIG1        0.1424
@<TRIPOS>BOND
     1    12    10    1
     2    44    43    1
     3    45    43    1
     4    11    10    1
     5    43    37    1
     6    10    13    1
     7    10     1    1
     8     5     2    1
     9    40    36    1
    10    37    36   ar
    11    37    38   ar
    12    36    35   ar
    13     1     2   ar
    14     1     3   ar
    15    41    38    1
    16     2     4   ar
    17    38    39   ar
    18    22    15    1
    19    30    29    1
    20     9     3    1
    21    35    28    1
    22    35    34   ar
    23     3     6   ar
    24    15    20   ar
    25    15    16   ar
    26    20    19   ar
    27    39    34   ar
    28     4    16    1
    29     4     7   ar
    30    29    28   ar
    31    29    25   ar
    32    28    27   ar
    33    16    17   ar
    34    34    42    1
    35    19    25    1
    36    19    18   ar
    37    25    26   ar
    38    27    26   ar
    39    27    32    1
    40    17    18   ar
    41    17    21    1
    42    18    24    1
    43    26    31    1
    44     6     7   ar
    45     6     8    1
    46    32    33    1
    47     7    14    1
    48    24    23    3
