@<TRIPOS>MOLECULE
mol_data/opt/cam/geoms/mol2/4id13fl-13de-13ae.out
 50 53 0 0 0
SMALL
GASTEIGER

@<TRIPOS>ATOM
      1 C          -0.1554    0.4758   -0.1665 C.ar    1  LIG1       -0.0498
      2 C           1.2143    0.2668   -0.0928 C.ar    1  LIG1       -0.0484
      3 C          -0.6391    1.7873   -0.2608 C.ar    1  LIG1       -0.0576
      4 C           2.1359    1.3227   -0.0998 C.ar    1  LIG1        0.0196
      5 H           1.5984   -0.7444   -0.0239 H       1  LIG1        0.0627
      6 C           0.2359    2.8528   -0.2621 C.ar    1  LIG1       -0.0435
      7 C           1.6186    2.6406   -0.1732 C.ar    1  LIG1        0.0610
      8 H          -0.1369    3.8694   -0.3214 H       1  LIG1        0.0631
      9 H          -1.7072    1.9665   -0.3276 H       1  LIG1        0.0621
     10 C          -1.1133   -0.6834   -0.1541 C.3     1  LIG1       -0.0397
     11 H          -0.5870   -1.6373   -0.0946 H       1  LIG1        0.0278
     12 H          -1.7302   -0.6907   -1.0575 H       1  LIG1        0.0278
     13 H          -1.7930   -0.6174    0.7007 H       1  LIG1        0.0278
     14 N           3.1688    4.7192   -0.0967 N.1     1  LIG1       -0.1908
     15 C           2.4633    3.7987   -0.1240 C.1     1  LIG1        0.0998
     16 C           3.5551    1.0387   -0.0021 C.ar    1  LIG1        0.0940
     17 C           4.2548   -0.0371    0.5194 C.ar    1  LIG1        0.1851
     18 C           5.6373    0.2819    0.5312 C.ar    1  LIG1        0.1888
     19 C           5.7750    1.5569    0.0098 C.ar    1  LIG1        0.1106
     20 N           4.5121    1.9828   -0.3098 N.ar    1  LIG1       -0.3471
     21 H           4.3557    2.7494   -0.9424 H       1  LIG1        0.1662
     22 O           3.7320   -1.1758    1.0319 O.3     1  LIG1       -0.5019
     23 H           4.4270   -1.5873    1.5668 H       1  LIG1        0.2924
     24 O           6.5642   -0.5203    1.1225 O.3     1  LIG1       -0.4895
     25 C           7.1200   -1.5233    0.2621 C.3     1  LIG1        0.0791
     26 H           7.7151   -1.0699   -0.5324 H       1  LIG1        0.0660
     27 H           7.7679   -2.1363    0.8885 H       1  LIG1        0.0660
     28 H           6.3286   -2.1453   -0.1708 H       1  LIG1        0.0660
     29 C           6.8088    2.5653   -0.0709 C.ar    1  LIG1        0.0859
     30 C           8.1692    2.5964   -0.3127 C.ar    1  LIG1        0.0945
     31 C           8.5836    3.9741   -0.3297 C.ar    1  LIG1        0.0693
     32 C           7.4503    4.7400   -0.0977 C.ar    1  LIG1        0.0802
     33 N           6.4038    3.8712    0.0530 N.ar    1  LIG1       -0.3498
     34 H           5.4854    4.1305    0.3872 H       1  LIG1        0.1661
     35 N           9.6513    0.5423   -0.7804 N.1     1  LIG1       -0.1908
     36 C           8.9927    1.4700   -0.5646 C.1     1  LIG1        0.1026
     37 C           9.8987    4.4447   -0.5704 C.1     1  LIG1       -0.0662
     38 C          11.0207    4.8311   -0.7745 C.1     1  LIG1       -0.1138
     39 H          12.0157    5.1643   -0.9603 H       1  LIG1        0.1232
     40 C           7.2382    6.1673   -0.0201 C.ar    1  LIG1        0.0653
     41 C           8.1314    7.2065    0.1035 C.ar    1  LIG1       -0.0195
     42 C           7.3807    8.4149    0.1476 C.ar    1  LIG1        0.0426
     43 C           6.0479    8.0650    0.0489 C.ar    1  LIG1        0.0177
     44 N           5.9668    6.7116   -0.0490 N.ar    1  LIG1       -0.3584
     45 H           5.0987    6.2077   -0.1820 H       1  LIG1        0.1654
     46 H           5.1668    8.6871    0.0384 H       1  LIG1        0.0819
     47 H           9.2037    7.1115    0.1650 H       1  LIG1        0.0651
     48 C           7.8912    9.7369    0.2740 C.1     1  LIG1       -0.0682
     49 C           8.3281   10.8539    0.3810 C.1     1  LIG1       -0.1139
     50 H           8.7153   11.8416    0.4759 H       1  LIG1        0.1232
@<TRIPOS>BOND
     1    12    10    1
     2    39    38    1
     3    21    20    1
     4    35    36    3
     5    38    37    3
     6    37    31    1
     7    36    30    1
     8    26    25    1
     9    31    30   ar
    10    31    32   ar
    11     9     3    1
    12     8     6    1
    13    30    29   ar
    14    20    16   ar
    15    20    19   ar
    16     6     3   ar
    17     6     7   ar
    18     3     1   ar
    19    45    44    1
    20     7    15    1
    21     7     4   ar
    22    28    25    1
    23     1    10    1
    24     1     2   ar
    25    10    11    1
    26    10    13    1
    27    15    14    3
    28     4     2   ar
    29     4    16    1
    30    32    40    1
    31    32    33   ar
    32     2     5    1
    33    29    19    1
    34    29    33   ar
    35    44    40   ar
    36    44    43   ar
    37    40    41   ar
    38    16    17   ar
    39    19    18   ar
    40    46    43    1
    41    43    42   ar
    42    33    34    1
    43    41    42   ar
    44    41    47    1
    45    42    48    1
    46    25    27    1
    47    25    24    1
    48    48    49    3
    49    49    50    1
    50    17    18   ar
    51    17    22    1
    52    18    24    1
    53    22    23    1
