@<TRIPOS>MOLECULE
mol_data/opt/cam/geoms/mol2/4id13hf-6fl-4hh-4dh13fe-12dh-13la-.out
 101 108 0 0 0
SMALL
GASTEIGER

@<TRIPOS>ATOM
      1 C           0.2504   -1.3653   -1.0238 C.ar    1  LIG1       -0.0498
      2 C           1.2612   -0.7319   -0.3157 C.ar    1  LIG1       -0.0484
      3 C           0.3104   -1.3825   -2.4217 C.ar    1  LIG1       -0.0576
      4 C           2.3529   -0.1057   -0.9418 C.ar    1  LIG1        0.0178
      5 H           1.1998   -0.6886    0.7658 H       1  LIG1        0.0627
      6 C           1.3601   -0.7693   -3.0729 C.ar    1  LIG1       -0.0435
      7 C           2.3819   -0.1354   -2.3536 C.ar    1  LIG1        0.0609
      8 H           1.4131   -0.7742   -4.1560 H       1  LIG1        0.0631
      9 H          -0.4704   -1.8727   -2.9944 H       1  LIG1        0.0621
     10 C          -0.9045   -2.0103   -0.3062 C.3     1  LIG1       -0.0397
     11 H          -0.8004   -1.9245    0.7769 H       1  LIG1        0.0278
     12 H          -0.9789   -3.0727   -0.5574 H       1  LIG1        0.0278
     13 H          -1.8526   -1.5447   -0.5918 H       1  LIG1        0.0278
     14 N           4.2715    0.9353   -3.7658 N.1     1  LIG1       -0.1908
     15 C           3.4392    0.4557   -3.1183 C.1     1  LIG1        0.0998
     16 C           3.3637    0.5330   -0.1094 C.ar    1  LIG1        0.0728
     17 C           3.6810    0.2944    1.2283 C.ar    1  LIG1        0.0929
     18 C           4.7042    1.1935    1.5749 C.ar    1  LIG1        0.1636
     19 C           5.0027    1.9836    0.4707 C.ar    1  LIG1        0.0961
     20 N           4.1925    1.5476   -0.5371 N.ar    1  LIG1       -0.3496
     21 H           4.2547    1.9231   -1.4733 H       1  LIG1        0.1661
     22 N           3.1165   -0.6238    2.1239 N.pl3   1  LIG1       -0.3535
     23 H           3.0498   -1.5625    1.7489 H       1  LIG1        0.1425
     24 H           3.6396   -0.6285    2.9918 H       1  LIG1        0.1425
     25 O           5.2632    1.2391    2.8373 O.3     1  LIG1       -0.5031
     26 H           6.1648    0.8964    2.7847 H       1  LIG1        0.2923
     27 C           6.2968    3.6460   -0.9103 C.ar    1  LIG1        0.2225
     28 C           5.9627    3.0700    0.3272 C.ar    1  LIG1        0.0668
     29 C           6.6091    3.6199    1.4369 C.ar    1  LIG1       -0.0035
     30 C           7.5379    4.6435    1.2808 C.ar    1  LIG1        0.1469
     31 C           7.8467    5.0946   -0.0122 C.ar    1  LIG1        0.1181
     32 N           7.1921    4.5951   -1.0685 N.ar    1  LIG1       -0.2087
     33 H           6.3455    3.2544    2.4199 H       1  LIG1        0.0663
     34 O           5.6627    3.2031   -2.0249 O.3     1  LIG1       -0.4919
     35 H           6.0634    3.6459   -2.7861 H       1  LIG1        0.2937
     36 O           8.1612    5.2698    2.3112 O.3     1  LIG1       -0.4929
     37 C           7.9308    4.8019    3.6207 C.3     1  LIG1        0.0789
     38 H           8.5503    5.4159    4.2731 H       1  LIG1        0.0660
     39 H           6.8792    4.9107    3.9114 H       1  LIG1        0.0660
     40 H           8.2239    3.7508    3.7333 H       1  LIG1        0.0660
     41 C          10.1577    6.1404    0.1738 C.ar    1  LIG1        0.0346
     42 C          10.9918    7.2052   -0.1653 C.ar    1  LIG1       -0.0309
     43 C           8.8280    6.1767   -0.2790 C.ar    1  LIG1        0.0264
     44 C          10.5738    8.2750   -0.9505 C.ar    1  LIG1        0.0058
     45 H          12.0123    7.1935    0.2034 H       1  LIG1        0.0643
     46 C           8.4156    7.2384   -1.0836 C.ar    1  LIG1       -0.0294
     47 C           9.2519    8.2905   -1.4336 C.ar    1  LIG1        0.0331
     48 H           7.3968    7.2236   -1.4586 H       1  LIG1        0.0643
     49 N          10.6806    5.0977    0.9460 N.pl3   1  LIG1       -0.3574
     50 H          10.1197    4.2583    0.9397 H       1  LIG1        0.1423
     51 H          11.6438    4.8887    0.7212 H       1  LIG1        0.1423
     52 N           8.7594    9.3519   -2.2177 N.pl3   1  LIG1       -0.3575
     53 H           9.4558    9.7543   -2.8317 H       1  LIG1        0.1423
     54 H           7.9390    9.0890   -2.7475 H       1  LIG1        0.1423
     55 C          12.8141    9.1532   -1.7613 C.ar    1  LIG1        0.0603
     56 C          13.6893   10.2194   -1.9709 C.ar    1  LIG1       -0.0328
     57 C          11.5231    9.3788   -1.2465 C.ar    1  LIG1        0.0031
     58 C          13.3257   11.5356   -1.6955 C.ar    1  LIG1        0.0238
     59 H          14.6820   10.0197   -2.3546 H       1  LIG1        0.0638
     60 C          11.1542   10.7004   -1.0072 C.ar    1  LIG1       -0.0314
     61 C          12.0127   11.7725   -1.2339 C.ar    1  LIG1        0.0345
     62 H          10.1499   10.8982   -0.6468 H       1  LIG1        0.0643
     63 N          13.6890    6.7887   -2.3642 N.1     1  LIG1       -0.1908
     64 C          13.2772    7.8349   -2.0905 C.1     1  LIG1        0.0998
     65 N          11.5817   13.0831   -0.9597 N.pl3   1  LIG1       -0.3574
     66 H          11.7880   13.7331   -1.7105 H       1  LIG1        0.1423
     67 H          10.5975   13.1265   -0.7275 H       1  LIG1        0.1423
     68 C          14.3048   12.6068   -1.8652 C.ar    1  LIG1        0.0921
     69 C          15.4485   12.6680   -2.6403 C.ar    1  LIG1        0.1582
     70 C          16.1103   13.8983   -2.3913 C.ar    1  LIG1        0.0949
     71 C          15.3392   14.5793   -1.4475 C.ar    1  LIG1        0.1031
     72 N          14.2705   13.7893   -1.1517 N.ar    1  LIG1       -0.3478
     73 H          13.5547   14.0109   -0.4743 H       1  LIG1        0.1661
     74 O          15.8749   11.7024   -3.4861 O.3     1  LIG1       -0.5035
     75 H          16.7003   12.0053   -3.8916 H       1  LIG1        0.2923
     76 C          17.3421   14.2410   -2.9994 C.1     1  LIG1       -0.0637
     77 C          18.3920   14.4430   -3.5559 C.1     1  LIG1       -0.1137
     78 H          19.3141   14.6817   -4.0344 H       1  LIG1        0.1232
     79 C          15.4900   15.8476   -0.7893 C.ar    1  LIG1        0.1723
     80 C          16.1779   17.0130   -1.0365 C.ar    1  LIG1        0.1202
     81 C          15.8774   17.9213    0.0405 C.ar    1  LIG1        0.0909
     82 C          14.9999   17.2609    0.8544 C.ar    1  LIG1        0.1772
     83 O          14.7714   15.9950    0.3465 O.2     1  LIG1       -0.4485
     84 N          17.6280   17.7848   -3.0158 N.1     1  LIG1       -0.1907
     85 C          16.9819   17.3776   -2.1451 C.1     1  LIG1        0.1049
     86 N          16.4413   19.1664    0.2107 N.pl3   1  LIG1       -0.3540
     87 H          16.8048   19.5809   -0.6357 H       1  LIG1        0.1425
     88 H          15.8832   19.7986    0.7725 H       1  LIG1        0.1425
     89 C          14.3259   17.5949    2.0798 C.ar    1  LIG1        0.1261
     90 C          14.0034   18.8143    2.6478 C.ar    1  LIG1        0.1483
     91 C          13.3565   18.5762    3.8865 C.ar    1  LIG1       -0.0018
     92 C          13.2909   17.2106    4.0386 C.ar    1  LIG1        0.0058
     93 N          13.8746   16.6302    2.9545 N.ar    1  LIG1       -0.3553
     94 H          13.9932   15.6427    2.8019 H       1  LIG1        0.1655
     95 H          12.8698   16.6178    4.8352 H       1  LIG1        0.0808
     96 O          14.2801   20.0058    2.0385 O.3     1  LIG1       -0.4929
     97 C          13.8742   21.1639    2.7405 C.3     1  LIG1        0.0789
     98 H          14.1554   22.0175    2.1240 H       1  LIG1        0.0660
     99 H          12.7894   21.1711    2.8943 H       1  LIG1        0.0660
    100 H          14.3758   21.2372    3.7122 H       1  LIG1        0.0660
    101 H          12.9740   19.3088    4.5795 H       1  LIG1        0.0669
@<TRIPOS>BOND
     1     8     6    1
     2    78    77    1
     3    75    74    1
     4    14    15    3
     5    77    76    3
     6    74    69    1
     7    15     7    1
     8     6     3   ar
     9     6     7   ar
    10    84    85    3
    11    76    70    1
    12     9     3    1
    13    53    52    1
    14    35    34    1
    15    54    52    1
    16    69    70   ar
    17    69    68   ar
    18     3     1   ar
    19    70    71   ar
    20    63    64    3
    21    59    56    1
    22     7     4   ar
    23    52    47    1
    24    85    80    1
    25    64    55    1
    26    34    27    1
    27    56    55   ar
    28    56    58   ar
    29    68    58    1
    30    68    72   ar
    31    55    57   ar
    32    66    65    1
    33    58    61   ar
    34    21    20    1
    35    48    46    1
    36    71    72   ar
    37    71    79    1
    38    47    46   ar
    39    47    44   ar
    40    57    60   ar
    41    57    44    1
    42    61    60   ar
    43    61    65    1
    44    72    73    1
    45    46    43   ar
    46    32    27   ar
    47    32    31   ar
    48    80    79   ar
    49    80    81   ar
    50     1     2   ar
    51     1    10    1
    52    60    62    1
    53    65    67    1
    54    44    42   ar
    55     4     2   ar
    56     4    16    1
    57    27    28   ar
    58    79    83   ar
    59    87    86    1
    60    13    10    1
    61    12    10    1
    62    20    16   ar
    63    20    19   ar
    64     2     5    1
    65    10    11    1
    66    43    31    1
    67    43    41   ar
    68    42    41   ar
    69    42    45    1
    70    16    17   ar
    71    31    30   ar
    72    81    86    1
    73    81    82   ar
    74    41    49    1
    75    86    88    1
    76    28    19    1
    77    28    29   ar
    78    83    82   ar
    79    19    18   ar
    80    51    49    1
    81    82    89    1
    82    50    49    1
    83    17    18   ar
    84    17    22    1
    85    30    29   ar
    86    30    36    1
    87    29    33    1
    88    18    25    1
    89    23    22    1
    90    96    90    1
    91    96    97    1
    92    89    90   ar
    93    89    93   ar
    94    22    24    1
    95    98    97    1
    96    36    37    1
    97    90    91   ar
    98    97    99    1
    99    97   100    1
   100    26    25    1
   101    94    93    1
   102    93    92   ar
   103    37    40    1
   104    37    39    1
   105    37    38    1
   106    91    92   ar
   107    91   101    1
   108    92    95    1
