@<TRIPOS>MOLECULE
mol_data/opt/cam/geoms/mol2/4id12fh12hh13hd-12ld-4af-13ae13il-.out
 96 103 0 0 0
SMALL
GASTEIGER

@<TRIPOS>ATOM
      1 C           1.0831   -0.5485   -2.1687 C.ar    1  LIG1       -0.0497
      2 C           2.3374   -0.3431   -1.6112 C.ar    1  LIG1       -0.0468
      3 C           0.0732    0.3891   -1.9208 C.ar    1  LIG1       -0.0576
      4 C           2.6300    0.7607   -0.7914 C.ar    1  LIG1        0.0386
      5 H           3.1400   -1.0268   -1.8702 H       1  LIG1        0.0628
      6 C           0.3274    1.4926   -1.1316 C.ar    1  LIG1       -0.0434
      7 C           1.5914    1.6834   -0.5561 C.ar    1  LIG1        0.0625
      8 H          -0.4487    2.2259   -0.9356 H       1  LIG1        0.0631
      9 H          -0.9089    0.2554   -2.3627 H       1  LIG1        0.0621
     10 C           0.8129   -1.7382   -3.0483 C.3     1  LIG1       -0.0397
     11 H           1.7096   -2.3429   -3.1963 H       1  LIG1        0.0278
     12 H           0.4514   -1.4231   -4.0311 H       1  LIG1        0.0278
     13 H           0.0410   -2.3790   -2.6115 H       1  LIG1        0.0278
     14 N           1.7061    3.7537    0.9867 N.1     1  LIG1       -0.1908
     15 C           1.7328    2.8214    0.2994 C.1     1  LIG1        0.0999
     16 C           3.9548    0.9023   -0.2389 C.ar    1  LIG1        0.1802
     17 C           4.9386   -0.0024    0.0596 C.ar    1  LIG1        0.1846
     18 C           6.0593    0.7150    0.5543 C.ar    1  LIG1        0.1169
     19 C           5.6883    2.0435    0.5464 C.ar    1  LIG1        0.1967
     20 O           4.4230    2.1579    0.0792 O.2     1  LIG1       -0.4459
     21 O           4.9437   -1.3534   -0.0436 O.3     1  LIG1       -0.5020
     22 H           4.0362   -1.6731   -0.1222 H       1  LIG1        0.2924
     23 N           7.3105    0.1666    0.9539 N.pl3   1  LIG1       -0.3521
     24 H           7.1697   -0.5622    1.6487 H       1  LIG1        0.1425
     25 H           7.7744   -0.2739    0.1637 H       1  LIG1        0.1425
     26 C           6.3651    3.2505    0.8939 C.ar    1  LIG1        0.1950
     27 C           7.5993    3.5249    1.4381 C.ar    1  LIG1        0.0958
     28 C           7.7241    4.9508    1.4534 C.ar    1  LIG1        0.0942
     29 C           6.5541    5.4575    0.9401 C.ar    1  LIG1        0.1761
     30 O           5.7271    4.4427    0.6009 O.2     1  LIG1       -0.4463
     31 N           8.5294    2.6545    1.9437 N.pl3   1  LIG1       -0.3535
     32 H           8.3941    1.6785    1.6789 H       1  LIG1        0.1425
     33 H           9.4814    2.9869    1.9400 H       1  LIG1        0.1425
     34 N           8.8497    5.6919    1.9108 N.pl3   1  LIG1       -0.3535
     35 H           9.0568    5.4929    2.8856 H       1  LIG1        0.1425
     36 H           9.6829    5.4924    1.3645 H       1  LIG1        0.1425
     37 C           6.0430    6.7711    0.6844 C.ar    1  LIG1        0.1067
     38 C           6.5814    8.0446    0.8508 C.ar    1  LIG1        0.0716
     39 C           5.6158    8.9658    0.3415 C.ar    1  LIG1        0.1014
     40 C           4.5145    8.2298   -0.1043 C.ar    1  LIG1        0.1058
     41 N           4.7871    6.9260    0.1119 N.ar    1  LIG1       -0.3467
     42 H           4.1600    6.1592   -0.0803 H       1  LIG1        0.1662
     43 N           7.7618    8.3902    1.4375 N.pl3   1  LIG1       -0.3552
     44 H           8.4107    7.6352    1.6419 H       1  LIG1        0.1424
     45 H           8.1267    9.3080    1.2417 H       1  LIG1        0.1424
     46 N           5.9602   11.5124    0.4619 N.1     1  LIG1       -0.1907
     47 C           5.7721   10.3709    0.3829 C.1     1  LIG1        0.1033
     48 C           3.2598    8.6457   -0.6692 C.ar    1  LIG1        0.1958
     49 C           2.8335    9.7437   -1.3573 C.ar    1  LIG1        0.1852
     50 C           1.4466    9.5111   -1.6722 C.ar    1  LIG1        0.1396
     51 C           1.1295    8.2712   -1.1641 C.ar    1  LIG1        0.1569
     52 O           2.2260    7.7522   -0.5702 O.2     1  LIG1       -0.4482
     53 O           3.6118   10.7688   -1.7393 O.3     1  LIG1       -0.4901
     54 C           3.2201   12.0729   -1.2972 C.3     1  LIG1        0.0790
     55 H           3.9844   12.7528   -1.6682 H       1  LIG1        0.0660
     56 H           2.2447   12.3506   -1.7049 H       1  LIG1        0.0660
     57 H           3.2062   12.1162   -0.2054 H       1  LIG1        0.0660
     58 N          -0.0859   11.1037   -2.9953 N.1     1  LIG1       -0.1906
     59 C           0.5972   10.3836   -2.3986 C.1     1  LIG1        0.1067
     60 C          -1.2314    7.7744   -1.8321 C.ar    1  LIG1       -0.0502
     61 C          -2.3357    6.9472   -1.7474 C.ar    1  LIG1       -0.0485
     62 C          -0.0724    7.4547   -1.1171 C.ar    1  LIG1        0.0222
     63 C          -2.3481    5.7779   -0.9746 C.ar    1  LIG1        0.0398
     64 H          -3.2309    7.2144   -2.2966 H       1  LIG1        0.0625
     65 C          -0.0636    6.3043   -0.3266 C.ar    1  LIG1       -0.0088
     66 C          -1.1754    5.4829   -0.2560 C.ar    1  LIG1        0.1266
     67 H           0.8217    6.0396    0.2386 H       1  LIG1        0.0661
     68 H          -1.2757    8.6620   -2.4507 H       1  LIG1        0.0625
     69 O          -1.1444    4.3539    0.5203 O.3     1  LIG1       -0.5061
     70 H          -0.2689    4.2718    0.9358 H       1  LIG1        0.2922
     71 C          -3.5374    4.9319   -0.9461 C.ar    1  LIG1        0.0517
     72 C          -4.6817    4.9804   -1.7150 C.ar    1  LIG1       -0.0202
     73 C          -5.5496    3.9433   -1.2809 C.ar    1  LIG1        0.0519
     74 C          -4.9096    3.2829   -0.2340 C.ar    1  LIG1        0.0793
     75 N          -3.6982    3.8878   -0.0623 N.ar    1  LIG1       -0.3519
     76 H          -3.0318    3.6861    0.6680 H       1  LIG1        0.1660
     77 H          -4.8856    5.6607   -2.5275 H       1  LIG1        0.0651
     78 C          -6.7981    3.5991   -1.8660 C.1     1  LIG1       -0.0675
     79 C          -7.8489    3.3217   -2.3866 C.1     1  LIG1       -0.1138
     80 H          -8.7754    3.0744   -2.8500 H       1  LIG1        0.1232
     81 C          -5.2987    2.1428    0.5737 C.ar    1  LIG1        0.0706
     82 C          -6.4942    1.8196    1.1858 C.ar    1  LIG1        0.0179
     83 C          -6.2597    0.6022    1.8879 C.ar    1  LIG1        0.1408
     84 C          -4.9555    0.2223    1.7003 C.ar    1  LIG1        0.0447
     85 N          -4.3693    1.1807    0.9163 N.ar    1  LIG1       -0.3562
     86 H          -3.4596    1.1031    0.4938 H       1  LIG1        0.1655
     87 H          -4.4122   -0.6283    2.0797 H       1  LIG1        0.0844
     88 C          -7.7622    2.6095    1.2148 C.3     1  LIG1       -0.0342
     89 H          -8.2891    2.4306    2.1558 H       1  LIG1        0.0279
     90 H          -8.4335    2.3460    0.3917 H       1  LIG1        0.0279
     91 H          -7.5622    3.6797    1.1265 H       1  LIG1        0.0279
     92 O          -7.1620   -0.0452    2.6876 O.3     1  LIG1       -0.4933
     93 C          -8.1476   -0.7706    1.9732 C.3     1  LIG1        0.0789
     94 H          -8.8013   -1.2321    2.7152 H       1  LIG1        0.0660
     95 H          -8.7449   -0.1166    1.3274 H       1  LIG1        0.0660
     96 H          -7.6922   -1.5528    1.3537 H       1  LIG1        0.0660
@<TRIPOS>BOND
     1    12    10    1
     2    11    10    1
     3    10    13    1
     4    10     1    1
     5    58    59    3
     6    80    79    1
     7    77    72    1
     8    68    60    1
     9    59    50    1
    10    79    78    3
    11     9     3    1
    12    64    61    1
    13     1     3   ar
    14     1     2   ar
    15     3     6   ar
    16     5     2    1
    17    78    73    1
    18    60    61   ar
    19    60    62   ar
    20    61    63   ar
    21    53    49    1
    22    53    54    1
    23    72    73   ar
    24    72    71   ar
    25    56    54    1
    26    50    49   ar
    27    50    51   ar
    28    55    54    1
    29     2     4   ar
    30    49    48   ar
    31    54    57    1
    32    73    74   ar
    33    51    62    1
    34    51    52   ar
    35     6     8    1
    36     6     7   ar
    37    62    65   ar
    38    63    71    1
    39    63    66   ar
    40    71    75   ar
    41     4     7   ar
    42     4    16    1
    43    48    52   ar
    44    48    40    1
    45     7    15    1
    46    65    66   ar
    47    65    67    1
    48    66    69    1
    49    16    17   ar
    50    16    20   ar
    51    74    75   ar
    52    74    81    1
    53    22    21    1
    54    40    41   ar
    55    40    39   ar
    56    42    41    1
    57    75    76    1
    58    21    17    1
    59    17    18   ar
    60    20    19   ar
    61    41    37   ar
    62    25    23    1
    63    15    14    3
    64    39    47    1
    65    39    38   ar
    66    47    46    3
    67    90    88    1
    68    86    85    1
    69    69    70    1
    70    19    18   ar
    71    19    26    1
    72    18    23    1
    73    81    85   ar
    74    81    82   ar
    75    30    26   ar
    76    30    29   ar
    77    37    38   ar
    78    37    29    1
    79    38    43    1
    80    26    27   ar
    81    85    84   ar
    82    29    28   ar
    83    23    24    1
    84    91    88    1
    85    82    88    1
    86    82    83   ar
    87    88    89    1
    88    45    43    1
    89    95    93    1
    90    96    93    1
    91    36    34    1
    92    43    44    1
    93    27    28   ar
    94    27    31    1
    95    28    34    1
    96    32    31    1
    97    84    83   ar
    98    84    87    1
    99    83    92    1
   100    34    35    1
   101    33    31    1
   102    93    92    1
   103    93    94    1
