@<TRIPOS>MOLECULE
mol_data/opt/cam/geoms/mol2/4ie.out
 17 17 0 0 0
SMALL
GASTEIGER

@<TRIPOS>ATOM
      1 C           0.0953    0.0519    0.0153 C.ar    1  LIG1       -0.0504
      2 C           1.4906    0.0559    0.0137 C.ar    1  LIG1       -0.0577
      3 C          -0.5658    1.2807    0.0135 C.ar    1  LIG1       -0.0577
      4 C           2.2057    1.2433    0.0042 C.ar    1  LIG1       -0.0461
      5 H           2.0263   -0.8890    0.0217 H       1  LIG1        0.0621
      6 C           0.1377    2.4750    0.0041 C.ar    1  LIG1       -0.0461
      7 C           1.5365    2.4717   -0.0014 C.ar    1  LIG1        0.0247
      8 H          -0.3905    3.4221    0.0046 H       1  LIG1        0.0630
      9 H           3.2900    1.2300    0.0049 H       1  LIG1        0.0630
     10 H          -1.6517    1.3017    0.0214 H       1  LIG1        0.0621
     11 C          -0.6749   -1.2412   -0.0066 C.3     1  LIG1       -0.0397
     12 H          -0.1231   -2.0428    0.4902 H       1  LIG1        0.0278
     13 H          -0.8674   -1.5661   -1.0348 H       1  LIG1        0.0278
     14 H          -1.6431   -1.1374    0.4889 H       1  LIG1        0.0278
     15 C           2.2694    3.7022   -0.0079 C.1     1  LIG1       -0.0697
     16 C           2.8856    4.7366   -0.0139 C.1     1  LIG1       -0.1139
     17 H           3.4308    5.6520   -0.0200 H       1  LIG1        0.1232
@<TRIPOS>BOND
     1    13    11    1
     2    17    16    1
     3    16    15    3
     4    15     7    1
     5    11     1    1
     6    11    14    1
     7    11    12    1
     8     7     6   ar
     9     7     4   ar
    10     6     8    1
    11     6     3   ar
    12     4     9    1
    13     4     2   ar
    14     3     1   ar
    15     3    10    1
    16     2     1   ar
    17     2     5    1
