@<TRIPOS>MOLECULE
mol_data/opt/cam/geoms/mol2/4ie12df-4ii-4dh-.out
 55 58 0 0 0
SMALL
GASTEIGER

@<TRIPOS>ATOM
      1 C          -0.1074   -0.0214    0.0336 C.ar    1  LIG1       -0.0497
      2 C           1.2115    0.1857   -0.3520 C.ar    1  LIG1       -0.0469
      3 C          -0.5653    0.6276    1.1811 C.ar    1  LIG1       -0.0576
      4 C           2.0784    1.0081    0.3731 C.ar    1  LIG1        0.0343
      5 H           1.5775   -0.3035   -1.2477 H       1  LIG1        0.0628
      6 C           0.2741    1.4471    1.9144 C.ar    1  LIG1       -0.0454
      7 C           1.6059    1.6520    1.5356 C.ar    1  LIG1        0.0354
      8 H          -0.0873    1.9375    2.8111 H       1  LIG1        0.0630
      9 H          -1.5915    0.4846    1.5063 H       1  LIG1        0.0621
     10 C          -1.0223   -0.8974   -0.7786 C.3     1  LIG1       -0.0397
     11 H          -0.4580   -1.5488   -1.4487 H       1  LIG1        0.0278
     12 H          -1.7002   -0.2948   -1.3922 H       1  LIG1        0.0278
     13 H          -1.6409   -1.5271   -0.1341 H       1  LIG1        0.0278
     14 C           2.4267    2.4700    2.3767 C.1     1  LIG1       -0.0690
     15 C           3.0640    3.1529    3.1356 C.1     1  LIG1       -0.1139
     16 H           3.6523    3.7587    3.7862 H       1  LIG1        0.1232
     17 C           3.4533    1.1586   -0.0998 C.ar    1  LIG1        0.1579
     18 C           4.3017    0.3027   -0.7664 C.ar    1  LIG1        0.1394
     19 C           5.5204    1.0267   -0.9654 C.ar    1  LIG1        0.1810
     20 C           5.3564    2.2548   -0.3979 C.ar    1  LIG1        0.1785
     21 O           4.0797    2.3279    0.1057 O.2     1  LIG1       -0.4497
     22 N           3.8446   -2.1147   -1.5299 N.1     1  LIG1       -0.1906
     23 C           4.0506   -1.0309   -1.1797 C.1     1  LIG1        0.1067
     24 O           6.5735    0.5127   -1.6346 O.3     1  LIG1       -0.5023
     25 H           7.2002    1.2202   -1.8281 H       1  LIG1        0.2923
     26 C           7.5408    3.4043    0.0606 C.ar    1  LIG1       -0.0391
     27 C           8.2525    4.6027    0.0768 C.ar    1  LIG1       -0.0501
     28 C           6.1900    3.4545   -0.3201 C.ar    1  LIG1        0.0242
     29 C           7.6750    5.8268   -0.2431 C.ar    1  LIG1       -0.0134
     30 H           9.2965    4.5827    0.3755 H       1  LIG1        0.0627
     31 C           5.6030    4.6904   -0.6145 C.ar    1  LIG1       -0.0472
     32 C           6.3118    5.8825   -0.5804 C.ar    1  LIG1       -0.0420
     33 H           4.5482    4.7104   -0.8690 H       1  LIG1        0.0627
     34 C           8.2220    2.1353    0.5070 C.3     1  LIG1       -0.0390
     35 H           9.0278    2.3678    1.2057 H       1  LIG1        0.0278
     36 H           8.6733    1.5737   -0.3185 H       1  LIG1        0.0278
     37 H           7.5216    1.4627    1.0057 H       1  LIG1        0.0278
     38 C           5.6127    7.1840   -0.8786 C.3     1  LIG1       -0.0391
     39 H           4.5310    7.0401   -0.9066 H       1  LIG1        0.0278
     40 H           5.9175    7.6025   -1.8423 H       1  LIG1        0.0278
     41 H           5.8356    7.9388   -0.1203 H       1  LIG1        0.0278
     42 C           9.0416    7.5431    1.0092 C.ar    1  LIG1        0.0596
     43 C           9.8447    8.6896    1.0033 C.ar    1  LIG1       -0.0420
     44 C           8.5176    7.0560   -0.2024 C.ar    1  LIG1        0.0015
     45 C          10.1324    9.3499   -0.1730 C.ar    1  LIG1       -0.0398
     46 H          10.2421    9.0593    1.9420 H       1  LIG1        0.0631
     47 C           8.8162    7.7294   -1.3789 C.ar    1  LIG1       -0.0321
     48 C           9.6201    8.8762   -1.3894 C.ar    1  LIG1        0.0252
     49 H           8.4235    7.3479   -2.3166 H       1  LIG1        0.0642
     50 H          10.7538   10.2397   -0.1598 H       1  LIG1        0.0636
     51 N           8.5544    6.3994    3.2813 N.1     1  LIG1       -0.1909
     52 C           8.7607    6.8974    2.2569 C.1     1  LIG1        0.0998
     53 N           9.8698    9.5468   -2.5667 N.pl3   1  LIG1       -0.3579
     54 H          10.6596   10.1724   -2.5830 H       1  LIG1        0.1423
     55 H           9.7279    9.0401   -3.4260 H       1  LIG1        0.1423
@<TRIPOS>BOND
     1    55    53    1
     2    54    53    1
     3    53    48    1
     4    49    47    1
     5    40    38    1
     6    25    24    1
     7    24    19    1
     8    22    23    3
     9    11    10    1
    10    12    10    1
    11    48    47   ar
    12    48    45   ar
    13    47    44   ar
    14     5     2    1
    15    23    18    1
    16    19    18   ar
    17    19    20   ar
    18    39    38    1
    19    38    32    1
    20    38    41    1
    21    33    31    1
    22    10    13    1
    23    10     1    1
    24    18    17   ar
    25    31    32   ar
    26    31    28   ar
    27    32    29   ar
    28    20    28    1
    29    20    21   ar
    30     2     1   ar
    31     2     4   ar
    32    28    26   ar
    33    36    34    1
    34    29    44    1
    35    29    27   ar
    36    44    42   ar
    37    45    50    1
    38    45    43   ar
    39    17    21   ar
    40    17     4    1
    41     1     3   ar
    42    26    27   ar
    43    26    34    1
    44    27    30    1
    45     4     7   ar
    46    34    37    1
    47    34    35    1
    48    43    42   ar
    49    43    46    1
    50    42    52    1
    51     3     9    1
    52     3     6   ar
    53     7     6   ar
    54     7    14    1
    55     6     8    1
    56    52    51    3
    57    14    15    3
    58    15    16    1
