@<TRIPOS>MOLECULE
mol_data/opt/cam/geoms/mol2/4ie12ef-6ih4la.out
 55 58 0 0 0
SMALL
GASTEIGER

@<TRIPOS>ATOM
      1 C          -0.0176   -0.2283    0.5299 C.ar    1  LIG1       -0.0497
      2 C           1.3572   -0.0224    0.4332 C.ar    1  LIG1       -0.0469
      3 C          -0.8733    0.7802    0.0619 C.ar    1  LIG1       -0.0576
      4 C           1.9118    1.1456   -0.1228 C.ar    1  LIG1        0.0342
      5 H           2.0296   -0.7855    0.8075 H       1  LIG1        0.0628
      6 C          -0.3566    1.9425   -0.4905 C.ar    1  LIG1       -0.0454
      7 C           1.0316    2.1545   -0.6029 C.ar    1  LIG1        0.0354
      8 H          -1.0233    2.7157   -0.8576 H       1  LIG1        0.0630
      9 H          -1.9504    0.6521    0.1314 H       1  LIG1        0.0621
     10 C          -0.5748   -1.4972    1.1283 C.3     1  LIG1       -0.0397
     11 H           0.2194   -2.1359    1.5228 H       1  LIG1        0.0278
     12 H          -1.1293   -2.0763    0.3805 H       1  LIG1        0.0278
     13 H          -1.2710   -1.2794    1.9459 H       1  LIG1        0.0278
     14 C           1.4594    3.3631   -1.2341 C.1     1  LIG1       -0.0690
     15 C           1.7196    4.4034   -1.7962 C.1     1  LIG1       -0.1139
     16 H           1.9838    5.3093   -2.2904 H       1  LIG1        0.1232
     17 C           3.3640    1.2677   -0.1746 C.ar    1  LIG1        0.1559
     18 C           4.3878    0.3256   -0.2032 C.ar    1  LIG1        0.1124
     19 C           5.6058    1.0822   -0.2322 C.ar    1  LIG1        0.1791
     20 C           5.2725    2.4163   -0.2264 C.ar    1  LIG1        0.1799
     21 O           3.9004    2.5142   -0.1792 O.2     1  LIG1       -0.4497
     22 C           4.3114   -1.0877   -0.2319 C.1     1  LIG1       -0.0622
     23 C           4.2861   -2.2978   -0.2555 C.1     1  LIG1       -0.1137
     24 H           4.2660   -3.3622   -0.2896 H       1  LIG1        0.1232
     25 O           6.8331    0.5038   -0.2450 O.3     1  LIG1       -0.5024
     26 H           7.4941    1.1833   -0.0474 H       1  LIG1        0.2923
     27 C           5.7786    4.8217    0.4148 C.ar    1  LIG1        0.0498
     28 C           6.0995    3.6149   -0.2578 C.ar    1  LIG1        0.0437
     29 C           7.3055    3.5702   -0.9726 C.ar    1  LIG1       -0.0264
     30 C           8.1835    4.6587   -0.9893 C.ar    1  LIG1        0.0517
     31 C           7.8003    5.8008   -0.2443 C.ar    1  LIG1        0.0953
     32 N           6.6222    5.8576    0.3942 N.ar    1  LIG1       -0.2492
     33 H           7.5428    2.6950   -1.5736 H       1  LIG1        0.0644
     34 C           4.4993    5.0191    1.1897 C.3     1  LIG1       -0.0216
     35 H           4.3396    4.2151    1.9161 H       1  LIG1        0.0293
     36 H           3.6227    5.0260    0.5338 H       1  LIG1        0.0293
     37 H           4.5576    5.9714    1.7187 H       1  LIG1        0.0293
     38 N           9.3682    4.5915   -1.7159 N.pl3   1  LIG1       -0.3563
     39 H           9.3251    4.0073   -2.5401 H       1  LIG1        0.1424
     40 H           9.8000    5.4857   -1.9041 H       1  LIG1        0.1424
     41 C           9.9590    7.0590    0.2589 C.ar    1  LIG1        0.1293
     42 C          10.6875    8.2552    0.2818 C.ar    1  LIG1       -0.0193
     43 C           8.6221    7.0455   -0.2019 C.ar    1  LIG1        0.0438
     44 C          10.0849    9.4463   -0.1265 C.ar    1  LIG1       -0.0583
     45 H          11.7124    8.2677    0.6323 H       1  LIG1        0.0654
     46 C           8.0402    8.2622   -0.5770 C.ar    1  LIG1       -0.0490
     47 C           8.7575    9.4576   -0.5493 C.ar    1  LIG1       -0.0609
     48 H           7.0020    8.2508   -0.8928 H       1  LIG1        0.0625
     49 H          10.6605   10.3672   -0.1015 H       1  LIG1        0.0619
     50 O          10.4544    5.8620    0.6887 O.3     1  LIG1       -0.4945
     51 C          11.7948    5.8015    1.1462 C.3     1  LIG1        0.0788
     52 H          11.9703    4.7604    1.4195 H       1  LIG1        0.0660
     53 H          12.5064    6.0930    0.3627 H       1  LIG1        0.0660
     54 H          11.9514    6.4380    2.0264 H       1  LIG1        0.0660
     55 H           8.2843   10.3853   -0.8552 H       1  LIG1        0.0618
@<TRIPOS>BOND
     1    39    38    1
     2    16    15    1
     3    40    38    1
     4    15    14    3
     5    38    30    1
     6    33    29    1
     7    14     7    1
     8    30    29   ar
     9    30    31   ar
    10    29    28   ar
    11    48    46    1
    12     8     6    1
    13    55    47    1
    14     7     6   ar
    15     7     4   ar
    16    46    47   ar
    17    46    43   ar
    18    47    44   ar
    19     6     3   ar
    20    24    23    1
    21    28    20    1
    22    28    27   ar
    23    23    22    3
    24    25    19    1
    25    25    26    1
    26    31    43    1
    27    31    32   ar
    28    19    20   ar
    29    19    18   ar
    30    22    18    1
    31    20    21   ar
    32    18    17   ar
    33    43    41   ar
    34    21    17   ar
    35    17     4    1
    36    44    49    1
    37    44    42   ar
    38     4     2   ar
    39     3     9    1
    40     3     1   ar
    41    41    42   ar
    42    41    50    1
    43    42    45    1
    44    53    51    1
    45    12    10    1
    46    32    27   ar
    47    27    34    1
    48     2     1   ar
    49     2     5    1
    50     1    10    1
    51    36    34    1
    52    50    51    1
    53    10    11    1
    54    10    13    1
    55    51    52    1
    56    51    54    1
    57    34    37    1
    58    34    35    1
