@<TRIPOS>MOLECULE
mol_data/opt/cam/geoms/mol2/4ie13fh6ae-13hl.out
 53 56 0 0 0
SMALL
GASTEIGER

@<TRIPOS>ATOM
      1 C          -0.2504    0.0660    0.0601 C.ar    1  LIG1       -0.0498
      2 C           1.1306    0.0717   -0.0569 C.ar    1  LIG1       -0.0484
      3 C          -0.9131    1.2780    0.2781 C.ar    1  LIG1       -0.0576
      4 C           1.8974    1.2468    0.0313 C.ar    1  LIG1        0.0176
      5 H           1.6475   -0.8646   -0.2252 H       1  LIG1        0.0627
      6 C          -0.1917    2.4494    0.3713 C.ar    1  LIG1       -0.0454
      7 C           1.2064    2.4613    0.2515 C.ar    1  LIG1        0.0339
      8 H          -0.6997    3.3926    0.5400 H       1  LIG1        0.0630
      9 H          -1.9944    1.2983    0.3738 H       1  LIG1        0.0621
     10 C          -1.0272   -1.2193   -0.0422 C.3     1  LIG1       -0.0397
     11 H          -0.3669   -2.0712   -0.2143 H       1  LIG1        0.0278
     12 H          -1.7482   -1.1793   -0.8646 H       1  LIG1        0.0278
     13 H          -1.5942   -1.4109    0.8741 H       1  LIG1        0.0278
     14 C           1.8401    3.7423    0.3619 C.1     1  LIG1       -0.0690
     15 C           2.3131    4.8477    0.4691 C.1     1  LIG1       -0.1139
     16 H           2.7140    5.8312    0.5609 H       1  LIG1        0.1232
     17 C           3.3434    1.1339   -0.1071 C.ar    1  LIG1        0.0920
     18 C           4.1407    0.0287   -0.3732 C.ar    1  LIG1        0.1635
     19 C           5.4919    0.4281   -0.3897 C.ar    1  LIG1        0.0929
     20 C           5.5215    1.7953   -0.1422 C.ar    1  LIG1        0.0730
     21 N           4.2267    2.1927    0.0154 N.ar    1  LIG1       -0.3497
     22 H           3.9317    3.1158    0.2950 H       1  LIG1        0.1661
     23 O           3.7613   -1.2479   -0.6137 O.3     1  LIG1       -0.5031
     24 H           4.5920   -1.7084   -0.8294 H       1  LIG1        0.2923
     25 N           6.5021   -0.5264   -0.6923 N.pl3   1  LIG1       -0.3535
     26 H           7.1057   -0.2383   -1.4546 H       1  LIG1        0.1425
     27 H           7.0816   -0.7629    0.1058 H       1  LIG1        0.1425
     28 C           6.4415    4.1108   -0.3359 C.ar    1  LIG1        0.0376
     29 C           6.6277    2.7426   -0.0967 C.ar    1  LIG1        0.0195
     30 C           7.9301    2.3611    0.2108 C.ar    1  LIG1       -0.0336
     31 C           8.9705    3.2902    0.2431 C.ar    1  LIG1        0.0527
     32 C           8.6863    4.6378   -0.0877 C.ar    1  LIG1        0.1043
     33 N           7.4108    5.0066   -0.3309 N.ar    1  LIG1       -0.2516
     34 H           8.1517    1.3332    0.4697 H       1  LIG1        0.0637
     35 H           5.4483    4.4934   -0.5650 H       1  LIG1        0.0836
     36 C          10.2436    2.8384    0.7090 C.1     1  LIG1       -0.0675
     37 C          11.2831    2.4043    1.1363 C.1     1  LIG1       -0.1138
     38 H          12.2106    2.0593    1.5321 H       1  LIG1        0.1232
     39 C           9.6395    5.7306   -0.1809 C.ar    1  LIG1        0.0907
     40 C          11.0103    5.8764   -0.4098 C.ar    1  LIG1        0.0940
     41 C          11.2583    7.2716   -0.5106 C.ar    1  LIG1        0.1585
     42 C          10.0674    7.9413   -0.3620 C.ar    1  LIG1        0.0463
     43 N           9.1059    7.0121   -0.1581 N.ar    1  LIG1       -0.3549
     44 H           8.1071    7.1426   -0.1346 H       1  LIG1        0.1655
     45 H           9.8584    8.9992   -0.3927 H       1  LIG1        0.0845
     46 N          12.0455    4.9621   -0.5559 N.pl3   1  LIG1       -0.3535
     47 H          11.7739    4.0010   -0.6851 H       1  LIG1        0.1425
     48 H          12.7282    5.2784   -1.2322 H       1  LIG1        0.1425
     49 O          12.4885    7.8125   -0.7739 O.3     1  LIG1       -0.4918
     50 C          13.3380    7.8621    0.3663 C.3     1  LIG1        0.0789
     51 H          14.2928    8.2714    0.0314 H       1  LIG1        0.0660
     52 H          12.9162    8.5127    1.1409 H       1  LIG1        0.0660
     53 H          13.4943    6.8627    0.7861 H       1  LIG1        0.0660
@<TRIPOS>BOND
     1    26    25    1
     2    48    46    1
     3    12    10    1
     4    24    23    1
     5    49    41    1
     6    49    50    1
     7    25    19    1
     8    25    27    1
     9    47    46    1
    10    23    18    1
    11    35    28    1
    12    46    40    1
    13    41    40   ar
    14    41    42   ar
    15    40    39   ar
    16    45    42    1
    17    19    18   ar
    18    19    20   ar
    19    18    17   ar
    20    42    43   ar
    21    28    33   ar
    22    28    29   ar
    23    33    32   ar
    24     5     2    1
    25    11    10    1
    26    39    43   ar
    27    39    32    1
    28    43    44    1
    29    20    29    1
    30    20    21   ar
    31    17    21   ar
    32    17     4    1
    33    29    30   ar
    34    32    31   ar
    35     2     4   ar
    36     2     1   ar
    37    10     1    1
    38    10    13    1
    39    21    22    1
    40     4     7   ar
    41    51    50    1
    42     1     3   ar
    43    30    31   ar
    44    30    34    1
    45    31    36    1
    46     7    14    1
    47     7     6   ar
    48     3     6   ar
    49     3     9    1
    50    14    15    3
    51    50    53    1
    52    50    52    1
    53     6     8    1
    54    15    16    1
    55    36    37    3
    56    37    38    1
