@<TRIPOS>MOLECULE
mol_data/opt/cam/geoms/mol2/4ie4ie4ie-4ie-.out
 62 65 0 0 0
SMALL
GASTEIGER

@<TRIPOS>ATOM
      1 C          -0.1636    0.0938   -0.4145 C.ar    1  LIG1       -0.0498
      2 C           1.2268    0.1533   -0.3730 C.ar    1  LIG1       -0.0499
      3 C          -0.8825    1.2142    0.0049 C.ar    1  LIG1       -0.0576
      4 C           1.9126    1.2840    0.0705 C.ar    1  LIG1       -0.0020
      5 H           1.8060   -0.7092   -0.6895 H       1  LIG1        0.0627
      6 C          -0.2274    2.3519    0.4408 C.ar    1  LIG1       -0.0455
      7 C           1.1715    2.4066    0.4786 C.ar    1  LIG1        0.0324
      8 H          -0.7924    3.2222    0.7557 H       1  LIG1        0.0630
      9 H          -1.9683    1.1946   -0.0138 H       1  LIG1        0.0621
     10 C          -0.8757   -1.1375   -0.9068 C.3     1  LIG1       -0.0397
     11 H          -0.1814   -1.9663   -1.0589 H       1  LIG1        0.0278
     12 H          -1.3796   -0.9456   -1.8595 H       1  LIG1        0.0278
     13 H          -1.6412   -1.4634   -0.1968 H       1  LIG1        0.0278
     14 C           1.8113    3.6135    0.9109 C.1     1  LIG1       -0.0691
     15 C           2.3205    4.6412    1.2780 C.1     1  LIG1       -0.1139
     16 H           2.7786    5.5503    1.5929 H       1  LIG1        0.1232
     17 C           4.1514    1.2297    1.2569 C.ar    1  LIG1       -0.0421
     18 C           5.5406    1.1965    1.1621 C.ar    1  LIG1       -0.0494
     19 C           3.4042    1.2762    0.0686 C.ar    1  LIG1       -0.0126
     20 C           6.2189    1.2098   -0.0544 C.ar    1  LIG1       -0.0019
     21 H           6.1265    1.1577    2.0757 H       1  LIG1        0.0627
     22 C           4.0674    1.2665   -1.1531 C.ar    1  LIG1       -0.0377
     23 C           5.4625    1.2354   -1.2379 C.ar    1  LIG1        0.0330
     24 H           3.4899    1.2847   -2.0709 H       1  LIG1        0.0636
     25 C           3.4902    1.2029    2.6083 C.3     1  LIG1       -0.0391
     26 H           4.2066    0.9289    3.3853 H       1  LIG1        0.0278
     27 H           2.6649    0.4868    2.6343 H       1  LIG1        0.0278
     28 H           3.0759    2.1834    2.8595 H       1  LIG1        0.0278
     29 C           6.0808    1.2008   -2.5298 C.1     1  LIG1       -0.0690
     30 C           6.5748    1.1700   -3.6276 C.1     1  LIG1       -0.1139
     31 H           7.0199    1.1338   -4.5951 H       1  LIG1        0.1232
     32 C           8.4935    2.2559   -0.4449 C.ar    1  LIG1       -0.0421
     33 C           9.8796    2.1274   -0.3955 C.ar    1  LIG1       -0.0494
     34 C           7.7090    1.1556   -0.0618 C.ar    1  LIG1       -0.0126
     35 C          10.5196    0.9621    0.0200 C.ar    1  LIG1       -0.0019
     36 H          10.4943    2.9756   -0.6820 H       1  LIG1        0.0627
     37 C           8.3345   -0.0120    0.3603 C.ar    1  LIG1       -0.0377
     38 C           9.7266   -0.1322    0.4034 C.ar    1  LIG1        0.0330
     39 H           7.7287   -0.8632    0.6514 H       1  LIG1        0.0636
     40 C           7.8751    3.5547   -0.8863 C.3     1  LIG1       -0.0391
     41 H           7.0660    3.8593   -0.2175 H       1  LIG1        0.0278
     42 H           7.4476    3.4620   -1.8886 H       1  LIG1        0.0278
     43 H           8.6210    4.3516   -0.9087 H       1  LIG1        0.0278
     44 C          10.3060   -1.3760    0.8156 C.1     1  LIG1       -0.0690
     45 C          10.7673   -2.4317    1.1659 C.1     1  LIG1       -0.1139
     46 H          11.1844   -3.3661    1.4633 H       1  LIG1        0.1232
     47 C          12.7527    0.8992    1.2133 C.ar    1  LIG1       -0.0426
     48 C          14.1442    0.8747    1.1262 C.ar    1  LIG1       -0.0571
     49 C          12.0103    0.9061    0.0198 C.ar    1  LIG1       -0.0126
     50 C          14.8013    0.8582   -0.0936 C.ar    1  LIG1       -0.0461
     51 H          14.7266    0.8756    2.0428 H       1  LIG1        0.0621
     52 C          12.6709    0.9029   -1.2051 C.ar    1  LIG1       -0.0383
     53 C          14.0663    0.8752   -1.2809 C.ar    1  LIG1        0.0253
     54 H          12.0911    0.9141   -2.1215 H       1  LIG1        0.0636
     55 H          15.8846    0.8393   -0.1352 H       1  LIG1        0.0630
     56 C          12.0830    0.9307    2.5608 C.3     1  LIG1       -0.0391
     57 H          11.6239   -0.0347    2.7920 H       1  LIG1        0.0278
     58 H          11.2906    1.6827    2.5960 H       1  LIG1        0.0278
     59 H          12.8057    1.1582    3.3471 H       1  LIG1        0.0278
     60 C          14.7254    0.8676   -2.5524 C.1     1  LIG1       -0.0696
     61 C          15.2807    0.8621   -3.6208 C.1     1  LIG1       -0.1139
     62 H          15.7713    0.8560   -4.5665 H       1  LIG1        0.1232
@<TRIPOS>BOND
     1    31    30    1
     2    62    61    1
     3    30    29    3
     4    61    60    3
     5    60    53    1
     6    29    23    1
     7    54    52    1
     8    24    22    1
     9    42    40    1
    10    12    10    1
    11    53    52   ar
    12    53    50   ar
    13    23    22   ar
    14    23    20   ar
    15    52    49   ar
    16    22    19   ar
    17    11    10    1
    18    43    40    1
    19    10     1    1
    20    10    13    1
    21    40    32    1
    22    40    41    1
    23     5     2    1
    24    36    33    1
    25    32    33   ar
    26    32    34   ar
    27     1     2   ar
    28     1     3   ar
    29    33    35   ar
    30     2     4   ar
    31    55    50    1
    32    50    48   ar
    33    34    20    1
    34    34    37   ar
    35    20    18   ar
    36     9     3    1
    37     3     6   ar
    38    49    35    1
    39    49    47   ar
    40    35    38   ar
    41    19     4    1
    42    19    17   ar
    43     4     7   ar
    44    37    38   ar
    45    37    39    1
    46    38    44    1
    47     6     7   ar
    48     6     8    1
    49     7    14    1
    50    44    45    3
    51    14    15    3
    52    48    47   ar
    53    48    51    1
    54    18    17   ar
    55    18    21    1
    56    45    46    1
    57    47    56    1
    58    17    25    1
    59    15    16    1
    60    56    58    1
    61    56    57    1
    62    56    59    1
    63    25    27    1
    64    25    28    1
    65    25    26    1
