@<TRIPOS>MOLECULE
mol_data/opt/cam/geoms/mol2/4ie4ie4ie4ie.out
 62 65 0 0 0
SMALL
GASTEIGER

@<TRIPOS>ATOM
      1 C          -0.1731    2.1323   -0.3442 C.ar    1  LIG1       -0.0498
      2 C           1.2186    2.0792   -0.3196 C.ar    1  LIG1       -0.0499
      3 C          -0.8806    0.9633   -0.0627 C.ar    1  LIG1       -0.0576
      4 C           1.9153    0.9082   -0.0247 C.ar    1  LIG1       -0.0020
      5 H           1.7892    2.9759   -0.5435 H       1  LIG1        0.0627
      6 C          -0.2140   -0.2107    0.2416 C.ar    1  LIG1       -0.0455
      7 C           1.1848   -0.2573    0.2680 C.ar    1  LIG1        0.0324
      8 H          -0.7708   -1.1133    0.4681 H       1  LIG1        0.0630
      9 H          -1.9664    0.9743   -0.0802 H       1  LIG1        0.0621
     10 C          -0.8948    3.4183   -0.6450 C.3     1  LIG1       -0.0397
     11 H          -0.2413    4.1355   -1.1461 H       1  LIG1        0.0278
     12 H          -1.2567    3.8890    0.2752 H       1  LIG1        0.0278
     13 H          -1.7646    3.2462   -1.2844 H       1  LIG1        0.0278
     14 C           1.8365   -1.4860    0.6122 C.1     1  LIG1       -0.0691
     15 C           2.3565   -2.5319    0.9051 C.1     1  LIG1       -0.1139
     16 H           2.8237   -3.4517    1.1722 H       1  LIG1        0.1232
     17 C           4.1802    0.3100   -0.9916 C.ar    1  LIG1       -0.0421
     18 C           5.5669    0.4096   -0.9073 C.ar    1  LIG1       -0.0494
     19 C           3.4065    0.9360   -0.0007 C.ar    1  LIG1       -0.0126
     20 C           6.2175    1.0975    0.1143 C.ar    1  LIG1       -0.0019
     21 H           6.1732   -0.0694   -1.6704 H       1  LIG1        0.0627
     22 C           4.0419    1.6455    1.0118 C.ar    1  LIG1       -0.0377
     23 C           5.4348    1.7372    1.0895 C.ar    1  LIG1        0.0330
     24 H           3.4439    2.1428    1.7677 H       1  LIG1        0.0636
     25 C           3.5493   -0.4442   -2.1307 C.3     1  LIG1       -0.0391
     26 H           4.2840   -0.6556   -2.9101 H       1  LIG1        0.0278
     27 H           2.7280    0.1219   -2.5775 H       1  LIG1        0.0278
     28 H           3.1364   -1.3967   -1.7867 H       1  LIG1        0.0278
     29 C           6.0242    2.5049    2.1460 C.1     1  LIG1       -0.0690
     30 C           6.4930    3.1577    3.0428 C.1     1  LIG1       -0.1139
     31 H           6.9153    3.7397    3.8291 H       1  LIG1        0.1232
     32 C           8.4819    0.4791    1.0679 C.ar    1  LIG1       -0.0421
     33 C           9.8689    0.5726    0.9799 C.ar    1  LIG1       -0.0494
     34 C           7.7071    1.1640    0.1175 C.ar    1  LIG1       -0.0126
     35 C          10.5188    1.3147   -0.0035 C.ar    1  LIG1       -0.0019
     36 H          10.4763    0.0436    1.7083 H       1  LIG1        0.0627
     37 C           8.3430    1.8899   -0.8833 C.ar    1  LIG1       -0.0377
     38 C           9.7358    1.9800   -0.9613 C.ar    1  LIG1        0.0330
     39 H           7.7449    2.4048   -1.6271 H       1  LIG1        0.0636
     40 C           7.8523   -0.3507    2.1538 C.3     1  LIG1       -0.0391
     41 H           8.5936   -0.9981    2.6265 H       1  LIG1        0.0278
     42 H           7.0482   -0.9778    1.7607 H       1  LIG1        0.0278
     43 H           7.4155    0.2864    2.9282 H       1  LIG1        0.0278
     44 C          10.3265    2.7260   -2.0324 C.1     1  LIG1       -0.0690
     45 C          10.7972    3.3580   -2.9430 C.1     1  LIG1       -0.1139
     46 H          11.2223    3.9073   -3.7511 H       1  LIG1        0.1232
     47 C          12.7342    2.5003    0.3081 C.ar    1  LIG1       -0.0426
     48 C          14.1270    2.4377    0.2859 C.ar    1  LIG1       -0.0571
     49 C          12.0099    1.3446   -0.0315 C.ar    1  LIG1       -0.0126
     50 C          14.8026    1.2777   -0.0582 C.ar    1  LIG1       -0.0461
     51 H          14.6955    3.3235    0.5531 H       1  LIG1        0.0621
     52 C          12.6887    0.1762   -0.3645 C.ar    1  LIG1       -0.0383
     53 C          14.0854    0.1255   -0.3869 C.ar    1  LIG1        0.0253
     54 H          12.1230   -0.7131   -0.6199 H       1  LIG1        0.0636
     55 H          15.8865    1.2543   -0.0680 H       1  LIG1        0.0630
     56 C          12.0433    3.7783    0.7011 C.3     1  LIG1       -0.0391
     57 H          12.7490    4.4755    1.1576 H       1  LIG1        0.0278
     58 H          11.2344    3.5935    1.4124 H       1  LIG1        0.0278
     59 H          11.6006    4.2675   -0.1713 H       1  LIG1        0.0278
     60 C          14.7634   -1.0865   -0.7372 C.1     1  LIG1       -0.0696
     61 C          15.3346   -2.1050   -1.0306 C.1     1  LIG1       -0.1139
     62 H          15.8390   -3.0065   -1.2914 H       1  LIG1        0.1232
@<TRIPOS>BOND
     1    46    45    1
     2    45    44    3
     3    26    25    1
     4    27    25    1
     5    25    28    1
     6    25    17    1
     7    44    38    1
     8    21    18    1
     9    39    37    1
    10    62    61    1
    11    13    10    1
    12    11    10    1
    13    61    60    3
    14    17    18   ar
    15    17    19   ar
    16    38    37   ar
    17    38    35   ar
    18    18    20   ar
    19    37    34   ar
    20    60    53    1
    21    10     1    1
    22    10    12    1
    23    54    52    1
    24     5     2    1
    25    53    52   ar
    26    53    50   ar
    27    52    49   ar
    28     1     2   ar
    29     1     3   ar
    30     2     4   ar
    31    59    56    1
    32     9     3    1
    33    55    50    1
    34     3     6   ar
    35    50    48   ar
    36    49    35    1
    37    49    47   ar
    38     4    19    1
    39     4     7   ar
    40    35    33   ar
    41    19    22   ar
    42    20    34    1
    43    20    23   ar
    44    34    32   ar
    45     6     7   ar
    46     6     8    1
    47     7    14    1
    48    48    47   ar
    49    48    51    1
    50    47    56    1
    51    14    15    3
    52    56    57    1
    53    56    58    1
    54    15    16    1
    55    33    32   ar
    56    33    36    1
    57    22    23   ar
    58    22    24    1
    59    32    40    1
    60    23    29    1
    61    42    40    1
    62    29    30    3
    63    40    41    1
    64    40    43    1
    65    30    31    1
