@<TRIPOS>MOLECULE
mol_data/opt/cam/geoms/mol2/4ie4ie-4ie-4ie-.out
 62 65 0 0 0
SMALL
GASTEIGER

@<TRIPOS>ATOM
      1 C          -0.0923    2.3176    0.9058 C.ar    1  LIG1       -0.0498
      2 C           1.2931    2.1879    0.8339 C.ar    1  LIG1       -0.0499
      3 C          -0.8717    1.5137    0.0743 C.ar    1  LIG1       -0.0576
      4 C           1.9139    1.2889   -0.0316 C.ar    1  LIG1       -0.0020
      5 H           1.9191    2.8103    1.4668 H       1  LIG1        0.0627
      6 C          -0.2811    0.6061   -0.7882 C.ar    1  LIG1       -0.0455
      7 C           1.1109    0.4775   -0.8534 C.ar    1  LIG1        0.0324
      8 H          -0.8940   -0.0221   -1.4252 H       1  LIG1        0.0630
      9 H          -1.9540    1.5983    0.1049 H       1  LIG1        0.0621
     10 C          -0.7296    3.2805    1.8712 C.3     1  LIG1       -0.0397
     11 H          -0.0477    4.0921    2.1344 H       1  LIG1        0.0278
     12 H          -1.0113    2.7741    2.8006 H       1  LIG1        0.0278
     13 H          -1.6382    3.7210    1.4533 H       1  LIG1        0.0278
     14 C           1.6826   -0.4912   -1.7409 C.1     1  LIG1       -0.0691
     15 C           2.1356   -1.3135   -2.4949 C.1     1  LIG1       -0.1139
     16 H           2.5451   -2.0457   -3.1521 H       1  LIG1        0.1232
     17 C           4.1752    1.6707   -1.1106 C.ar    1  LIG1       -0.0421
     18 C           5.5615    1.5694   -1.0215 C.ar    1  LIG1       -0.0494
     19 C           3.4027    1.1952   -0.0383 C.ar    1  LIG1       -0.0126
     20 C           6.2129    1.0231    0.0821 C.ar    1  LIG1       -0.0019
     21 H           6.1673    1.9425   -1.8419 H       1  LIG1        0.0627
     22 C           4.0397    0.6518    1.0713 C.ar    1  LIG1       -0.0377
     23 C           5.4319    0.5512    1.1499 C.ar    1  LIG1        0.0330
     24 H           3.4427    0.2798    1.8968 H       1  LIG1        0.0636
     25 C           3.5434    2.2899   -2.3278 C.3     1  LIG1       -0.0391
     26 H           2.7761    3.0181   -2.0523 H       1  LIG1        0.0278
     27 H           3.0596    1.5282   -2.9455 H       1  LIG1        0.0278
     28 H           4.2928    2.7961   -2.9394 H       1  LIG1        0.0278
     29 C           6.0217   -0.0520    2.3080 C.1     1  LIG1       -0.0690
     30 C           6.4907   -0.5630    3.2925 C.1     1  LIG1       -0.1139
     31 H           6.9117   -1.0239    4.1560 H       1  LIG1        0.1232
     32 C           8.4968    1.7441    0.9111 C.ar    1  LIG1       -0.0421
     33 C           9.8811    1.6143    0.8285 C.ar    1  LIG1       -0.0494
     34 C           7.7014    0.9352    0.0831 C.ar    1  LIG1       -0.0126
     35 C          10.5093    0.7194   -0.0344 C.ar    1  LIG1       -0.0019
     36 H          10.5039    2.2377    1.4632 H       1  LIG1        0.0627
     37 C           8.3157    0.0546   -0.8001 C.ar    1  LIG1       -0.0377
     38 C           9.7061   -0.0700   -0.8740 C.ar    1  LIG1        0.0330
     39 H           7.7019   -0.5574   -1.4520 H       1  LIG1        0.0636
     40 C           7.8920    2.7420    1.8612 C.3     1  LIG1       -0.0391
     41 H           7.4411    2.2388    2.7212 H       1  LIG1        0.0278
     42 H           7.1042    3.3254    1.3779 H       1  LIG1        0.0278
     43 H           8.6513    3.4329    2.2330 H       1  LIG1        0.0278
     44 C          10.2740   -0.9797   -1.8243 C.1     1  LIG1       -0.0690
     45 C          10.7252   -1.7500   -2.6325 C.1     1  LIG1       -0.1139
     46 H          11.1337   -2.4225   -3.3509 H       1  LIG1        0.1232
     47 C          12.7063   -0.4483    0.4349 C.ar    1  LIG1       -0.0426
     48 C          14.0997   -0.4156    0.3946 C.ar    1  LIG1       -0.0571
     49 C          11.9993    0.6583   -0.0668 C.ar    1  LIG1       -0.0126
     50 C          14.7924    0.6683   -0.1206 C.ar    1  LIG1       -0.0461
     51 H          14.6550   -1.2631    0.7854 H       1  LIG1        0.0621
     52 C          12.6956    1.7523   -0.5718 C.ar    1  LIG1       -0.0383
     53 C          14.0926    1.7732   -0.6102 C.ar    1  LIG1        0.0253
     54 H          12.1433    2.6048   -0.9519 H       1  LIG1        0.0636
     55 H          15.8765    0.6697   -0.1407 H       1  LIG1        0.0630
     56 C          11.9973   -1.6413    1.0171 C.3     1  LIG1       -0.0391
     57 H          11.5377   -2.2457    0.2299 H       1  LIG1        0.0278
     58 H          11.1987   -1.3388    1.6992 H       1  LIG1        0.0278
     59 H          12.6954   -2.2763    1.5666 H       1  LIG1        0.0278
     60 C          14.7888    2.9077   -1.1389 C.1     1  LIG1       -0.0696
     61 C          15.3753    3.8613   -1.5822 C.1     1  LIG1       -0.1139
     62 H          15.8936    4.7049   -1.9755 H       1  LIG1        0.1232
@<TRIPOS>BOND
     1    46    45    1
     2    16    15    1
     3    27    25    1
     4    28    25    1
     5    45    44    3
     6    15    14    3
     7    25    26    1
     8    25    17    1
     9    62    61    1
    10    21    18    1
    11    44    38    1
    12    14     7    1
    13    61    60    3
    14    39    37    1
    15     8     6    1
    16    60    53    1
    17    17    18   ar
    18    17    19   ar
    19    18    20   ar
    20    54    52    1
    21    38    37   ar
    22    38    35   ar
    23     7     6   ar
    24     7     4   ar
    25    37    34   ar
    26     6     3   ar
    27    53    52   ar
    28    53    50   ar
    29    52    49   ar
    30    55    50    1
    31    50    48   ar
    32    49    35    1
    33    49    47   ar
    34    19     4    1
    35    19    22   ar
    36    35    33   ar
    37     4     2   ar
    38     3     9    1
    39     3     1   ar
    40    20    34    1
    41    20    23   ar
    42    34    32   ar
    43    57    56    1
    44    48    47   ar
    45    48    51    1
    46    47    56    1
    47    33    32   ar
    48    33    36    1
    49     2     1   ar
    50     2     5    1
    51     1    10    1
    52    32    40    1
    53    56    59    1
    54    56    58    1
    55    22    23   ar
    56    22    24    1
    57    23    29    1
    58    42    40    1
    59    13    10    1
    60    40    43    1
    61    40    41    1
    62    10    11    1
    63    10    12    1
    64    29    30    3
    65    30    31    1
