@<TRIPOS>MOLECULE
mol_data/opt/cam/geoms/mol2/4ie4ie-4ie-4ie.out
 62 65 0 0 0
SMALL
GASTEIGER

@<TRIPOS>ATOM
      1 C          -0.1845    0.1539    0.4648 C.ar    1  LIG1       -0.0498
      2 C           1.2071    0.1831    0.4130 C.ar    1  LIG1       -0.0499
      3 C          -0.8810    1.2973    0.0725 C.ar    1  LIG1       -0.0576
      4 C           1.9142    1.3032   -0.0219 C.ar    1  LIG1       -0.0020
      5 H           1.7693   -0.6953    0.7164 H       1  LIG1        0.0627
      6 C          -0.2038    2.4259   -0.3551 C.ar    1  LIG1       -0.0455
      7 C           1.1949    2.4483   -0.4080 C.ar    1  LIG1        0.0324
      8 H          -0.7516    3.3151   -0.6471 H       1  LIG1        0.0630
      9 H          -1.9664    1.3047    0.1080 H       1  LIG1        0.0621
     10 C          -0.9177   -1.0830    0.9095 C.3     1  LIG1       -0.0397
     11 H          -0.2692   -1.7457    1.4863 H       1  LIG1        0.0278
     12 H          -1.2875   -1.6506    0.0490 H       1  LIG1        0.0278
     13 H          -1.7833   -0.8312    1.5276 H       1  LIG1        0.0278
     14 C           1.8586    3.6470   -0.8270 C.1     1  LIG1       -0.0691
     15 C           2.3884    4.6682   -1.1830 C.1     1  LIG1       -0.1139
     16 H           2.8646    5.5713   -1.4882 H       1  LIG1        0.1232
     17 C           4.1434    1.2175   -1.2242 C.ar    1  LIG1       -0.0421
     18 C           5.5321    1.1525   -1.1396 C.ar    1  LIG1       -0.0494
     19 C           3.4052    1.2633   -0.0303 C.ar    1  LIG1       -0.0126
     20 C           6.2185    1.1335    0.0723 C.ar    1  LIG1       -0.0019
     21 H           6.1109    1.1139   -2.0577 H       1  LIG1        0.0627
     22 C           4.0762    1.2219    1.1865 C.ar    1  LIG1       -0.0377
     23 C           5.4708    1.1590    1.2611 C.ar    1  LIG1        0.0330
     24 H           3.5053    1.2399    2.1085 H       1  LIG1        0.0636
     25 C           3.4726    1.2245   -2.5712 C.3     1  LIG1       -0.0391
     26 H           3.0769    2.2169   -2.8050 H       1  LIG1        0.0278
     27 H           2.6326    0.5259   -2.6020 H       1  LIG1        0.0278
     28 H           4.1780    0.9474   -3.3572 H       1  LIG1        0.0278
     29 C           6.0967    1.0926    2.5482 C.1     1  LIG1       -0.0690
     30 C           6.5972    1.0355    3.6419 C.1     1  LIG1       -0.1139
     31 H           7.0479    0.9759    4.6057 H       1  LIG1        0.1232
     32 C           8.5185    2.1233    0.4616 C.ar    1  LIG1       -0.0421
     33 C           9.9010    1.9646    0.4011 C.ar    1  LIG1       -0.0494
     34 C           7.7071    1.0462    0.0686 C.ar    1  LIG1       -0.0126
     35 C          10.5121    0.7913   -0.0348 C.ar    1  LIG1       -0.0019
     36 H          10.5362    2.7949    0.6952 H       1  LIG1        0.0627
     37 C           8.3036   -0.1290   -0.3738 C.ar    1  LIG1       -0.0377
     38 C           9.6924   -0.2795   -0.4280 C.ar    1  LIG1        0.0330
     39 H           7.6771   -0.9624   -0.6726 H       1  LIG1        0.0636
     40 C           7.9321    3.4292    0.9253 C.3     1  LIG1       -0.0391
     41 H           7.5116    3.3326    1.9302 H       1  LIG1        0.0278
     42 H           7.1240    3.7599    0.2679 H       1  LIG1        0.0278
     43 H           8.6953    4.2095    0.9513 H       1  LIG1        0.0278
     44 C          10.2411   -1.5301   -0.8612 C.1     1  LIG1       -0.0690
     45 C          10.6764   -2.5909   -1.2292 C.1     1  LIG1       -0.1139
     46 H          11.0705   -3.5300   -1.5422 H       1  LIG1        0.1232
     47 C          12.7356    0.6953   -1.2436 C.ar    1  LIG1       -0.0426
     48 C          14.1267    0.6386   -1.1661 C.ar    1  LIG1       -0.0571
     49 C          12.0011    0.7022   -0.0453 C.ar    1  LIG1       -0.0126
     50 C          14.7910    0.5905    0.0490 C.ar    1  LIG1       -0.0461
     51 H          14.7032    0.6392   -2.0864 H       1  LIG1        0.0621
     52 C          12.6692    0.6673    1.1751 C.ar    1  LIG1       -0.0383
     53 C          14.0641    0.6074    1.2412 C.ar    1  LIG1        0.0253
     54 H          12.0956    0.6786    2.0954 H       1  LIG1        0.0636
     55 H          15.8739    0.5469    0.0831 H       1  LIG1        0.0630
     56 C          12.0583    0.7607   -2.5860 C.3     1  LIG1       -0.0391
     57 H          12.7811    0.9821   -3.3740 H       1  LIG1        0.0278
     58 H          11.2834    1.5313   -2.6058 H       1  LIG1        0.0278
     59 H          11.5753   -0.1905   -2.8272 H       1  LIG1        0.0278
     60 C          14.7309    0.5675    2.5081 C.1     1  LIG1       -0.0696
     61 C          15.2927    0.5348    3.5726 C.1     1  LIG1       -0.1139
     62 H          15.7889    0.5046    4.5149 H       1  LIG1        0.1232
@<TRIPOS>BOND
     1    57    56    1
     2    28    25    1
     3    59    56    1
     4    26    25    1
     5    58    56    1
     6    27    25    1
     7    56    47    1
     8    25    17    1
     9    51    48    1
    10    21    18    1
    11    46    45    1
    12    16    15    1
    13    47    48   ar
    14    47    49   ar
    15    45    44    3
    16    17    18   ar
    17    17    19   ar
    18    15    14    3
    19    48    50   ar
    20    18    20   ar
    21    44    38    1
    22    14     7    1
    23    39    37    1
    24     8     6    1
    25    38    37   ar
    26    38    35   ar
    27     7     6   ar
    28     7     4   ar
    29    37    34   ar
    30     6     3   ar
    31    49    35    1
    32    49    52   ar
    33    35    33   ar
    34    19     4    1
    35    19    22   ar
    36     4     2   ar
    37    12    10    1
    38    50    55    1
    39    50    53   ar
    40    34    20    1
    41    34    32   ar
    42    20    23   ar
    43     3     9    1
    44     3     1   ar
    45    42    40    1
    46    33    32   ar
    47    33    36    1
    48     2     1   ar
    49     2     5    1
    50    32    40    1
    51     1    10    1
    52    10    11    1
    53    10    13    1
    54    40    43    1
    55    40    41    1
    56    52    53   ar
    57    52    54    1
    58    22    23   ar
    59    22    24    1
    60    53    60    1
    61    23    29    1
    62    60    61    3
    63    29    30    3
    64    61    62    1
    65    30    31    1
