@<TRIPOS>MOLECULE
mol_data/opt/cam/geoms/mol2/4ie4ie4ie-4ie.out
 62 65 0 0 0
SMALL
GASTEIGER

@<TRIPOS>ATOM
      1 C          -0.1454    1.4182   -1.2562 C.ar    1  LIG1       -0.0498
      2 C           1.2439    1.3731   -1.1699 C.ar    1  LIG1       -0.0499
      3 C          -0.8839    1.1874   -0.0951 C.ar    1  LIG1       -0.0576
      4 C           1.9088    1.1080    0.0265 C.ar    1  LIG1       -0.0020
      5 H           1.8382    1.5429   -2.0630 H       1  LIG1        0.0627
      6 C          -0.2490    0.9312    1.1076 C.ar    1  LIG1       -0.0455
      7 C           1.1480    0.8896    1.1886 C.ar    1  LIG1        0.0324
      8 H          -0.8295    0.7621    2.0077 H       1  LIG1        0.0630
      9 H          -1.9690    1.2114   -0.1341 H       1  LIG1        0.0621
     10 C          -0.8327    1.7263   -2.5593 C.3     1  LIG1       -0.0397
     11 H          -0.1580    1.5943   -3.4077 H       1  LIG1        0.0278
     12 H          -1.1899    2.7613   -2.5792 H       1  LIG1        0.0278
     13 H          -1.7018    1.0810   -2.7126 H       1  LIG1        0.0278
     14 C           1.7677    0.6463    2.4572 C.1     1  LIG1       -0.0691
     15 C           2.2614    0.4406    3.5362 C.1     1  LIG1       -0.1139
     16 H           2.7073    0.2697    4.4888 H       1  LIG1        0.1232
     17 C           4.1320   -0.0974    0.1876 C.ar    1  LIG1       -0.0421
     18 C           5.5226   -0.0251    0.1590 C.ar    1  LIG1       -0.0494
     19 C           3.4004    1.0924    0.0414 C.ar    1  LIG1       -0.0126
     20 C           6.2167    1.1705   -0.0115 C.ar    1  LIG1       -0.0019
     21 H           6.0964   -0.9413    0.2623 H       1  LIG1        0.0627
     22 C           4.0800    2.2924   -0.1335 C.ar    1  LIG1       -0.0377
     23 C           5.4765    2.3553   -0.1571 C.ar    1  LIG1        0.0330
     24 H           3.5151    3.2120   -0.2406 H       1  LIG1        0.0636
     25 C           3.4522   -1.4290    0.3588 C.3     1  LIG1       -0.0391
     26 H           4.1612   -2.2475    0.2198 H       1  LIG1        0.0278
     27 H           2.6364   -1.5558   -0.3574 H       1  LIG1        0.0278
     28 H           3.0209   -1.5202    1.3597 H       1  LIG1        0.0278
     29 C           6.1142    3.6295   -0.3069 C.1     1  LIG1       -0.0690
     30 C           6.6252    4.7124   -0.4342 C.1     1  LIG1       -0.1139
     31 H           7.0856    5.6682   -0.5346 H       1  LIG1        0.1232
     32 C           8.4580    1.3798   -1.1756 C.ar    1  LIG1       -0.0421
     33 C           9.8469    1.3220   -1.0886 C.ar    1  LIG1       -0.0494
     34 C           7.7079    1.1577   -0.0092 C.ar    1  LIG1       -0.0126
     35 C          10.5220    1.0499    0.0991 C.ar    1  LIG1       -0.0019
     36 H          10.4350    1.4845   -1.9869 H       1  LIG1        0.0627
     37 C           8.3684    0.8799    1.1821 C.ar    1  LIG1       -0.0377
     38 C           9.7633    0.8271    1.2599 C.ar    1  LIG1        0.0330
     39 H           7.7890    0.7131    2.0835 H       1  LIG1        0.0636
     40 C           7.7991    1.6607   -2.4990 C.3     1  LIG1       -0.0391
     41 H           7.3870    2.6735   -2.5219 H       1  LIG1        0.0278
     42 H           6.9724    0.9707   -2.6869 H       1  LIG1        0.0278
     43 H           8.5161    1.5682   -3.3171 H       1  LIG1        0.0278
     44 C          10.3812    0.5688    2.5266 C.1     1  LIG1       -0.0690
     45 C          10.8752    0.3497    3.6027 C.1     1  LIG1       -0.1139
     46 H          11.3214    0.1682    4.5531 H       1  LIG1        0.1232
     47 C          12.7385   -0.1671    0.2391 C.ar    1  LIG1       -0.0426
     48 C          14.1310   -0.1040    0.2047 C.ar    1  LIG1       -0.0571
     49 C          12.0136    1.0295    0.1044 C.ar    1  LIG1       -0.0126
     50 C          14.8057    1.0954    0.0424 C.ar    1  LIG1       -0.0461
     51 H          14.6998   -1.0240    0.3017 H       1  LIG1        0.0621
     52 C          12.6913    2.2322   -0.0716 C.ar    1  LIG1       -0.0383
     53 C          14.0877    2.2846   -0.1012 C.ar    1  LIG1        0.0253
     54 H          12.1247    3.1505   -0.1802 H       1  LIG1        0.0636
     55 H          15.8895    1.1186    0.0188 H       1  LIG1        0.0630
     56 C          12.0484   -1.4944    0.4045 C.3     1  LIG1       -0.0391
     57 H          12.7505   -2.3173    0.2554 H       1  LIG1        0.0278
     58 H          11.2282   -1.6103   -0.3086 H       1  LIG1        0.0278
     59 H          11.6216   -1.5908    1.4070 H       1  LIG1        0.0278
     60 C          14.7650    3.5340   -0.2789 C.1     1  LIG1       -0.0696
     61 C          15.3358    4.5834   -0.4292 C.1     1  LIG1       -0.1139
     62 H          15.8401    5.5127   -0.5607 H       1  LIG1        0.1232
@<TRIPOS>BOND
     1    11    10    1
     2    43    40    1
     3    13    10    1
     4    42    40    1
     5    12    10    1
     6    10     1    1
     7    41    40    1
     8    40    32    1
     9     5     2    1
    10    36    33    1
    11     1     2   ar
    12     1     3   ar
    13    32    33   ar
    14    32    34   ar
    15     2     4   ar
    16    33    35   ar
    17    62    61    1
    18    31    30    1
    19    30    29    3
    20    61    60    3
    21    27    25    1
    22    58    56    1
    23    29    23    1
    24    60    53    1
    25    24    22    1
    26    54    52    1
    27    23    22   ar
    28    23    20   ar
    29     9     3    1
    30    22    19   ar
    31    53    52   ar
    32    53    50   ar
    33     3     6   ar
    34    52    49   ar
    35    20    34    1
    36    20    18   ar
    37    34    37   ar
    38    55    50    1
    39     4    19    1
    40     4     7   ar
    41    19    17   ar
    42    50    48   ar
    43    35    49    1
    44    35    38   ar
    45    49    47   ar
    46    18    17   ar
    47    18    21    1
    48    17    25    1
    49    48    47   ar
    50    48    51    1
    51    26    25    1
    52    47    56    1
    53    57    56    1
    54    25    28    1
    55    56    59    1
    56     6     7   ar
    57     6     8    1
    58    37    38   ar
    59    37    39    1
    60     7    14    1
    61    38    44    1
    62    14    15    3
    63    44    45    3
    64    15    16    1
    65    45    46    1
