@<TRIPOS>MOLECULE
mol_data/opt/cam/geoms/mol2/4ie4ie-4ie.out
 47 49 0 0 0
SMALL
GASTEIGER

@<TRIPOS>ATOM
      1 C          -0.0790    0.1465   -0.5613 C.ar    1  LIG1       -0.0498
      2 C           1.3132    0.1808   -0.5266 C.ar    1  LIG1       -0.0499
      3 C          -0.7760    1.2540   -0.0780 C.ar    1  LIG1       -0.0576
      4 C           2.0205    1.2783   -0.0382 C.ar    1  LIG1       -0.0020
      5 H           1.8755   -0.6724   -0.8947 H       1  LIG1        0.0627
      6 C          -0.0988    2.3533    0.4204 C.ar    1  LIG1       -0.0455
      7 C           1.3003    2.3835    0.4497 C.ar    1  LIG1        0.0324
      8 H          -0.6475    3.2056    0.8056 H       1  LIG1        0.0630
      9 H          -1.8620    1.2520   -0.0873 H       1  LIG1        0.0621
     10 C          -0.8104   -1.0420   -1.1252 C.3     1  LIG1       -0.0397
     11 H          -0.1820   -1.9352   -1.1226 H       1  LIG1        0.0278
     12 H          -1.1178   -0.8587   -2.1603 H       1  LIG1        0.0278
     13 H          -1.7151   -1.2606   -0.5523 H       1  LIG1        0.0278
     14 C           1.9631    3.5271    1.0024 C.1     1  LIG1       -0.0691
     15 C           2.4930    4.5008    1.4728 C.1     1  LIG1       -0.1139
     16 H           2.9709    5.3538    1.8964 H       1  LIG1        0.1232
     17 C           4.2957    2.0114   -0.8801 C.ar    1  LIG1       -0.0421
     18 C           5.6809    1.8834   -0.8112 C.ar    1  LIG1       -0.0494
     19 C           3.5113    1.2313   -0.0150 C.ar    1  LIG1       -0.0126
     20 C           6.3198    1.0158    0.0715 C.ar    1  LIG1       -0.0019
     21 H           6.2952    2.4765   -1.4822 H       1  LIG1        0.0627
     22 C           4.1354    0.3578    0.8682 C.ar    1  LIG1       -0.0377
     23 C           5.5269    0.2388    0.9320 C.ar    1  LIG1        0.0330
     24 H           3.5297   -0.2406    1.5400 H       1  LIG1        0.0636
     25 C           3.6771    2.9576   -1.8735 C.3     1  LIG1       -0.0391
     26 H           4.4177    3.2943   -2.6016 H       1  LIG1        0.0278
     27 H           3.2706    3.8395   -1.3705 H       1  LIG1        0.0278
     28 H           2.8532    2.4855   -2.4148 H       1  LIG1        0.0278
     29 C           6.1065   -0.6566    1.8886 C.1     1  LIG1       -0.0690
     30 C           6.5681   -1.4165    2.7007 C.1     1  LIG1       -0.1139
     31 H           6.9858   -2.0775    3.4246 H       1  LIG1        0.1232
     32 C           8.5169   -0.1494   -0.4060 C.ar    1  LIG1       -0.0426
     33 C           9.9105   -0.1118   -0.3786 C.ar    1  LIG1       -0.0571
     34 C           7.8104    0.9592    0.0912 C.ar    1  LIG1       -0.0126
     35 C          10.6037    0.9795    0.1203 C.ar    1  LIG1       -0.0461
     36 H          10.4653   -0.9611   -0.7661 H       1  LIG1        0.0621
     37 C           8.5069    2.0604    0.5801 C.ar    1  LIG1       -0.0383
     38 C           9.9042    2.0863    0.6060 C.ar    1  LIG1        0.0253
     39 H           7.9546    2.9143    0.9568 H       1  LIG1        0.0636
     40 H          11.6879    0.9851    0.1309 H       1  LIG1        0.0630
     41 C           7.8064   -1.3505   -0.9697 C.3     1  LIG1       -0.0391
     42 H           7.0061   -1.0570   -1.6539 H       1  LIG1        0.0278
     43 H           7.3495   -1.9442   -0.1727 H       1  LIG1        0.0278
     44 H           8.5026   -1.9928   -1.5130 H       1  LIG1        0.0278
     45 C          10.6009    3.2282    1.1177 C.1     1  LIG1       -0.0696
     46 C          11.1880    4.1880    1.5465 C.1     1  LIG1       -0.1139
     47 H          11.7067    5.0371    1.9274 H       1  LIG1        0.1232
@<TRIPOS>BOND
     1    26    25    1
     2    28    25    1
     3    12    10    1
     4    25    27    1
     5    25    17    1
     6    42    41    1
     7    44    41    1
     8    21    18    1
     9    10    11    1
    10    10     1    1
    11    10    13    1
    12    41    32    1
    13    41    43    1
    14     5     2    1
    15    17    18   ar
    16    17    19   ar
    17    18    20   ar
    18    36    33    1
    19     1     2   ar
    20     1     3   ar
    21     2     4   ar
    22    32    33   ar
    23    32    34   ar
    24    33    35   ar
    25     9     3    1
    26     3     6   ar
    27     4    19    1
    28     4     7   ar
    29    19    22   ar
    30    20    34    1
    31    20    23   ar
    32    34    37   ar
    33    35    40    1
    34    35    38   ar
    35     6     7   ar
    36     6     8    1
    37     7    14    1
    38    37    38   ar
    39    37    39    1
    40    38    45    1
    41    22    23   ar
    42    22    24    1
    43    23    29    1
    44    14    15    3
    45    45    46    3
    46    15    16    1
    47    46    47    1
    48    29    30    3
    49    30    31    1
