@<TRIPOS>MOLECULE
mol_data/opt/cam/geoms/mol2/4ie4ie-.out
 32 33 0 0 0
SMALL
GASTEIGER

@<TRIPOS>ATOM
      1 C          -0.0048    0.2777    0.5884 C.ar    1  LIG1       -0.0498
      2 C           1.3879    0.2994    0.6095 C.ar    1  LIG1       -0.0499
      3 C          -0.6671    1.2788   -0.1223 C.ar    1  LIG1       -0.0576
      4 C           2.1290    1.2781   -0.0510 C.ar    1  LIG1       -0.0020
      5 H           1.9237   -0.4659    1.1636 H       1  LIG1        0.0627
      6 C           0.0443    2.2573   -0.7947 C.ar    1  LIG1       -0.0455
      7 C           1.4438    2.2719   -0.7727 C.ar    1  LIG1        0.0324
      8 H          -0.4772    3.0270   -1.3528 H       1  LIG1        0.0630
      9 H          -1.7527    1.2898   -0.1509 H       1  LIG1        0.0621
     10 C          -0.7733   -0.8076    1.2934 C.3     1  LIG1       -0.0397
     11 H          -0.1715   -1.2820    2.0715 H       1  LIG1        0.0278
     12 H          -1.0793   -1.5904    0.5911 H       1  LIG1        0.0278
     13 H          -1.6817   -0.4150    1.7573 H       1  LIG1        0.0278
     14 C           2.1433    3.2870   -1.5028 C.1     1  LIG1       -0.0691
     15 C           2.7044    4.1511   -2.1261 C.1     1  LIG1       -0.1139
     16 H           3.2108    4.9054   -2.6830 H       1  LIG1        0.1232
     17 C           4.3673    2.1546    0.7463 C.ar    1  LIG1       -0.0426
     18 C           5.7546    2.0170    0.7719 C.ar    1  LIG1       -0.0571
     19 C           3.6192    1.2236    0.0052 C.ar    1  LIG1       -0.0126
     20 C           6.4018    0.9965    0.0938 C.ar    1  LIG1       -0.0461
     21 H           6.3411    2.7277    1.3465 H       1  LIG1        0.0621
     22 C           4.2685    0.1912   -0.6650 C.ar    1  LIG1       -0.0383
     23 C           5.6601    0.0643   -0.6348 C.ar    1  LIG1        0.0253
     24 H           3.6840   -0.5268   -1.2298 H       1  LIG1        0.0636
     25 H           7.4821    0.9106    0.1294 H       1  LIG1        0.0630
     26 C           3.7060    3.2701    1.5102 C.3     1  LIG1       -0.0391
     27 H           2.8508    2.9079    2.0864 H       1  LIG1        0.0278
     28 H           3.3347    4.0429    0.8311 H       1  LIG1        0.0278
     29 H           4.4106    3.7378    2.2010 H       1  LIG1        0.0278
     30 C           6.3080   -1.0038   -1.3353 C.1     1  LIG1       -0.0696
     31 C           6.8536   -1.9020   -1.9229 C.1     1  LIG1       -0.1139
     32 H           7.3357   -2.6962   -2.4443 H       1  LIG1        0.1232
@<TRIPOS>BOND
     1    16    15    1
     2    32    31    1
     3    15    14    3
     4    31    30    3
     5    14     7    1
     6     8     6    1
     7    30    23    1
     8    24    22    1
     9     6     7   ar
    10     6     3   ar
    11     7     4   ar
    12    22    23   ar
    13    22    19   ar
    14    23    20   ar
    15     9     3    1
    16     3     1   ar
    17     4    19    1
    18     4     2   ar
    19    19    17   ar
    20    20    25    1
    21    20    18   ar
    22     1     2   ar
    23     1    10    1
    24    12    10    1
    25     2     5    1
    26    17    18   ar
    27    17    26    1
    28    18    21    1
    29    28    26    1
    30    10    13    1
    31    10    11    1
    32    26    27    1
    33    26    29    1
