@<TRIPOS>MOLECULE
mol_data/opt/cam/geoms/mol2/4ie4ie-4ie4ie-.out
 62 65 0 0 0
SMALL
GASTEIGER

@<TRIPOS>ATOM
      1 C          -0.1855    0.2583   -0.7190 C.ar    1  LIG1       -0.0498
      2 C           1.2068    0.2898   -0.6821 C.ar    1  LIG1       -0.0499
      3 C          -0.8836    1.2588   -0.0427 C.ar    1  LIG1       -0.0576
      4 C           1.9127    1.2837   -0.0061 C.ar    1  LIG1       -0.0020
      5 H           1.7702   -0.4816   -1.1990 H       1  LIG1        0.0627
      6 C          -0.2076    2.2526    0.6438 C.ar    1  LIG1       -0.0455
      7 C           1.1914    2.2810    0.6746 C.ar    1  LIG1        0.0324
      8 H          -0.7573    3.0200    1.1775 H       1  LIG1        0.0630
      9 H          -1.9696    1.2555   -0.0497 H       1  LIG1        0.0621
     10 C          -0.9158   -0.8113   -1.4858 C.3     1  LIG1       -0.0397
     11 H          -0.2879   -1.6915   -1.6395 H       1  LIG1        0.0278
     12 H          -1.2202   -0.4476   -2.4731 H       1  LIG1        0.0278
     13 H          -1.8221   -1.1268   -0.9629 H       1  LIG1        0.0278
     14 C           1.8534    3.3082    1.4225 C.1     1  LIG1       -0.0691
     15 C           2.3828    4.1826    2.0591 C.1     1  LIG1       -0.1139
     16 H           2.8599    4.9465    2.6286 H       1  LIG1        0.1232
     17 C           4.1823    2.1634   -0.7107 C.ar    1  LIG1       -0.0421
     18 C           5.5681    2.0289   -0.6721 C.ar    1  LIG1       -0.0494
     19 C           3.4037    1.2381    0.0034 C.ar    1  LIG1       -0.0126
     20 C           6.2127    1.0184    0.0375 C.ar    1  LIG1       -0.0019
     21 H           6.1779    2.7345   -1.2285 H       1  LIG1        0.0627
     22 C           4.0336    0.2220    0.7127 C.ar    1  LIG1       -0.0377
     23 C           5.4256    0.0974    0.7482 C.ar    1  LIG1        0.0330
     24 H           3.4324   -0.4890    1.2687 H       1  LIG1        0.0636
     25 C           3.5572    3.2715   -1.5144 C.3     1  LIG1       -0.0391
     26 H           3.1578    4.0506   -0.8589 H       1  LIG1        0.0278
     27 H           2.7270    2.9041   -2.1229 H       1  LIG1        0.0278
     28 H           4.2919    3.7315   -2.1782 H       1  LIG1        0.0278
     29 C           6.0117   -0.9532    1.5263 C.1     1  LIG1       -0.0690
     30 C           6.4789   -1.8448    2.1872 C.1     1  LIG1       -0.1139
     31 H           6.9009   -2.6238    2.7793 H       1  LIG1        0.1232
     32 C           8.4131   -0.0384   -0.6437 C.ar    1  LIG1       -0.0421
     33 C           9.8050    0.0006   -0.6116 C.ar    1  LIG1       -0.0494
     34 C           7.7030    0.9619    0.0402 C.ar    1  LIG1       -0.0126
     35 C          10.5209    0.9870    0.0626 C.ar    1  LIG1       -0.0019
     36 H          10.3626   -0.7642   -1.1441 H       1  LIG1        0.0627
     37 C           8.4047    1.9557    0.7130 C.ar    1  LIG1       -0.0377
     38 C           9.8022    1.9843    0.7420 C.ar    1  LIG1        0.0330
     39 H           7.8560    2.7251    1.2449 H       1  LIG1        0.0636
     40 C           7.7091   -1.1259   -1.4093 C.3     1  LIG1       -0.0391
     41 H           8.4071   -1.6575   -2.0592 H       1  LIG1        0.0278
     42 H           6.9042   -0.7207   -2.0279 H       1  LIG1        0.0278
     43 H           7.2589   -1.8533   -0.7279 H       1  LIG1        0.0278
     44 C          10.4626    3.0178    1.4827 C.1     1  LIG1       -0.0690
     45 C          10.9927    3.8970    2.1121 C.1     1  LIG1       -0.1139
     46 H          11.4703    4.6643    2.6764 H       1  LIG1        0.1232
     47 C          12.7844    1.8617   -0.6625 C.ar    1  LIG1       -0.0426
     48 C          14.1722    1.7291   -0.6344 C.ar    1  LIG1       -0.0571
     49 C          12.0119    0.9378    0.0623 C.ar    1  LIG1       -0.0126
     50 C          14.7969    0.7206    0.0816 C.ar    1  LIG1       -0.0461
     51 H          14.7774    2.4343   -1.1963 H       1  LIG1        0.0621
     52 C          12.6392   -0.0827    0.7708 C.ar    1  LIG1       -0.0383
     53 C          14.0314   -0.2043    0.7948 C.ar    1  LIG1        0.0253
     54 H          12.0360   -0.7948    1.3231 H       1  LIG1        0.0636
     55 H          15.8781    0.6384    0.0879 H       1  LIG1        0.0630
     56 C          12.1491    2.9652   -1.4649 C.3     1  LIG1       -0.0391
     57 H          11.7534    3.7467   -0.8099 H       1  LIG1        0.0278
     58 H          11.3150    2.5937   -2.0655 H       1  LIG1        0.0278
     59 H          12.8773    3.4240   -2.1370 H       1  LIG1        0.0278
     60 C          14.6565   -1.2597    1.5343 C.1     1  LIG1       -0.0696
     61 C          15.1834   -2.1469    2.1546 C.1     1  LIG1       -0.1139
     62 H          15.6489   -2.9315    2.7051 H       1  LIG1        0.1232
@<TRIPOS>BOND
     1    12    10    1
     2    28    25    1
     3    59    56    1
     4    27    25    1
     5    58    56    1
     6    41    40    1
     7    42    40    1
     8    11    10    1
     9    25    26    1
    10    25    17    1
    11    10    13    1
    12    10     1    1
    13    56    57    1
    14    56    47    1
    15    40    43    1
    16    40    32    1
    17    21    18    1
    18     5     2    1
    19    51    48    1
    20    36    33    1
    21     1     2   ar
    22     1     3   ar
    23    17    18   ar
    24    17    19   ar
    25     2     4   ar
    26    18    20   ar
    27    47    48   ar
    28    47    49   ar
    29    32    33   ar
    30    32    34   ar
    31    48    50   ar
    32    33    35   ar
    33     9     3    1
    34     3     6   ar
    35     4    19    1
    36     4     7   ar
    37    19    22   ar
    38    20    34    1
    39    20    23   ar
    40    34    37   ar
    41    49    35    1
    42    49    52   ar
    43    35    38   ar
    44    50    55    1
    45    50    53   ar
    46     6     7   ar
    47     6     8    1
    48     7    14    1
    49    22    23   ar
    50    22    24    1
    51    37    38   ar
    52    37    39    1
    53    38    44    1
    54    23    29    1
    55    52    53   ar
    56    52    54    1
    57    53    60    1
    58    14    15    3
    59    44    45    3
    60    29    30    3
    61    60    61    3
    62    15    16    1
    63    45    46    1
    64    61    62    1
    65    30    31    1
