@<TRIPOS>MOLECULE
mol_data/opt/cam/geoms/mol2/4ie4ie4ie4ie-.out
 62 65 0 0 0
SMALL
GASTEIGER

@<TRIPOS>ATOM
      1 C          -0.1617    1.6492   -1.0077 C.ar    1  LIG1       -0.0498
      2 C           1.2295    1.6175   -0.9420 C.ar    1  LIG1       -0.0499
      3 C          -0.8823    1.0385    0.0187 C.ar    1  LIG1       -0.0576
      4 C           1.9129    0.9939    0.1006 C.ar    1  LIG1       -0.0020
      5 H           1.8101    2.0898   -1.7292 H       1  LIG1        0.0627
      6 C          -0.2288    0.4193    1.0701 C.ar    1  LIG1       -0.0455
      7 C           1.1692    0.3878    1.1292 C.ar    1  LIG1        0.0324
      8 H          -0.7958   -0.0430    1.8706 H       1  LIG1        0.0630
      9 H          -1.9679    1.0533   -0.0038 H       1  LIG1        0.0621
     10 C          -0.8670    2.3030   -2.1654 C.3     1  LIG1       -0.0397
     11 H          -0.2300    3.0434   -2.6542 H       1  LIG1        0.0278
     12 H          -1.7835    2.8028   -1.8419 H       1  LIG1        0.0278
     13 H          -1.1498    1.5626   -2.9213 H       1  LIG1        0.0278
     14 C           1.8071   -0.2361    2.2502 C.1     1  LIG1       -0.0691
     15 C           2.3152   -0.7672    3.2041 C.1     1  LIG1       -0.1139
     16 H           2.7722   -1.2277    4.0495 H       1  LIG1        0.1232
     17 C           4.1724   -0.1299   -0.1321 C.ar    1  LIG1       -0.0421
     18 C           5.5600   -0.0094   -0.1311 C.ar    1  LIG1       -0.0494
     19 C           3.4043    1.0204    0.1110 C.ar    1  LIG1       -0.0126
     20 C           6.2168    1.1965    0.1023 C.ar    1  LIG1       -0.0019
     21 H           6.1620   -0.8933   -0.3204 H       1  LIG1        0.0627
     22 C           4.0462    2.2352    0.3224 C.ar    1  LIG1       -0.0377
     23 C           5.4399    2.3455    0.3241 C.ar    1  LIG1        0.0330
     24 H           3.4527    3.1266    0.4937 H       1  LIG1        0.0636
     25 C           3.5350   -1.4662   -0.4008 C.3     1  LIG1       -0.0391
     26 H           4.2682   -2.1739   -0.7928 H       1  LIG1        0.0278
     27 H           2.7195   -1.3811   -1.1236 H       1  LIG1        0.0278
     28 H           3.1125   -1.8883    0.5154 H       1  LIG1        0.0278
     29 C           6.0362    3.6328    0.5242 C.1     1  LIG1       -0.0690
     30 C           6.5109    4.7266    0.6929 C.1     1  LIG1       -0.1139
     31 H           6.9375    5.6927    0.8341 H       1  LIG1        0.1232
     32 C           8.4725    1.4266    1.2329 C.ar    1  LIG1       -0.0421
     33 C           9.8606    1.4198    1.1173 C.ar    1  LIG1       -0.0494
     34 C           7.7071    1.2352    0.0709 C.ar    1  LIG1       -0.0126
     35 C          10.5205    1.2349   -0.0953 C.ar    1  LIG1       -0.0019
     36 H          10.4608    1.5636    2.0109 H       1  LIG1        0.0627
     37 C           8.3528    1.0267   -1.1425 C.ar    1  LIG1       -0.0377
     38 C           9.7467    1.0245   -1.2486 C.ar    1  LIG1        0.0330
     39 H           7.7618    0.8619   -2.0369 H       1  LIG1        0.0636
     40 C           7.8317    1.6228    2.5801 C.3     1  LIG1       -0.0391
     41 H           8.5648    1.5002    3.3799 H       1  LIG1        0.0278
     42 H           7.0210    0.9084    2.7437 H       1  LIG1        0.0278
     43 H           7.4012    2.6246    2.6654 H       1  LIG1        0.0278
     44 C          10.3476    0.7801   -2.5261 C.1     1  LIG1       -0.0690
     45 C          10.8269    0.5710   -3.6108 C.1     1  LIG1       -0.1139
     46 H          11.2601    0.3775   -4.5649 H       1  LIG1        0.1232
     47 C          12.7490    2.2729   -0.7013 C.ar    1  LIG1       -0.0426
     48 C          14.1411    2.2034   -0.6591 C.ar    1  LIG1       -0.0571
     49 C          12.0119    1.2254   -0.1224 C.ar    1  LIG1       -0.0126
     50 C          14.8036    1.1400   -0.0671 C.ar    1  LIG1       -0.0461
     51 H          14.7193    3.0111   -1.0979 H       1  LIG1        0.0621
     52 C          12.6777    0.1640    0.4834 C.ar    1  LIG1       -0.0383
     53 C          14.0736    0.1027    0.5170 C.ar    1  LIG1        0.0253
     54 H          12.1020   -0.6377    0.9329 H       1  LIG1        0.0636
     55 H          15.8873    1.1090   -0.0471 H       1  LIG1        0.0630
     56 C          12.0724    3.4541   -1.3432 C.3     1  LIG1       -0.0391
     57 H          11.2605    3.8375   -0.7200 H       1  LIG1        0.0278
     58 H          11.6364    3.1783   -2.3076 H       1  LIG1        0.0278
     59 H          12.7855    4.2634   -1.5137 H       1  LIG1        0.0278
     60 C          14.7381   -1.0015    1.1418 C.1     1  LIG1       -0.0696
     61 C          15.2979   -1.9289    1.6675 C.1     1  LIG1       -0.1139
     62 H          15.7924   -2.7505    2.1318 H       1  LIG1        0.1232
@<TRIPOS>BOND
     1    46    45    1
     2    45    44    3
     3    13    10    1
     4    11    10    1
     5    44    38    1
     6    58    56    1
     7    10    12    1
     8    10     1    1
     9    39    37    1
    10     5     2    1
    11    59    56    1
    12    56    57    1
    13    56    47    1
    14    38    37   ar
    15    38    35   ar
    16    37    34   ar
    17    27    25    1
    18    51    48    1
    19     1     2   ar
    20     1     3   ar
    21     2     4   ar
    22    26    25    1
    23    47    48   ar
    24    47    49   ar
    25    48    50   ar
    26    25    17    1
    27    25    28    1
    28    21    18    1
    29    17    18   ar
    30    17    19   ar
    31    18    20   ar
    32    49    35    1
    33    49    52   ar
    34    35    33   ar
    35    50    55    1
    36    50    53   ar
    37     9     3    1
    38     3     6   ar
    39    34    20    1
    40    34    32   ar
    41     4    19    1
    42     4     7   ar
    43    20    23   ar
    44    19    22   ar
    45    22    23   ar
    46    22    24    1
    47    23    29    1
    48    52    53   ar
    49    52    54    1
    50    53    60    1
    51    29    30    3
    52    30    31    1
    53     6     7   ar
    54     6     8    1
    55    33    32   ar
    56    33    36    1
    57     7    14    1
    58    60    61    3
    59    32    40    1
    60    61    62    1
    61    14    15    3
    62    40    43    1
    63    40    42    1
    64    40    41    1
    65    15    16    1
