@<TRIPOS>MOLECULE
mol_data/opt/cam/geoms/mol2/4ie4ie-4ie4ie.out
 62 65 0 0 0
SMALL
GASTEIGER

@<TRIPOS>ATOM
      1 C          -0.1779    0.3731   -0.9091 C.ar    1  LIG1       -0.0498
      2 C           1.2141    0.3989   -0.8554 C.ar    1  LIG1       -0.0499
      3 C          -0.8843    1.2267   -0.0621 C.ar    1  LIG1       -0.0576
      4 C           1.9116    1.2485    0.0014 C.ar    1  LIG1       -0.0020
      5 H           1.7837   -0.2608   -1.5037 H       1  LIG1        0.0627
      6 C          -0.2166    2.0744    0.8051 C.ar    1  LIG1       -0.0455
      7 C           1.1818    2.0987    0.8519 C.ar    1  LIG1        0.0324
      8 H          -0.7728    2.7266    1.4693 H       1  LIG1        0.0630
      9 H          -1.9702    1.2228   -0.0783 H       1  LIG1        0.0621
     10 C          -0.8976   -0.5327   -1.8719 C.3     1  LIG1       -0.0397
     11 H          -0.2838   -1.3941   -2.1443 H       1  LIG1        0.0278
     12 H          -1.1476   -0.0022   -2.7970 H       1  LIG1        0.0278
     13 H          -1.8339   -0.9024   -1.4465 H       1  LIG1        0.0278
     14 C           1.8350    2.9685    1.7845 C.1     1  LIG1       -0.0691
     15 C           2.3573    3.7090    2.5775 C.1     1  LIG1       -0.1139
     16 H           2.8281    4.3541    3.2831 H       1  LIG1        0.1232
     17 C           4.1844    2.2480   -0.5060 C.ar    1  LIG1       -0.0421
     18 C           5.5703    2.1120   -0.4784 C.ar    1  LIG1       -0.0494
     19 C           3.4027    1.2043    0.0157 C.ar    1  LIG1       -0.0126
     20 C           6.2123    0.9889    0.0382 C.ar    1  LIG1       -0.0019
     21 H           6.1827    2.9099   -0.8879 H       1  LIG1        0.0627
     22 C           4.0298    0.0757    0.5304 C.ar    1  LIG1       -0.0377
     23 C           5.4220   -0.0500    0.5570 C.ar    1  LIG1        0.0330
     24 H           3.4260   -0.7276    0.9384 H       1  LIG1        0.0636
     25 C           3.5619    3.4837   -1.0972 C.3     1  LIG1       -0.0391
     26 H           3.1399    4.1200   -0.3141 H       1  LIG1        0.0278
     27 H           2.7485    3.2320   -1.7826 H       1  LIG1        0.0278
     28 H           4.3036    4.0681   -1.6451 H       1  LIG1        0.0278
     29 C           6.0037   -1.2253    1.1343 C.1     1  LIG1       -0.0690
     30 C           6.4658   -2.2232    1.6250 C.1     1  LIG1       -0.1139
     31 H           6.8812   -3.0991    2.0675 H       1  LIG1        0.1232
     32 C           8.4250    0.0792   -0.7983 C.ar    1  LIG1       -0.0421
     33 C           9.8163    0.1159   -0.7438 C.ar    1  LIG1       -0.0494
     34 C           7.7026    0.9377    0.0463 C.ar    1  LIG1       -0.0126
     35 C          10.5203    0.9619    0.1098 C.ar    1  LIG1       -0.0019
     36 H          10.3830   -0.5426   -1.3954 H       1  LIG1        0.0627
     37 C           8.3925    1.8043    0.8864 C.ar    1  LIG1       -0.0377
     38 C           9.7894    1.8320    0.9355 C.ar    1  LIG1        0.0330
     39 H           7.8348    2.4797    1.5259 H       1  LIG1        0.0636
     40 C           7.7359   -0.8554   -1.7555 C.3     1  LIG1       -0.0391
     41 H           8.4439   -1.2557   -2.4839 H       1  LIG1        0.0278
     42 H           6.9339   -0.3491   -2.2987 H       1  LIG1        0.0278
     43 H           7.2850   -1.6972   -1.2226 H       1  LIG1        0.0278
     44 C          10.4369    2.7677    1.8063 C.1     1  LIG1       -0.0690
     45 C          10.9557    3.5646    2.5451 C.1     1  LIG1       -0.1139
     46 H          11.4239    4.2728    3.1889 H       1  LIG1        0.1232
     47 C          12.7608    0.4256    1.1603 C.ar    1  LIG1       -0.0426
     48 C          14.1510    0.4191    1.0519 C.ar    1  LIG1       -0.0571
     49 C          12.0117    0.9447    0.0901 C.ar    1  LIG1       -0.0126
     50 C          14.8004    0.9051   -0.0716 C.ar    1  LIG1       -0.0461
     51 H          14.7382    0.0144    1.8708 H       1  LIG1        0.0621
     52 C          12.6639    1.4204   -1.0436 C.ar    1  LIG1       -0.0383
     53 C          14.0582    1.4120   -1.1404 C.ar    1  LIG1        0.0253
     54 H          12.0788    1.8141   -1.8676 H       1  LIG1        0.0636
     55 H          15.8829    0.8890   -0.1318 H       1  LIG1        0.0630
     56 C          12.0991   -0.1263    2.3942 C.3     1  LIG1       -0.0391
     57 H          12.8114   -0.6985    2.9924 H       1  LIG1        0.0278
     58 H          11.2607   -0.7801    2.1406 H       1  LIG1        0.0278
     59 H          11.7026    0.6792    3.0188 H       1  LIG1        0.0278
     60 C          14.7087    1.9110   -2.3147 C.1     1  LIG1       -0.0696
     61 C          15.2570    2.3293   -3.3017 C.1     1  LIG1       -0.1139
     62 H          15.7415    2.7009   -4.1748 H       1  LIG1        0.1232
@<TRIPOS>BOND
     1    62    61    1
     2    61    60    3
     3    12    10    1
     4    41    40    1
     5    60    53    1
     6    42    40    1
     7    11    10    1
     8    10    13    1
     9    10     1    1
    10    54    52    1
    11    27    25    1
    12    40    43    1
    13    40    32    1
    14    28    25    1
    15     5     2    1
    16    36    33    1
    17    53    52   ar
    18    53    50   ar
    19    25    17    1
    20    25    26    1
    21    52    49   ar
    22     1     2   ar
    23     1     3   ar
    24    21    18    1
    25     2     4   ar
    26    32    33   ar
    27    32    34   ar
    28    33    35   ar
    29    17    18   ar
    30    17    19   ar
    31    18    20   ar
    32    55    50    1
    33     9     3    1
    34    50    48   ar
    35     3     6   ar
    36     4    19    1
    37     4     7   ar
    38    19    22   ar
    39    20    34    1
    40    20    23   ar
    41    34    37   ar
    42    49    35    1
    43    49    47   ar
    44    35    38   ar
    45    22    23   ar
    46    22    24    1
    47    23    29    1
    48     6     7   ar
    49     6     8    1
    50     7    14    1
    51    37    38   ar
    52    37    39    1
    53    38    44    1
    54    48    47   ar
    55    48    51    1
    56    29    30    3
    57    47    56    1
    58    30    31    1
    59    14    15    3
    60    44    45    3
    61    58    56    1
    62    56    57    1
    63    56    59    1
    64    45    46    1
    65    15    16    1
