@<TRIPOS>MOLECULE
mol_data/opt/cam/geoms/mol2/4ie4ie4ie.out
 47 49 0 0 0
SMALL
GASTEIGER

@<TRIPOS>ATOM
      1 C          -0.0464    1.2697   -1.2085 C.ar    1  LIG1       -0.0498
      2 C           1.3427    1.3073   -1.1175 C.ar    1  LIG1       -0.0499
      3 C          -0.7670    0.8386   -0.0939 C.ar    1  LIG1       -0.0576
      4 C           2.0251    0.9322    0.0394 C.ar    1  LIG1       -0.0020
      5 H           1.9235    1.6327   -1.9756 H       1  LIG1        0.0627
      6 C          -0.1155    0.4692    1.0695 C.ar    1  LIG1       -0.0455
      7 C           1.2814    0.5117    1.1560 C.ar    1  LIG1        0.0324
      8 H          -0.6825    0.1442    1.9348 H       1  LIG1        0.0630
      9 H          -1.8513    0.7946   -0.1384 H       1  LIG1        0.0621
     10 C          -0.7545    1.6975   -2.4658 C.3     1  LIG1       -0.0397
     11 H          -0.0635    1.7706   -3.3081 H       1  LIG1        0.0278
     12 H          -1.2247    2.6780   -2.3369 H       1  LIG1        0.0278
     13 H          -1.5456    0.9927   -2.7359 H       1  LIG1        0.0278
     14 C           1.9159    0.1455    2.3873 C.1     1  LIG1       -0.0691
     15 C           2.4205   -0.1676    3.4349 C.1     1  LIG1       -0.1139
     16 H           2.8743   -0.4346    4.3613 H       1  LIG1        0.1232
     17 C           4.3259   -0.1297    0.0638 C.ar    1  LIG1       -0.0421
     18 C           5.7083    0.0406    0.0615 C.ar    1  LIG1       -0.0494
     19 C           3.5141    1.0163    0.0652 C.ar    1  LIG1       -0.0126
     20 C           6.3187    1.2926    0.0638 C.ar    1  LIG1       -0.0019
     21 H           6.3441   -0.8399    0.0573 H       1  LIG1        0.0627
     22 C           4.1097    2.2722    0.0435 C.ar    1  LIG1       -0.0377
     23 C           5.4985    2.4327    0.0447 C.ar    1  LIG1        0.0330
     24 H           3.4828    3.1571    0.0276 H       1  LIG1        0.0636
     25 C           3.7400   -1.5157    0.0536 C.3     1  LIG1       -0.0391
     26 H           4.5033   -2.2576   -0.1892 H       1  LIG1        0.0278
     27 H           2.9322   -1.6021   -0.6775 H       1  LIG1        0.0278
     28 H           3.3201   -1.7689    1.0312 H       1  LIG1        0.0278
     29 C           6.0465    3.7557   -0.0010 C.1     1  LIG1       -0.0690
     30 C           6.4809    4.8781   -0.0412 C.1     1  LIG1       -0.1139
     31 H           6.8744    5.8673   -0.0857 H       1  LIG1        0.1232
     32 C           8.5356    1.8187    1.1670 C.ar    1  LIG1       -0.0426
     33 C           9.9271    1.8454    1.0815 C.ar    1  LIG1       -0.0571
     34 C           7.8077    1.3808    0.0471 C.ar    1  LIG1       -0.0126
     35 C          10.5979    1.4546   -0.0663 C.ar    1  LIG1       -0.0461
     36 H          10.4986    2.1763    1.9436 H       1  LIG1        0.0621
     37 C           8.4822    0.9758   -1.1008 C.ar    1  LIG1       -0.0383
     38 C           9.8774    1.0097   -1.1768 C.ar    1  LIG1        0.0253
     39 H           7.9139    0.6337   -1.9588 H       1  LIG1        0.0636
     40 H          11.6810    1.4844   -0.1082 H       1  LIG1        0.0630
     41 C           7.8506    2.2392    2.4395 C.3     1  LIG1       -0.0391
     42 H           8.5683    2.3139    3.2591 H       1  LIG1        0.0278
     43 H           7.0722    1.5285    2.7286 H       1  LIG1        0.0278
     44 H           7.3696    3.2143    2.3208 H       1  LIG1        0.0278
     45 C          10.5509    0.5928   -2.3700 C.1     1  LIG1       -0.0696
     46 C          11.1184    0.2417   -3.3723 C.1     1  LIG1       -0.1139
     47 H          11.6197   -0.0679   -4.2599 H       1  LIG1        0.1232
@<TRIPOS>BOND
     1    47    46    1
     2    46    45    3
     3    11    10    1
     4    13    10    1
     5    10    12    1
     6    10     1    1
     7    45    38    1
     8     5     2    1
     9    39    37    1
    10     1     2   ar
    11     1     3   ar
    12    38    37   ar
    13    38    35   ar
    14     2     4   ar
    15    37    34   ar
    16    27    25    1
    17    26    25    1
    18     9     3    1
    19    40    35    1
    20     3     6   ar
    21    31    30    1
    22    35    33   ar
    23    30    29    3
    24    29    23    1
    25    24    22    1
    26     4    19    1
    27     4     7   ar
    28    22    23   ar
    29    22    19   ar
    30    23    20   ar
    31    34    20    1
    32    34    32   ar
    33    25    17    1
    34    25    28    1
    35    21    18    1
    36    18    20   ar
    37    18    17   ar
    38    17    19   ar
    39     6     7   ar
    40     6     8    1
    41    33    32   ar
    42    33    36    1
    43     7    14    1
    44    32    41    1
    45    44    41    1
    46    14    15    3
    47    41    43    1
    48    41    42    1
    49    15    16    1
