@<TRIPOS>MOLECULE
mol_data/opt/cam/geoms/mol2/4ie4ie.out
 32 33 0 0 0
SMALL
GASTEIGER

@<TRIPOS>ATOM
      1 C           0.0966    0.3481   -1.0220 C.ar    1  LIG1       -0.0498
      2 C           1.4840    0.4400   -0.9370 C.ar    1  LIG1       -0.0499
      3 C          -0.6664    1.0180   -0.0653 C.ar    1  LIG1       -0.0576
      4 C           2.1235    1.1730    0.0617 C.ar    1  LIG1       -0.0020
      5 H           2.0974   -0.0803   -1.6668 H       1  LIG1        0.0627
      6 C          -0.0575    1.7604    0.9315 C.ar    1  LIG1       -0.0455
      7 C           1.3372    1.8518    1.0097 C.ar    1  LIG1        0.0324
      8 H          -0.6572    2.2861    1.6662 H       1  LIG1        0.0630
      9 H          -1.7502    0.9590   -0.1039 H       1  LIG1        0.0621
     10 C          -0.5619   -0.4334   -2.1269 C.3     1  LIG1       -0.0397
     11 H           0.1258   -1.1579   -2.5683 H       1  LIG1        0.0278
     12 H          -0.8998    0.2311   -2.9293 H       1  LIG1        0.0278
     13 H          -1.4393   -0.9746   -1.7634 H       1  LIG1        0.0278
     14 C           1.9279    2.6513    2.0415 C.1     1  LIG1       -0.0691
     15 C           2.3965    3.3309    2.9182 C.1     1  LIG1       -0.1139
     16 H           2.8211    3.9381    3.6841 H       1  LIG1        0.1232
     17 C           4.3753    0.5726    1.0530 C.ar    1  LIG1       -0.0426
     18 C           5.7651    0.6573    0.9786 C.ar    1  LIG1       -0.0571
     19 C           3.6143    1.2368    0.0755 C.ar    1  LIG1       -0.0126
     20 C           6.4026    1.3702   -0.0241 C.ar    1  LIG1       -0.0461
     21 H           6.3620    0.1428    1.7257 H       1  LIG1        0.0621
     22 C           4.2550    1.9418   -0.9388 C.ar    1  LIG1       -0.0383
     23 C           5.6490    2.0224   -1.0023 C.ar    1  LIG1        0.0253
     24 H           3.6612    2.4467   -1.6929 H       1  LIG1        0.0636
     25 H           7.4851    1.4209   -0.0605 H       1  LIG1        0.0630
     26 C           3.7262   -0.2254    2.1516 C.3     1  LIG1       -0.0391
     27 H           4.4615   -0.8490    2.6642 H       1  LIG1        0.0278
     28 H           2.9384   -0.8751    1.7618 H       1  LIG1        0.0278
     29 H           3.2650    0.4329    2.8934 H       1  LIG1        0.0278
     30 C           6.2876    2.7570   -2.0529 C.1     1  LIG1       -0.0696
     31 C           6.8255    3.3733   -2.9363 C.1     1  LIG1       -0.1139
     32 H           7.3007    3.9201   -3.7176 H       1  LIG1        0.1232
@<TRIPOS>BOND
     1    32    31    1
     2    31    30    3
     3    12    10    1
     4    11    10    1
     5    10    13    1
     6    10     1    1
     7    30    23    1
     8    24    22    1
     9     5     2    1
    10     1     2   ar
    11     1     3   ar
    12    23    22   ar
    13    23    20   ar
    14    22    19   ar
    15     2     4   ar
    16     9     3    1
    17     3     6   ar
    18    25    20    1
    19    20    18   ar
    20     4    19    1
    21     4     7   ar
    22    19    17   ar
    23     6     7   ar
    24     6     8    1
    25    18    17   ar
    26    18    21    1
    27     7    14    1
    28    17    26    1
    29    28    26    1
    30    14    15    3
    31    26    27    1
    32    26    29    1
    33    15    16    1
