@<TRIPOS>MOLECULE
mol_data/opt/cam/geoms/mol2/4ie6fd-6hd-13fh-.out
 51 54 0 0 0
SMALL
GASTEIGER

@<TRIPOS>ATOM
      1 C          -0.1566    0.1002   -0.4619 C.ar    1  LIG1       -0.0498
      2 C           1.2308    0.1872   -0.4180 C.ar    1  LIG1       -0.0498
      3 C          -0.8993    1.1971   -0.0175 C.ar    1  LIG1       -0.0576
      4 C           1.8937    1.3217    0.0555 C.ar    1  LIG1        0.0029
      5 H           1.8267   -0.6487   -0.7720 H       1  LIG1        0.0627
      6 C          -0.2708    2.3319    0.4593 C.ar    1  LIG1       -0.0455
      7 C           1.1276    2.4121    0.5105 C.ar    1  LIG1        0.0326
      8 H          -0.8541    3.1741    0.8141 H       1  LIG1        0.0630
      9 H          -1.9841    1.1568   -0.0433 H       1  LIG1        0.0621
     10 C          -0.8440   -1.1322   -0.9835 C.3     1  LIG1       -0.0397
     11 H          -0.1269   -1.9203   -1.2202 H       1  LIG1        0.0278
     12 H          -1.4112   -0.9105   -1.8927 H       1  LIG1        0.0278
     13 H          -1.5515   -1.5283   -0.2494 H       1  LIG1        0.0278
     14 C           1.7440    3.5902    1.0452 C.1     1  LIG1       -0.0691
     15 C           2.2516    4.5918    1.4797 C.1     1  LIG1       -0.1139
     16 H           2.7095    5.4719    1.8701 H       1  LIG1        0.1232
     17 C           4.1775    2.2425   -0.6165 C.ar    1  LIG1        0.2209
     18 C           3.3793    1.3197    0.0910 C.ar    1  LIG1        0.0459
     19 C           4.0721    0.3578    0.8018 C.ar    1  LIG1       -0.0294
     20 C           5.4694    0.3071    0.8010 C.ar    1  LIG1        0.0786
     21 C           6.1769    1.2418    0.0144 C.ar    1  LIG1        0.0954
     22 N           5.4955    2.1846   -0.6506 N.ar    1  LIG1       -0.2111
     23 H           3.5214   -0.3639    1.3956 H       1  LIG1        0.0639
     24 O           3.6621    3.2426   -1.3452 O.3     1  LIG1       -0.4920
     25 H           2.7077    3.2990   -1.2045 H       1  LIG1        0.2937
     26 N           6.5247   -1.4535    2.3756 N.1     1  LIG1       -0.1908
     27 C           6.0882   -0.6587    1.6563 C.1     1  LIG1        0.1013
     28 C           8.3860    2.4423   -0.4148 C.ar    1  LIG1        0.1262
     29 C           7.6432    1.2532   -0.1248 C.ar    1  LIG1        0.0425
     30 C           8.3894    0.0861   -0.0442 C.ar    1  LIG1       -0.0297
     31 C           9.7793    0.0801   -0.1447 C.ar    1  LIG1        0.0800
     32 C          10.4310    1.3275   -0.2783 C.ar    1  LIG1        0.1102
     33 N           9.7208    2.4506   -0.4464 N.ar    1  LIG1       -0.2289
     34 H           7.8930   -0.8692    0.0684 H       1  LIG1        0.0639
     35 N           7.7882    3.6336   -0.6328 N.pl3   1  LIG1       -0.3426
     36 H           8.3944    4.3873   -0.9114 H       1  LIG1        0.1437
     37 H           6.8059    3.6304   -0.8755 H       1  LIG1        0.1437
     38 N          10.8814   -2.2469   -0.3612 N.1     1  LIG1       -0.1908
     39 C          10.4346   -1.1868   -0.2344 C.1     1  LIG1        0.1014
     40 C          11.8624    1.5227   -0.2900 C.ar    1  LIG1        0.1101
     41 C          12.9701    0.8140    0.1587 C.ar    1  LIG1        0.1644
     42 C          14.1243    1.6004   -0.0711 C.ar    1  LIG1        0.0849
     43 C          13.7002    2.7859   -0.6407 C.ar    1  LIG1        0.0267
     44 N          12.3561    2.7308   -0.7611 N.ar    1  LIG1       -0.3549
     45 H          11.7247    3.4531   -1.0688 H       1  LIG1        0.1655
     46 H          14.2651    3.6481   -0.9635 H       1  LIG1        0.0827
     47 O          13.0103   -0.3802    0.7654 O.3     1  LIG1       -0.5031
     48 H          13.9530   -0.5366    0.9509 H       1  LIG1        0.2923
     49 N          15.4041    1.1071    0.3015 N.pl3   1  LIG1       -0.3540
     50 H          16.0085    0.9361   -0.4943 H       1  LIG1        0.1425
     51 H          15.8892    1.7166    0.9497 H       1  LIG1        0.1425
@<TRIPOS>BOND
     1    12    10    1
     2    24    25    1
     3    24    17    1
     4    11    10    1
     5    45    44    1
     6    10     1    1
     7    10    13    1
     8    46    43    1
     9    36    35    1
    10    37    35    1
    11     5     2    1
    12    44    43   ar
    13    44    40   ar
    14    22    17   ar
    15    22    21   ar
    16    43    42   ar
    17    35    28    1
    18    17    18   ar
    19    50    49    1
    20     1     2   ar
    21     1     3   ar
    22    33    28   ar
    23    33    32   ar
    24     2     4   ar
    25    28    29   ar
    26    38    39    3
    27    40    32    1
    28    40    41   ar
    29    32    31   ar
    30    39    31    1
    31    31    30   ar
    32    29    30   ar
    33    29    21    1
    34    42    41   ar
    35    42    49    1
    36    30    34    1
    37     9     3    1
    38     3     6   ar
    39    21    20   ar
    40     4    18    1
    41     4     7   ar
    42    18    19   ar
    43    41    47    1
    44    49    51    1
    45     6     7   ar
    46     6     8    1
    47     7    14    1
    48    47    48    1
    49    20    19   ar
    50    20    27    1
    51    19    23    1
    52    14    15    3
    53    15    16    1
    54    27    26    3
