@<TRIPOS>MOLECULE
mol_data/opt/cam/geoms/mol2/4if.out
 16 16 0 0 0
SMALL
GASTEIGER

@<TRIPOS>ATOM
      1 C           0.0956    0.0696   -0.0000 C.ar    1  LIG1       -0.0502
      2 C           1.4917    0.0892   -0.0724 C.ar    1  LIG1       -0.0554
      3 C          -0.5637    1.2925    0.0682 C.ar    1  LIG1       -0.0554
      4 C           2.2031    1.2771   -0.0767 C.ar    1  LIG1       -0.0199
      5 H           2.0345   -0.8507   -0.1267 H       1  LIG1        0.0621
      6 C           0.1340    2.4964    0.0651 C.ar    1  LIG1       -0.0199
      7 C           1.5216    2.4908   -0.0075 C.ar    1  LIG1        0.1169
      8 H          -0.4050    3.4392    0.1194 H       1  LIG1        0.0654
      9 H           3.2858    1.2881   -0.1329 H       1  LIG1        0.0654
     10 H          -1.6483    1.3121    0.1254 H       1  LIG1        0.0621
     11 C          -0.6597   -1.2340    0.0033 C.3     1  LIG1       -0.0397
     12 H          -0.3730   -1.8614    0.8531 H       1  LIG1        0.0278
     13 H          -0.4647   -1.8128   -0.9050 H       1  LIG1        0.0278
     14 H          -1.7375   -1.0670    0.0642 H       1  LIG1        0.0278
     15 O           2.2664    3.6325   -0.0148 O.3     1  LIG1       -0.5068
     16 H           1.6784    4.3947    0.0371 H       1  LIG1        0.2921
@<TRIPOS>BOND
     1    13    11    1
     2     9     4    1
     3     5     2    1
     4     4     2   ar
     5     4     7   ar
     6     2     1   ar
     7    15     7    1
     8    15    16    1
     9     7     6   ar
    10     1    11    1
    11     1     3   ar
    12    11    14    1
    13    11    12    1
    14     6     3   ar
    15     6     8    1
    16     3    10    1
