@<TRIPOS>MOLECULE
mol_data/opt/cam/geoms/mol2/4if12hf6ai-13fe-4hi12al6ai13lf-.out
 100 107 0 0 0
SMALL
GASTEIGER

@<TRIPOS>ATOM
      1 C          -0.1998    0.3402   -0.5257 C.ar    1  LIG1       -0.0495
      2 C           1.1818    0.3564   -0.3556 C.ar    1  LIG1       -0.0446
      3 C          -0.7899    1.4371   -1.1477 C.ar    1  LIG1       -0.0554
      4 C           1.9882    1.4119   -0.7973 C.ar    1  LIG1        0.0608
      5 H           1.6616   -0.4697    0.1609 H       1  LIG1        0.0628
      6 C          -0.0188    2.5029   -1.5913 C.ar    1  LIG1       -0.0192
      7 C           1.3619    2.5002   -1.4305 C.ar    1  LIG1        0.1276
      8 H          -0.4942    3.3524   -2.0761 H       1  LIG1        0.0654
      9 H          -1.8667    1.4657   -1.2864 H       1  LIG1        0.0621
     10 C          -1.0242   -0.8310   -0.0581 C.3     1  LIG1       -0.0397
     11 H          -0.5585   -1.3297    0.7952 H       1  LIG1        0.0278
     12 H          -1.1416   -1.5796   -0.8495 H       1  LIG1        0.0278
     13 H          -2.0269   -0.5172    0.2428 H       1  LIG1        0.0278
     14 O           2.1347    3.5254   -1.8832 O.3     1  LIG1       -0.5061
     15 H           1.5657    4.1813   -2.3025 H       1  LIG1        0.2922
     16 C           3.4294    1.3327   -0.6022 C.ar    1  LIG1        0.1635
     17 C           4.2764    0.2560   -0.5405 C.ar    1  LIG1        0.1139
     18 C           5.5719    0.7941   -0.3026 C.ar    1  LIG1        0.1845
     19 C           5.4480    2.1524   -0.2216 C.ar    1  LIG1        0.1802
     20 O           4.1452    2.4834   -0.4178 O.2     1  LIG1       -0.4490
     21 N           4.0053   -1.1077   -0.6533 N.pl3   1  LIG1       -0.3522
     22 H           3.2694   -1.3184   -1.3153 H       1  LIG1        0.1425
     23 H           4.8445   -1.6339   -0.8630 H       1  LIG1        0.1425
     24 O           6.6823    0.0033   -0.2196 O.3     1  LIG1       -0.5020
     25 H           7.4403    0.4860   -0.5715 H       1  LIG1        0.2924
     26 C           6.0889    4.5405   -0.3953 C.ar    1  LIG1        0.0391
     27 C           6.4024    3.2260   -0.0378 C.ar    1  LIG1        0.0394
     28 C           7.6636    3.0175    0.5249 C.ar    1  LIG1       -0.0445
     29 C           8.5754    4.0547    0.6739 C.ar    1  LIG1       -0.0222
     30 C           8.1789    5.3249    0.2119 C.ar    1  LIG1        0.0936
     31 N           6.9422    5.5437   -0.2741 N.ar    1  LIG1       -0.2524
     32 H           7.9245    2.0357    0.9104 H       1  LIG1        0.0628
     33 H           5.1047    4.7709   -0.7930 H       1  LIG1        0.0837
     34 C           9.8824    3.7991    1.3698 C.3     1  LIG1       -0.0376
     35 H          10.0885    4.5730    2.1127 H       1  LIG1        0.0278
     36 H          10.7250    3.8072    0.6773 H       1  LIG1        0.0278
     37 H           9.8556    2.8325    1.8779 H       1  LIG1        0.0278
     38 C           8.9959    6.5408    0.2554 C.ar    1  LIG1        0.1089
     39 C          10.3385    6.8686    0.2620 C.ar    1  LIG1        0.1595
     40 C          10.4582    8.2886    0.1940 C.ar    1  LIG1        0.0920
     41 C           9.1620    8.8087    0.1271 C.ar    1  LIG1        0.0680
     42 N           8.3237    7.7482    0.1703 N.ar    1  LIG1       -0.3490
     43 H           7.3278    7.7574   -0.0019 H       1  LIG1        0.1661
     44 O          11.3996    6.0275    0.2910 O.3     1  LIG1       -0.5034
     45 H          12.1977    6.5762    0.3114 H       1  LIG1        0.2923
     46 C          11.7167    8.9357    0.2790 C.1     1  LIG1       -0.0638
     47 C          12.8371    9.3783    0.3504 C.1     1  LIG1       -0.1137
     48 H          13.8068    9.8137    0.4225 H       1  LIG1        0.1232
     49 C           9.1387   11.1483   -0.8135 C.ar    1  LIG1        0.0345
     50 C           8.5314   12.4043   -0.8235 C.ar    1  LIG1       -0.0295
     51 C           8.6376   10.1781    0.0766 C.ar    1  LIG1        0.0205
     52 C           7.4601   12.7305    0.0073 C.ar    1  LIG1        0.0221
     53 H           8.8928   13.1462   -1.5289 H       1  LIG1        0.0643
     54 C           7.5579   10.5191    0.8961 C.ar    1  LIG1       -0.0472
     55 C           6.9462   11.7652    0.8962 C.ar    1  LIG1       -0.0391
     56 H           7.1959    9.7680    1.5923 H       1  LIG1        0.0627
     57 N          10.2021   10.8932   -1.6599 N.pl3   1  LIG1       -0.3574
     58 H          10.4369    9.9237   -1.8089 H       1  LIG1        0.1423
     59 H          10.2462   11.4576   -2.4937 H       1  LIG1        0.1423
     60 C           5.8067   12.0292    1.8468 C.3     1  LIG1       -0.0390
     61 H           5.7323   11.2207    2.5773 H       1  LIG1        0.0278
     62 H           4.8491   12.0994    1.3239 H       1  LIG1        0.0278
     63 H           5.9379   12.9672    2.3911 H       1  LIG1        0.0278
     64 C           6.9459   14.0971   -0.0773 C.ar    1  LIG1        0.1396
     65 C           7.5577   15.2700   -0.4219 C.ar    1  LIG1        0.0267
     66 C           6.5524   16.2749   -0.3554 C.ar    1  LIG1        0.1663
     67 C           5.3859   15.6644    0.0289 C.ar    1  LIG1        0.1785
     68 O           5.6398   14.3300    0.1965 O.2     1  LIG1       -0.4510
     69 H           8.6015   15.3942   -0.6618 H       1  LIG1        0.0692
     70 O           6.6607   17.6021   -0.6004 O.3     1  LIG1       -0.4913
     71 C           7.9438   18.0653   -0.9720 C.3     1  LIG1        0.0790
     72 H           7.8499   19.1393   -1.1299 H       1  LIG1        0.0660
     73 H           8.6795   17.8797   -0.1812 H       1  LIG1        0.0660
     74 H           8.2851   17.5928   -1.9002 H       1  LIG1        0.0660
     75 C           3.0306   15.2629    0.6991 C.ar    1  LIG1        0.0391
     76 C           4.0374   16.1337    0.2723 C.ar    1  LIG1        0.0393
     77 C           3.6779   17.4755    0.1239 C.ar    1  LIG1       -0.0445
     78 C           2.3776   17.9061    0.3543 C.ar    1  LIG1       -0.0222
     79 C           1.4294   16.9278    0.7106 C.ar    1  LIG1        0.0937
     80 N           1.7809   15.6440    0.9063 N.ar    1  LIG1       -0.2524
     81 H           4.4350   18.1998   -0.1546 H       1  LIG1        0.0628
     82 H           3.2550   14.2153    0.8775 H       1  LIG1        0.0837
     83 C           2.0639   19.3742    0.2757 C.3     1  LIG1       -0.0376
     84 H           1.4066   19.6800    1.0927 H       1  LIG1        0.0278
     85 H           1.5404   19.6327   -0.6454 H       1  LIG1        0.0278
     86 H           2.9859   19.9572    0.3318 H       1  LIG1        0.0278
     87 C           0.0085   17.1811    0.9792 C.ar    1  LIG1        0.1112
     88 C          -0.9491   18.0820    0.5312 C.ar    1  LIG1        0.1882
     89 C          -2.1816   17.7347    1.1443 C.ar    1  LIG1        0.1769
     90 C          -1.9614   16.6291    1.9306 C.ar    1  LIG1        0.0480
     91 N          -0.6342   16.3202    1.8299 N.ar    1  LIG1       -0.3534
     92 H          -0.1640   15.4932    2.1638 H       1  LIG1        0.1656
     93 H          -2.6356   16.0670    2.5587 H       1  LIG1        0.0845
     94 O          -0.7650   19.1066   -0.3516 O.3     1  LIG1       -0.4895
     95 C          -1.5385   18.9935   -1.5390 C.3     1  LIG1        0.0791
     96 H          -2.6089   19.0068   -1.3165 H       1  LIG1        0.0660
     97 H          -1.2838   19.8553   -2.1581 H       1  LIG1        0.0660
     98 H          -1.2914   18.0720   -2.0793 H       1  LIG1        0.0660
     99 O          -3.3368   18.4338    0.9304 O.3     1  LIG1       -0.5023
    100 H          -4.0604   17.9867    1.3827 H       1  LIG1        0.2923
@<TRIPOS>BOND
     1    59    57    1
     2    15    14    1
     3    97    95    1
     4    98    95    1
     5     8     6    1
     6    74    71    1
     7    14     7    1
     8    58    57    1
     9    57    49    1
    10     6     7   ar
    11     6     3   ar
    12    95    96    1
    13    95    94    1
    14    53    50    1
    15     7     4   ar
    16    22    21    1
    17     9     3    1
    18     3     1   ar
    19    72    71    1
    20    71    70    1
    21    71    73    1
    22    23    21    1
    23    12    10    1
    24    50    49   ar
    25    50    52   ar
    26    49    51   ar
    27     4    16    1
    28     4     2   ar
    29    33    26    1
    30    69    65    1
    31    21    17    1
    32    85    83    1
    33    16    17   ar
    34    16    20   ar
    35    70    66    1
    36    25    24    1
    37    17    18   ar
    38     1     2   ar
    39     1    10    1
    40    65    66   ar
    41    65    64   ar
    42    20    19   ar
    43    26    31   ar
    44    26    27   ar
    45     2     5    1
    46    66    67   ar
    47    94    88    1
    48    18    19   ar
    49    18    24    1
    50    31    30   ar
    51    19    27    1
    52    81    77    1
    53    64    52    1
    54    64    68   ar
    55    10    13    1
    56    10    11    1
    57    27    28   ar
    58    43    42    1
    59    52    55   ar
    60    67    68   ar
    61    67    76    1
    62    51    41    1
    63    51    54   ar
    64    77    76   ar
    65    77    78   ar
    66    41    42   ar
    67    41    40   ar
    68    42    38   ar
    69    40    39   ar
    70    40    46    1
    71    30    38    1
    72    30    29   ar
    73    38    39   ar
    74    39    44    1
    75    76    75   ar
    76    83    86    1
    77    83    78    1
    78    83    84    1
    79    46    47    3
    80    44    45    1
    81    47    48    1
    82    78    79   ar
    83    28    29   ar
    84    28    32    1
    85    88    87   ar
    86    88    89   ar
    87    29    34    1
    88    36    34    1
    89    75    82    1
    90    75    80   ar
    91    79    80   ar
    92    79    87    1
    93    54    55   ar
    94    54    56    1
    95    55    60    1
    96    99    89    1
    97    99   100    1
    98    87    91   ar
    99    89    90   ar
   100    62    60    1
   101    34    37    1
   102    34    35    1
   103    91    90   ar
   104    91    92    1
   105    60    63    1
   106    60    61    1
   107    90    93    1
