@<TRIPOS>MOLECULE
mol_data/opt/cam/geoms/mol2/4if12fh13fa12fl.out
 47 50 0 0 0
SMALL
GASTEIGER

@<TRIPOS>ATOM
      1 C          -0.1023    0.1116   -0.0506 C.ar    1  LIG1       -0.0495
      2 C           1.2873    0.1244   -0.0243 C.ar    1  LIG1       -0.0445
      3 C          -0.7679    1.3314   -0.1427 C.ar    1  LIG1       -0.0554
      4 C           2.0408    1.3054   -0.0942 C.ar    1  LIG1        0.0626
      5 H           1.8230   -0.8149    0.0551 H       1  LIG1        0.0628
      6 C          -0.0517    2.5169   -0.2151 C.ar    1  LIG1       -0.0192
      7 C           1.3385    2.5204   -0.1957 C.ar    1  LIG1        0.1276
      8 H          -0.5787    3.4661   -0.2866 H       1  LIG1        0.0654
      9 H          -1.8534    1.3599   -0.1578 H       1  LIG1        0.0621
     10 C          -0.8619   -1.1890   -0.0047 C.3     1  LIG1       -0.0397
     11 H          -0.3003   -1.9584    0.5304 H       1  LIG1        0.0278
     12 H          -1.0601   -1.5717   -1.0119 H       1  LIG1        0.0278
     13 H          -1.8277   -1.0693    0.4934 H       1  LIG1        0.0278
     14 O           2.0318    3.6965   -0.2752 O.3     1  LIG1       -0.5061
     15 H           1.3922    4.4147   -0.3439 H       1  LIG1        0.2922
     16 C           3.4895    1.2091   -0.0596 C.ar    1  LIG1        0.1824
     17 C           4.3548    0.1485   -0.0625 C.ar    1  LIG1        0.1846
     18 C           5.6847    0.6546   -0.0278 C.ar    1  LIG1        0.1153
     19 C           5.5633    2.0153    0.0210 C.ar    1  LIG1        0.1796
     20 O           4.2498    2.3540    0.0031 O.2     1  LIG1       -0.4474
     21 O           4.0801   -1.1762   -0.0886 O.3     1  LIG1       -0.5020
     22 H           4.9351   -1.6115    0.0714 H       1  LIG1        0.2924
     23 N           6.7984   -0.2208   -0.0307 N.pl3   1  LIG1       -0.3521
     24 H           7.1177   -0.3940   -0.9804 H       1  LIG1        0.1425
     25 H           7.5797    0.1918    0.4700 H       1  LIG1        0.1425
     26 C           6.4759    3.1208    0.1040 C.ar    1  LIG1        0.1265
     27 C           7.8370    3.2055    0.3356 C.ar    1  LIG1        0.1458
     28 C           8.2120    4.5645    0.3250 C.ar    1  LIG1        0.0091
     29 C           7.0551    5.2919    0.0930 C.ar    1  LIG1        0.0900
     30 N           6.0233    4.4134   -0.0429 N.ar    1  LIG1       -0.3463
     31 H           5.0543    4.6510   -0.1932 H       1  LIG1        0.1662
     32 O           8.6391    2.1145    0.5428 O.3     1  LIG1       -0.5045
     33 H           9.5018    2.4198    0.8431 H       1  LIG1        0.2922
     34 H           9.1971    4.9831    0.4698 H       1  LIG1        0.0677
     35 C           6.8618    6.7120   -0.0083 C.ar    1  LIG1        0.1960
     36 C           7.7100    7.7724    0.0919 C.ar    1  LIG1        0.2068
     37 C           6.9201    8.9453   -0.1015 C.ar    1  LIG1        0.2002
     38 C           5.6418    8.5337   -0.3072 C.ar    1  LIG1        0.1380
     39 O           5.5960    7.1702   -0.2523 O.2     1  LIG1       -0.4539
     40 H           4.7118    9.0415   -0.4949 H       1  LIG1        0.1069
     41 O           9.0445    7.7352    0.3288 O.3     1  LIG1       -0.5008
     42 H           9.3639    8.6471    0.3426 H       1  LIG1        0.2924
     43 O           7.4892   10.1719   -0.0583 O.3     1  LIG1       -0.4888
     44 C           6.5990   11.2522   -0.2652 C.3     1  LIG1        0.0791
     45 H           7.1886   12.1660   -0.2029 H       1  LIG1        0.0660
     46 H           6.1291   11.1851   -1.2535 H       1  LIG1        0.0660
     47 H           5.8184   11.2657    0.5044 H       1  LIG1        0.0660
@<TRIPOS>BOND
     1    46    44    1
     2    12    10    1
     3    24    23    1
     4    40    38    1
     5    15    14    1
     6    38    39   ar
     7    38    37   ar
     8     8     6    1
     9    14     7    1
    10    44    45    1
    11    44    43    1
    12    44    47    1
    13    39    35   ar
    14     6     7   ar
    15     6     3   ar
    16     7     4   ar
    17    31    30    1
    18     9     3    1
    19     3     1   ar
    20    37    43    1
    21    37    36   ar
    22     4    16    1
    23     4     2   ar
    24    21    17    1
    25    21    22    1
    26    17    16   ar
    27    17    18   ar
    28    16    20   ar
    29     1     2   ar
    30     1    10    1
    31    30    29   ar
    32    30    26   ar
    33    23    18    1
    34    23    25    1
    35    18    19   ar
    36     2     5    1
    37    35    36   ar
    38    35    29    1
    39    10    13    1
    40    10    11    1
    41    20    19   ar
    42    19    26    1
    43    36    41    1
    44    29    28   ar
    45    26    27   ar
    46    28    27   ar
    47    28    34    1
    48    41    42    1
    49    27    32    1
    50    32    33    1
