@<TRIPOS>MOLECULE
mol_data/opt/cam/geoms/mol2/4if4if-4if4if-.out
 58 61 0 0 0
SMALL
GASTEIGER

@<TRIPOS>ATOM
      1 C          -0.1907    0.1302    0.3012 C.ar    1  LIG1       -0.0496
      2 C           1.2023    0.2065    0.3126 C.ar    1  LIG1       -0.0476
      3 C          -0.8889    1.1700   -0.3032 C.ar    1  LIG1       -0.0554
      4 C           1.9066    1.2739   -0.2406 C.ar    1  LIG1        0.0242
      5 H           1.7747   -0.5926    0.7757 H       1  LIG1        0.0627
      6 C          -0.2178    2.2447   -0.8732 C.ar    1  LIG1       -0.0193
      7 C           1.1704    2.2997   -0.8485 C.ar    1  LIG1        0.1246
      8 H          -0.7781    3.0434   -1.3536 H       1  LIG1        0.0654
      9 H          -1.9742    1.1440   -0.3356 H       1  LIG1        0.0621
     10 C          -0.9057   -1.0304    0.9425 C.3     1  LIG1       -0.0397
     11 H          -0.9217   -0.9370    2.0337 H       1  LIG1        0.0278
     12 H          -0.4174   -1.9799    0.7068 H       1  LIG1        0.0278
     13 H          -1.9424   -1.0939    0.6038 H       1  LIG1        0.0278
     14 O           1.8591    3.3286   -1.4236 O.3     1  LIG1       -0.5062
     15 H           1.2313    3.9394   -1.8266 H       1  LIG1        0.2922
     16 C           4.1341    2.2450    0.4845 C.ar    1  LIG1       -0.0418
     17 C           5.5207    2.1384    0.4814 C.ar    1  LIG1       -0.0470
     18 C           3.3967    1.2740   -0.2163 C.ar    1  LIG1       -0.0080
     19 C           6.2040    1.1123   -0.1725 C.ar    1  LIG1        0.0242
     20 H           6.1057    2.8718    1.0296 H       1  LIG1        0.0628
     21 C           4.0628    0.2453   -0.8766 C.ar    1  LIG1       -0.0115
     22 C           5.4496    0.1624   -0.8660 C.ar    1  LIG1        0.1251
     23 H           3.5056   -0.5001   -1.4330 H       1  LIG1        0.0660
     24 C           3.4651    3.3613    1.2417 C.3     1  LIG1       -0.0391
     25 H           2.6475    2.9874    1.8644 H       1  LIG1        0.0278
     26 H           3.0374    4.0972    0.5558 H       1  LIG1        0.0278
     27 H           4.1792    3.8713    1.8921 H       1  LIG1        0.0278
     28 O           6.0235   -0.8644   -1.5552 O.3     1  LIG1       -0.5061
     29 H           6.9820   -0.7338   -1.5582 H       1  LIG1        0.2922
     30 C           8.3854    0.0002    0.4723 C.ar    1  LIG1       -0.0418
     31 C           9.7795    0.0212    0.4320 C.ar    1  LIG1       -0.0470
     32 C           7.6926    1.0461   -0.1612 C.ar    1  LIG1       -0.0080
     33 C          10.5166    1.0278   -0.1882 C.ar    1  LIG1        0.0242
     34 H          10.3291   -0.7753    0.9251 H       1  LIG1        0.0628
     35 C           8.4156    2.0602   -0.7914 C.ar    1  LIG1       -0.0115
     36 C           9.8045    2.0591   -0.8109 C.ar    1  LIG1        0.1251
     37 H           7.8718    2.8585   -1.2906 H       1  LIG1        0.0660
     38 C           7.6639   -1.0935    1.2201 C.3     1  LIG1       -0.0391
     39 H           8.3747   -1.7312    1.7493 H       1  LIG1        0.0278
     40 H           7.0745   -1.7278    0.5518 H       1  LIG1        0.0278
     41 H           6.9694   -0.6757    1.9540 H       1  LIG1        0.0278
     42 O          10.5112    3.0356   -1.4476 O.3     1  LIG1       -0.5061
     43 H           9.8955    3.6589   -1.8508 H       1  LIG1        0.2922
     44 C          12.8029    1.9254    0.4359 C.ar    1  LIG1       -0.0424
     45 C          14.1837    1.7585    0.3951 C.ar    1  LIG1       -0.0548
     46 C          12.0052    0.9609   -0.2071 C.ar    1  LIG1       -0.0080
     47 C          14.7820    0.6833   -0.2510 C.ar    1  LIG1       -0.0199
     48 H          14.8153    2.4892    0.8920 H       1  LIG1        0.0622
     49 C          12.5998   -0.1244   -0.8451 C.ar    1  LIG1       -0.0121
     50 C          13.9831   -0.2664   -0.8733 C.ar    1  LIG1        0.1175
     51 H          11.9901   -0.8705   -1.3423 H       1  LIG1        0.0660
     52 H          15.8646    0.5839   -0.2629 H       1  LIG1        0.0654
     53 C          12.2032    3.0966    1.1678 C.3     1  LIG1       -0.0391
     54 H          11.3913    2.7821    1.8297 H       1  LIG1        0.0278
     55 H          11.7858    3.8241    0.4668 H       1  LIG1        0.0278
     56 H          12.9577    3.6004    1.7761 H       1  LIG1        0.0278
     57 O          14.4906   -1.3526   -1.5231 O.3     1  LIG1       -0.5067
     58 H          15.4532   -1.3272   -1.4761 H       1  LIG1        0.2921
@<TRIPOS>BOND
     1    43    42    1
     2    15    14    1
     3    29    28    1
     4    28    22    1
     5    57    58    1
     6    57    50    1
     7    42    36    1
     8    23    21    1
     9    14     7    1
    10     8     6    1
    11    51    49    1
    12    37    35    1
    13    21    22   ar
    14    21    18   ar
    15    50    49   ar
    16    50    47   ar
    17     6     7   ar
    18     6     3   ar
    19    22    19   ar
    20     7     4   ar
    21    49    46   ar
    22    36    35   ar
    23    36    33   ar
    24    35    32   ar
    25     9     3    1
    26     3     1   ar
    27    52    47    1
    28    47    45   ar
    29     4    18    1
    30     4     2   ar
    31    18    16   ar
    32    46    33    1
    33    46    44   ar
    34    33    31   ar
    35    19    32    1
    36    19    17   ar
    37    32    30   ar
    38     1     2   ar
    39     1    10    1
    40     2     5    1
    41    45    44   ar
    42    45    48    1
    43    31    30   ar
    44    31    34    1
    45    44    53    1
    46    55    53    1
    47    30    38    1
    48    17    16   ar
    49    17    20    1
    50    16    24    1
    51    40    38    1
    52    26    24    1
    53    13    10    1
    54    12    10    1
    55    10    11    1
    56    53    56    1
    57    53    54    1
    58    38    39    1
    59    38    41    1
    60    24    25    1
    61    24    27    1
