@<TRIPOS>MOLECULE
mol_data/opt/cam/geoms/mol2/4if4if4if-4if-.out
 58 61 0 0 0
SMALL
GASTEIGER

@<TRIPOS>ATOM
      1 C          -0.1766   -0.1344   -0.1179 C.ar    1  LIG1       -0.0496
      2 C           1.2153   -0.0470   -0.1020 C.ar    1  LIG1       -0.0476
      3 C          -0.8982    1.0548   -0.1064 C.ar    1  LIG1       -0.0554
      4 C           1.8975    1.1673   -0.0810 C.ar    1  LIG1        0.0242
      5 H           1.8020   -0.9614   -0.1166 H       1  LIG1        0.0627
      6 C          -0.2504    2.2833   -0.0897 C.ar    1  LIG1       -0.0193
      7 C           1.1384    2.3462   -0.0810 C.ar    1  LIG1        0.1246
      8 H          -0.8293    3.2039   -0.0790 H       1  LIG1        0.0654
      9 H          -1.9839    1.0268   -0.1118 H       1  LIG1        0.0621
     10 C          -0.8660   -1.4730   -0.1697 C.3     1  LIG1       -0.0397
     11 H          -0.4004   -2.1895    0.5125 H       1  LIG1        0.0278
     12 H          -0.8222   -1.9073   -1.1742 H       1  LIG1        0.0278
     13 H          -1.9202   -1.3870    0.1042 H       1  LIG1        0.0278
     14 O           1.8041    3.5369   -0.0647 O.3     1  LIG1       -0.5062
     15 H           1.1609    4.2542   -0.0273 H       1  LIG1        0.2922
     16 C           4.1415    0.6402    0.9605 C.ar    1  LIG1       -0.0418
     17 C           5.5313    0.6976    0.8649 C.ar    1  LIG1       -0.0470
     18 C           3.3873    1.2062   -0.0772 C.ar    1  LIG1       -0.0080
     19 C           6.2066    1.2910   -0.1991 C.ar    1  LIG1        0.0242
     20 H           6.1285    0.2729    1.6668 H       1  LIG1        0.0628
     21 C           4.0461    1.8051   -1.1503 C.ar    1  LIG1       -0.0115
     22 C           5.4310    1.8467   -1.2220 C.ar    1  LIG1        0.1251
     23 H           3.4568    2.2473   -1.9493 H       1  LIG1        0.0660
     24 C           3.5060    0.0022    2.1707 C.3     1  LIG1       -0.0391
     25 H           4.2158   -0.0320    3.0004 H       1  LIG1        0.0278
     26 H           3.1858   -1.0264    1.9753 H       1  LIG1        0.0278
     27 H           2.6226    0.5533    2.5005 H       1  LIG1        0.0278
     28 O           6.0746    2.4085   -2.2870 O.3     1  LIG1       -0.5061
     29 H           5.4166    2.7383   -2.9100 H       1  LIG1        0.2922
     30 C           8.4482    2.4766   -0.1897 C.ar    1  LIG1       -0.0418
     31 C           9.8338    2.3698   -0.1878 C.ar    1  LIG1       -0.0470
     32 C           7.6958    1.2886   -0.2351 C.ar    1  LIG1       -0.0080
     33 C          10.5054    1.1472   -0.2310 C.ar    1  LIG1        0.0242
     34 H          10.4274    3.2793   -0.1577 H       1  LIG1        0.0628
     35 C           8.3488    0.0605   -0.2659 C.ar    1  LIG1       -0.0115
     36 C           9.7373   -0.0206   -0.2711 C.ar    1  LIG1        0.1251
     37 H           7.7799   -0.8619   -0.3003 H       1  LIG1        0.0660
     38 C           7.7955    3.8319   -0.1255 C.3     1  LIG1       -0.0391
     39 H           7.0048    3.8586    0.6298 H       1  LIG1        0.0278
     40 H           7.3352    4.0901   -1.0826 H       1  LIG1        0.0278
     41 H           8.5277    4.6035    0.1233 H       1  LIG1        0.0278
     42 O          10.2894   -1.2643   -0.3062 O.3     1  LIG1       -0.5061
     43 H          11.2524   -1.1752   -0.3174 H       1  LIG1        0.2922
     44 C          12.7658    1.5082    0.8526 C.ar    1  LIG1       -0.0424
     45 C          14.1504    1.3959    0.7614 C.ar    1  LIG1       -0.0548
     46 C          11.9943    1.0712   -0.2417 C.ar    1  LIG1       -0.0080
     47 C          14.7804    0.8654   -0.3577 C.ar    1  LIG1       -0.0199
     48 H          14.7600    1.7247    1.5981 H       1  LIG1        0.0622
     49 C          12.6244    0.5288   -1.3636 C.ar    1  LIG1       -0.0121
     50 C          14.0114    0.4263   -1.4277 C.ar    1  LIG1        0.1175
     51 H          12.0392    0.2046   -2.2178 H       1  LIG1        0.0660
     52 H          15.8642    0.7897   -0.3925 H       1  LIG1        0.0654
     53 C          12.1353    2.0686    2.1019 C.3     1  LIG1       -0.0391
     54 H          11.2681    1.4806    2.4115 H       1  LIG1        0.0278
     55 H          11.7848    3.0953    1.9597 H       1  LIG1        0.0278
     56 H          12.8547    2.0780    2.9239 H       1  LIG1        0.0278
     57 O          14.5494   -0.1078   -2.5585 O.3     1  LIG1       -0.5067
     58 H          15.5107   -0.1123   -2.4827 H       1  LIG1        0.2921
@<TRIPOS>BOND
     1    29    28    1
     2    57    58    1
     3    57    50    1
     4    28    22    1
     5    51    49    1
     6    23    21    1
     7    50    49   ar
     8    50    47   ar
     9    49    46   ar
    10    22    21   ar
    11    22    19   ar
    12    12    10    1
    13    21    18   ar
    14    40    38    1
    15    52    47    1
    16    47    45   ar
    17    43    42    1
    18    42    36    1
    19    37    35    1
    20    36    35   ar
    21    36    33   ar
    22    35    32   ar
    23    46    33    1
    24    46    44   ar
    25    32    19    1
    26    32    30   ar
    27    33    31   ar
    28    19    17   ar
    29    30    31   ar
    30    30    38    1
    31    31    34    1
    32    10     1    1
    33    10    13    1
    34    10    11    1
    35    38    41    1
    36    38    39    1
    37     1     3   ar
    38     1     2   ar
    39     5     2    1
    40     9     3    1
    41     3     6   ar
    42     2     4   ar
    43     6     7   ar
    44     6     8    1
    45     4     7   ar
    46     4    18    1
    47     7    14    1
    48    18    16   ar
    49    14    15    1
    50    45    44   ar
    51    45    48    1
    52    44    53    1
    53    17    16   ar
    54    17    20    1
    55    16    24    1
    56    55    53    1
    57    26    24    1
    58    53    54    1
    59    53    56    1
    60    24    27    1
    61    24    25    1
