@<TRIPOS>MOLECULE
mol_data/opt/cam/geoms/mol2/4if4if-4if.out
 44 46 0 0 0
SMALL
GASTEIGER

@<TRIPOS>ATOM
      1 C          -0.0965    0.1471    0.1625 C.ar    1  LIG1       -0.0496
      2 C           1.2977    0.1981    0.1829 C.ar    1  LIG1       -0.0476
      3 C          -0.7776    1.2830   -0.2614 C.ar    1  LIG1       -0.0554
      4 C           2.0194    1.3299   -0.1899 C.ar    1  LIG1        0.0242
      5 H           1.8568   -0.6752    0.5077 H       1  LIG1        0.0627
      6 C          -0.0889    2.4256   -0.6493 C.ar    1  LIG1       -0.0193
      7 C           1.3000    2.4534   -0.6196 C.ar    1  LIG1        0.1246
      8 H          -0.6359    3.3015   -0.9903 H       1  LIG1        0.0654
      9 H          -1.8631    1.2802   -0.2945 H       1  LIG1        0.0621
     10 C          -0.8298   -1.0925    0.6041 C.3     1  LIG1       -0.0397
     11 H          -0.8071   -1.2046    1.6933 H       1  LIG1        0.0278
     12 H          -0.3827   -1.9947    0.1775 H       1  LIG1        0.0278
     13 H          -1.8785   -1.0627    0.2992 H       1  LIG1        0.0278
     14 O           2.0053    3.5516   -1.0194 O.3     1  LIG1       -0.5062
     15 H           1.3875    4.2312   -1.3129 H       1  LIG1        0.2922
     16 C           4.2631    2.1305    0.6798 C.ar    1  LIG1       -0.0418
     17 C           5.6478    2.0030    0.6552 C.ar    1  LIG1       -0.0470
     18 C           3.5094    1.3016   -0.1703 C.ar    1  LIG1       -0.0080
     19 C           6.3137    1.0886   -0.1618 C.ar    1  LIG1        0.0242
     20 H           6.2449    2.6256    1.3157 H       1  LIG1        0.0628
     21 C           4.1582    0.3861   -0.9942 C.ar    1  LIG1       -0.0115
     22 C           5.5434    0.2799   -1.0013 C.ar    1  LIG1        0.1251
     23 H           3.5886   -0.2473   -1.6651 H       1  LIG1        0.0660
     24 C           3.6128    3.1160    1.6140 C.3     1  LIG1       -0.0391
     25 H           2.8005    2.6530    2.1814 H       1  LIG1        0.0278
     26 H           3.1827    3.9542    1.0597 H       1  LIG1        0.0278
     27 H           4.3396    3.5117    2.3270 H       1  LIG1        0.0278
     28 O           6.1001   -0.6284   -1.8526 O.3     1  LIG1       -0.5061
     29 H           7.0608   -0.5164   -1.8348 H       1  LIG1        0.2922
     30 C           8.4712   -0.1526    0.2882 C.ar    1  LIG1       -0.0424
     31 C           9.8676   -0.1556    0.2462 C.ar    1  LIG1       -0.0548
     32 C           7.8015    0.9972   -0.1670 C.ar    1  LIG1       -0.0080
     33 C          10.5972    0.9273   -0.2161 C.ar    1  LIG1       -0.0199
     34 H          10.3990   -1.0343    0.5998 H       1  LIG1        0.0622
     35 C           8.5364    2.0922   -0.6296 C.ar    1  LIG1       -0.0121
     36 C           9.9254    2.0646   -0.6527 C.ar    1  LIG1        0.1175
     37 H           8.0028    2.9718   -0.9814 H       1  LIG1        0.0660
     38 H          11.6808    0.9122   -0.2409 H       1  LIG1        0.0654
     39 C           7.7240   -1.3359    0.8518 C.3     1  LIG1       -0.0391
     40 H           8.4208   -2.0726    1.2571 H       1  LIG1        0.0278
     41 H           7.1107   -1.8332    0.0950 H       1  LIG1        0.0278
     42 H           7.0487   -1.0295    1.6553 H       1  LIG1        0.0278
     43 O          10.6736    3.1118   -1.0967 O.3     1  LIG1       -0.5067
     44 H          10.0885    3.8299   -1.3651 H       1  LIG1        0.2921
@<TRIPOS>BOND
     1    28    29    1
     2    28    22    1
     3    23    21    1
     4    44    43    1
     5    15    14    1
     6    43    36    1
     7    14     7    1
     8    22    21   ar
     9    22    19   ar
    10    21    18   ar
    11     8     6    1
    12    37    35    1
    13    36    35   ar
    14    36    33   ar
    15     6     7   ar
    16     6     3   ar
    17    35    32   ar
    18     7     4   ar
    19     9     3    1
    20     3     1   ar
    21    38    33    1
    22    33    31   ar
    23     4    18    1
    24     4     2   ar
    25    18    16   ar
    26    32    19    1
    27    32    30   ar
    28    19    17   ar
    29    41    39    1
    30     1     2   ar
    31     1    10    1
    32    12    10    1
    33     2     5    1
    34    31    30   ar
    35    31    34    1
    36    30    39    1
    37    13    10    1
    38    10    11    1
    39    17    16   ar
    40    17    20    1
    41    16    24    1
    42    39    40    1
    43    39    42    1
    44    26    24    1
    45    24    25    1
    46    24    27    1
