@<TRIPOS>MOLECULE
mol_data/opt/cam/geoms/mol2/4if4if4if.out
 44 46 0 0 0
SMALL
GASTEIGER

@<TRIPOS>ATOM
      1 C          -0.1645    0.5531   -0.8115 C.ar    1  LIG1       -0.0496
      2 C           1.2294    0.5330   -0.8206 C.ar    1  LIG1       -0.0476
      3 C          -0.7946    1.1378    0.2829 C.ar    1  LIG1       -0.0554
      4 C           2.0024    1.0735    0.2055 C.ar    1  LIG1        0.0242
      5 H           1.7448    0.0866   -1.6663 H       1  LIG1        0.0627
      6 C          -0.0558    1.6902    1.3204 C.ar    1  LIG1       -0.0193
      7 C           1.3344    1.6654    1.2864 C.ar    1  LIG1        0.1246
      8 H          -0.5631    2.1417    2.1698 H       1  LIG1        0.0654
      9 H          -1.8794    1.1655    0.3296 H       1  LIG1        0.0621
     10 C          -0.9553   -0.0139   -1.9617 C.3     1  LIG1       -0.0397
     11 H          -0.4685   -0.8965   -2.3844 H       1  LIG1        0.0278
     12 H          -1.0635    0.7161   -2.7713 H       1  LIG1        0.0278
     13 H          -1.9610   -0.3039   -1.6480 H       1  LIG1        0.0278
     14 O           2.0866    2.2000    2.2911 O.3     1  LIG1       -0.5062
     15 H           1.4987    2.5302    2.9803 H       1  LIG1        0.2922
     16 C           4.2003   -0.1720    0.0665 C.ar    1  LIG1       -0.0418
     17 C           5.5898   -0.1090   -0.0234 C.ar    1  LIG1       -0.0470
     18 C           3.4906    1.0357    0.1400 C.ar    1  LIG1       -0.0080
     19 C           6.3087    1.0835   -0.0441 C.ar    1  LIG1        0.0242
     20 H           6.1481   -1.0386   -0.0851 H       1  LIG1        0.0628
     21 C           4.1934    2.2396    0.1281 C.ar    1  LIG1       -0.0115
     22 C           5.5778    2.2746    0.0340 C.ar    1  LIG1        0.1251
     23 H           3.6405    3.1722    0.2031 H       1  LIG1        0.0660
     24 C           3.5203   -1.5183    0.1013 C.3     1  LIG1       -0.0391
     25 H           4.2260   -2.2937    0.4079 H       1  LIG1        0.0278
     26 H           3.1255   -1.8087   -0.8778 H       1  LIG1        0.0278
     27 H           2.6800   -1.5280    0.7989 H       1  LIG1        0.0278
     28 O           6.2622    3.4552    0.0168 O.3     1  LIG1       -0.5061
     29 H           5.6355    4.1782    0.1363 H       1  LIG1        0.2922
     30 C           8.6082    0.4548    0.7973 C.ar    1  LIG1       -0.0424
     31 C           9.9898    0.4729    0.5939 C.ar    1  LIG1       -0.0548
     32 C           7.7943    1.0828   -0.1582 C.ar    1  LIG1       -0.0080
     33 C          10.5706    1.0842   -0.5047 C.ar    1  LIG1       -0.0199
     34 H          10.6317   -0.0031    1.3298 H       1  LIG1        0.0622
     35 C           8.3782    1.7108   -1.2601 C.ar    1  LIG1       -0.0121
     36 C           9.7546    1.7145   -1.4376 C.ar    1  LIG1        0.1175
     37 H           7.7381    2.2097   -1.9826 H       1  LIG1        0.0660
     38 H          11.6451    1.0933   -0.6483 H       1  LIG1        0.0654
     39 C           8.0479   -0.2083    2.0313 C.3     1  LIG1       -0.0391
     40 H           8.8149   -0.2796    2.8062 H       1  LIG1        0.0278
     41 H           7.6941   -1.2253    1.8317 H       1  LIG1        0.0278
     42 H           7.2018    0.3479    2.4402 H       1  LIG1        0.0278
     43 O          10.3547    2.3165   -2.5045 O.3     1  LIG1       -0.5067
     44 H           9.6776    2.7300   -3.0523 H       1  LIG1        0.2921
@<TRIPOS>BOND
     1    44    43    1
     2    12    10    1
     3    43    36    1
     4    11    10    1
     5    37    35    1
     6    10    13    1
     7    10     1    1
     8     5     2    1
     9    36    35   ar
    10    36    33   ar
    11    35    32   ar
    12    26    24    1
    13     2     1   ar
    14     2     4   ar
    15     1     3   ar
    16    38    33    1
    17    33    31   ar
    18    32    19    1
    19    32    30   ar
    20    20    17    1
    21    19    17   ar
    22    19    22   ar
    23    17    16   ar
    24    28    22    1
    25    28    29    1
    26    22    21   ar
    27    16    24    1
    28    16    18   ar
    29    24    25    1
    30    24    27    1
    31    21    18   ar
    32    21    23    1
    33    18     4    1
    34     4     7   ar
    35     3     9    1
    36     3     6   ar
    37    31    30   ar
    38    31    34    1
    39    30    39    1
    40     7     6   ar
    41     7    14    1
    42     6     8    1
    43    41    39    1
    44    39    42    1
    45    39    40    1
    46    14    15    1
