@<TRIPOS>MOLECULE
mol_data/opt/cam/geoms/mol2/4if4if4if-4if.out
 58 61 0 0 0
SMALL
GASTEIGER

@<TRIPOS>ATOM
      1 C          -0.2048    0.1325   -0.6463 C.ar    1  LIG1       -0.0496
      2 C           1.1881    0.1697   -0.5959 C.ar    1  LIG1       -0.0476
      3 C          -0.9007    1.1688   -0.0318 C.ar    1  LIG1       -0.0554
      4 C           1.8966    1.1923    0.0315 C.ar    1  LIG1        0.0242
      5 H           1.7551   -0.6249   -1.0728 H       1  LIG1        0.0627
      6 C          -0.2266    2.2064    0.5986 C.ar    1  LIG1       -0.0193
      7 C           1.1634    2.2265    0.6301 C.ar    1  LIG1        0.1246
      8 H          -0.7856    3.0078    1.0760 H       1  LIG1        0.0654
      9 H          -1.9868    1.1708   -0.0440 H       1  LIG1        0.0621
     10 C          -0.9238   -0.9791   -1.3654 C.3     1  LIG1       -0.0397
     11 H          -0.4372   -1.9438   -1.1984 H       1  LIG1        0.0278
     12 H          -0.9430   -0.8091   -2.4473 H       1  LIG1        0.0278
     13 H          -1.9600   -1.0642   -1.0296 H       1  LIG1        0.0278
     14 O           1.8540    3.2320    1.2411 O.3     1  LIG1       -0.5062
     15 H           1.2259    3.8444    1.6413 H       1  LIG1        0.2922
     16 C           4.1213    0.1518    0.6370 C.ar    1  LIG1       -0.0418
     17 C           5.5125    0.2162    0.5718 C.ar    1  LIG1       -0.0470
     18 C           3.3867    1.1896    0.0453 C.ar    1  LIG1       -0.0080
     19 C           6.2081    1.2563   -0.0404 C.ar    1  LIG1        0.0242
     20 H           6.0946   -0.5755    1.0348 H       1  LIG1        0.0628
     21 C           4.0661    2.2400   -0.5705 C.ar    1  LIG1       -0.0115
     22 C           5.4520    2.2790   -0.6224 C.ar    1  LIG1        0.1251
     23 H           3.4923    3.0450   -1.0219 H       1  LIG1        0.0660
     24 C           3.4644   -1.0022    1.3530 C.3     1  LIG1       -0.0391
     25 H           4.1679   -1.4719    2.0441 H       1  LIG1        0.0278
     26 H           3.1231   -1.7784    0.6603 H       1  LIG1        0.0278
     27 H           2.5912   -0.6781    1.9233 H       1  LIG1        0.0278
     28 O           6.1145    3.2943   -1.2513 O.3     1  LIG1       -0.5061
     29 H           5.4673    3.9140   -1.6074 H       1  LIG1        0.2922
     30 C           8.4811    2.2112    0.5527 C.ar    1  LIG1       -0.0418
     31 C           9.8644    2.0849    0.4833 C.ar    1  LIG1       -0.0470
     32 C           7.6968    1.2347   -0.0873 C.ar    1  LIG1       -0.0080
     33 C          10.5008    1.0341   -0.1786 C.ar    1  LIG1        0.0242
     34 H          10.4854    2.8229    0.9836 H       1  LIG1        0.0628
     35 C           8.3161    0.1809   -0.7538 C.ar    1  LIG1       -0.0115
     36 C           9.7005    0.0785   -0.8096 C.ar    1  LIG1        0.1251
     37 H           7.7220   -0.5697   -1.2631 H       1  LIG1        0.0660
     38 C           7.8654    3.3535    1.3159 C.3     1  LIG1       -0.0391
     39 H           7.0744    3.0052    1.9861 H       1  LIG1        0.0278
     40 H           7.4134    4.0795    0.6352 H       1  LIG1        0.0278
     41 H           8.6176    3.8675    1.9186 H       1  LIG1        0.0278
     42 O          10.2268   -0.9734   -1.5003 O.3     1  LIG1       -0.5061
     43 H          11.1854   -0.8555   -1.5529 H       1  LIG1        0.2922
     44 C          12.6930   -0.0927    0.3901 C.ar    1  LIG1       -0.0424
     45 C          14.0858   -0.0983    0.2810 C.ar    1  LIG1       -0.0548
     46 C          11.9876    0.9479   -0.2404 C.ar    1  LIG1       -0.0080
     47 C          14.7785    0.8804   -0.4127 C.ar    1  LIG1       -0.0199
     48 H          14.6449   -0.8920    0.7679 H       1  LIG1        0.0622
     49 C          12.6855    1.9385   -0.9365 C.ar    1  LIG1       -0.0121
     50 C          14.0720    1.9121   -1.0224 C.ar    1  LIG1        0.1175
     51 H          12.1243    2.7339   -1.4207 H       1  LIG1        0.0660
     52 H          15.8598    0.8649   -0.4872 H       1  LIG1        0.0654
     53 C          11.9884   -1.1512    1.2018 C.3     1  LIG1       -0.0391
     54 H          12.7121   -1.7805    1.7240 H       1  LIG1        0.0278
     55 H          11.3655   -1.8000    0.5792 H       1  LIG1        0.0278
     56 H          11.3284   -0.7007    1.9482 H       1  LIG1        0.0278
     57 O          14.7848    2.8594   -1.6922 O.3     1  LIG1       -0.5067
     58 H          14.1782    3.5108   -2.0632 H       1  LIG1        0.2921
@<TRIPOS>BOND
     1    12    10    1
     2    58    57    1
     3    57    50    1
     4    29    28    1
     5    43    42    1
     6    42    36    1
     7    51    49    1
     8    10    11    1
     9    10    13    1
    10    10     1    1
    11    37    35    1
    12    28    22    1
    13     5     2    1
    14    50    49   ar
    15    50    47   ar
    16    23    21    1
    17    49    46   ar
    18    36    35   ar
    19    36    33   ar
    20    35    32   ar
    21     1     2   ar
    22     1     3   ar
    23    22    21   ar
    24    22    19   ar
    25     2     4   ar
    26    21    18   ar
    27    52    47    1
    28    47    45   ar
    29    46    33    1
    30    46    44   ar
    31    33    31   ar
    32    32    19    1
    33    32    30   ar
    34     9     3    1
    35    19    17   ar
    36     3     6   ar
    37     4    18    1
    38     4     7   ar
    39    18    16   ar
    40    45    44   ar
    41    45    48    1
    42    44    53    1
    43    31    30   ar
    44    31    34    1
    45    30    38    1
    46    17    16   ar
    47    17    20    1
    48    55    53    1
    49     6     7   ar
    50     6     8    1
    51     7    14    1
    52    40    38    1
    53    16    24    1
    54    26    24    1
    55    53    54    1
    56    53    56    1
    57    14    15    1
    58    38    41    1
    59    38    39    1
    60    24    27    1
    61    24    25    1
