@<TRIPOS>MOLECULE
mol_data/opt/cam/geoms/mol2/4if4if-4if-4if.out
 58 61 0 0 0
SMALL
GASTEIGER

@<TRIPOS>ATOM
      1 C          -0.1844    0.5570    0.7470 C.ar    1  LIG1       -0.0496
      2 C           1.2089    0.6321    0.7204 C.ar    1  LIG1       -0.0476
      3 C          -0.8799    1.0914   -0.3316 C.ar    1  LIG1       -0.0554
      4 C           1.9152    1.2165   -0.3282 C.ar    1  LIG1        0.0242
      5 H           1.7793    0.2274    1.5522 H       1  LIG1        0.0627
      6 C          -0.2063    1.6732   -1.3989 C.ar    1  LIG1       -0.0193
      7 C           1.1816    1.7337   -1.4049 C.ar    1  LIG1        0.1246
      8 H          -0.7650    2.0785   -2.2393 H       1  LIG1        0.0654
      9 H          -1.9653    1.0542   -0.3454 H       1  LIG1        0.0621
     10 C          -0.8991   -0.0926    1.9033 C.3     1  LIG1       -0.0397
     11 H          -0.5555    0.3068    2.8619 H       1  LIG1        0.0278
     12 H          -0.7267   -1.1737    1.9236 H       1  LIG1        0.0278
     13 H          -1.9780    0.0678    1.8427 H       1  LIG1        0.0278
     14 O           1.8738    2.2784   -2.4473 O.3     1  LIG1       -0.5062
     15 H           1.2494    2.5644   -3.1240 H       1  LIG1        0.2922
     16 C           4.1358    2.4386   -0.2392 C.ar    1  LIG1       -0.0418
     17 C           5.5215    2.3543   -0.1756 C.ar    1  LIG1       -0.0470
     18 C           3.4053    1.2380   -0.3018 C.ar    1  LIG1       -0.0080
     19 C           6.2135    1.1423   -0.1746 C.ar    1  LIG1        0.0242
     20 H           6.0988    3.2736   -0.1310 H       1  LIG1        0.0628
     21 C           4.0777    0.0204   -0.2904 C.ar    1  LIG1       -0.0115
     22 C           5.4663   -0.0382   -0.2355 C.ar    1  LIG1        0.1251
     23 H           3.5254   -0.9114   -0.3384 H       1  LIG1        0.0660
     24 C           3.4591    3.7836   -0.2234 C.3     1  LIG1       -0.0391
     25 H           2.6422    3.8116    0.5035 H       1  LIG1        0.0278
     26 H           3.0298    4.0170   -1.2011 H       1  LIG1        0.0278
     27 H           4.1694    4.5718    0.0365 H       1  LIG1        0.0278
     28 O           6.0383   -1.2729   -0.2332 O.3     1  LIG1       -0.5061
     29 H           6.9995   -1.1689   -0.2066 H       1  LIG1        0.2922
     30 C           8.4214    1.5582    0.9965 C.ar    1  LIG1       -0.0418
     31 C           9.8095    1.4598    0.9683 C.ar    1  LIG1       -0.0470
     32 C           7.7020    1.0892   -0.1185 C.ar    1  LIG1       -0.0080
     33 C          10.5133    0.9063   -0.1012 C.ar    1  LIG1        0.0242
     34 H          10.3787    1.8065    1.8264 H       1  LIG1        0.0628
     35 C           8.3926    0.5380   -1.1996 C.ar    1  LIG1       -0.0115
     36 C           9.7804    0.4510   -1.2011 C.ar    1  LIG1        0.1251
     37 H           7.8546    0.2006   -2.0795 H       1  LIG1        0.0660
     38 C           7.7336    2.1353    2.2076 C.3     1  LIG1       -0.0391
     39 H           6.8648    1.5392    2.4963 H       1  LIG1        0.0278
     40 H           7.3718    3.1523    2.0286 H       1  LIG1        0.0278
     41 H           8.4199    2.1750    3.0565 H       1  LIG1        0.0278
     42 O          10.3747   -0.0809   -2.3036 O.3     1  LIG1       -0.5061
     43 H          11.3334    0.0159   -2.2148 H       1  LIG1        0.2922
     44 C          12.6744   -0.4051   -0.0579 C.ar    1  LIG1       -0.0424
     45 C          14.0715   -0.3874   -0.0534 C.ar    1  LIG1       -0.0548
     46 C          12.0020    0.8293   -0.0921 C.ar    1  LIG1       -0.0080
     47 C          14.7972    0.7919   -0.0741 C.ar    1  LIG1       -0.0199
     48 H          14.6058   -1.3323   -0.0207 H       1  LIG1        0.0622
     49 C          12.7323    2.0206   -0.1085 C.ar    1  LIG1       -0.0121
     50 C          14.1217    2.0082   -0.0961 C.ar    1  LIG1        0.1175
     51 H          12.1964    2.9661   -0.1387 H       1  LIG1        0.0660
     52 H          15.8811    0.7907   -0.0680 H       1  LIG1        0.0654
     53 C          11.9297   -1.7150    0.0202 C.3     1  LIG1       -0.0391
     54 H          12.6255   -2.5447    0.1594 H       1  LIG1        0.0278
     55 H          11.3490   -1.9132   -0.8852 H       1  LIG1        0.0278
     56 H          11.2262   -1.7201    0.8574 H       1  LIG1        0.0278
     57 O          14.8675    3.1461   -0.1117 O.3     1  LIG1       -0.5067
     58 H          14.2825    3.9126   -0.1240 H       1  LIG1        0.2921
@<TRIPOS>BOND
     1    15    14    1
     2    14     7    1
     3    42    43    1
     4    42    36    1
     5     8     6    1
     6    37    35    1
     7     7     6   ar
     8     7     4   ar
     9     6     3   ar
    10    26    24    1
    11    36    35   ar
    12    36    33   ar
    13    35    32   ar
    14    55    53    1
    15     9     3    1
    16    23    21    1
    17     3     1   ar
    18     4    18    1
    19     4     2   ar
    20    18    21   ar
    21    18    16   ar
    22    21    22   ar
    23    16    24    1
    24    16    17   ar
    25    22    28    1
    26    22    19   ar
    27    28    29    1
    28    24    27    1
    29    24    25    1
    30    17    19   ar
    31    17    20    1
    32    19    32    1
    33    51    49    1
    34    58    57    1
    35    32    30   ar
    36    57    50    1
    37    49    50   ar
    38    49    46   ar
    39    33    46    1
    40    33    31   ar
    41    50    47   ar
    42    46    44   ar
    43    47    52    1
    44    47    45   ar
    45    44    45   ar
    46    44    53    1
    47    45    48    1
    48    53    54    1
    49    53    56    1
    50     2     1   ar
    51     2     5    1
    52     1    10    1
    53    31    30   ar
    54    31    34    1
    55    30    38    1
    56    13    10    1
    57    10    12    1
    58    10    11    1
    59    40    38    1
    60    38    39    1
    61    38    41    1
