@<TRIPOS>MOLECULE
mol_data/opt/cam/geoms/mol2/4if4if-.out
 30 31 0 0 0
SMALL
GASTEIGER

@<TRIPOS>ATOM
      1 C           0.0040    0.2019    0.3397 C.ar    1  LIG1       -0.0496
      2 C           1.3984    0.2498    0.3618 C.ar    1  LIG1       -0.0476
      3 C          -0.6668    1.2318   -0.3105 C.ar    1  LIG1       -0.0554
      4 C           2.1294    1.2803   -0.2249 C.ar    1  LIG1        0.0242
      5 H           1.9499   -0.5423    0.8610 H       1  LIG1        0.0627
      6 C           0.0316    2.2702   -0.9143 C.ar    1  LIG1       -0.0193
      7 C           1.4203    2.2975   -0.8780 C.ar    1  LIG1        0.1246
      8 H          -0.5075    3.0619   -1.4294 H       1  LIG1        0.0654
      9 H          -1.7521    1.2270   -0.3521 H       1  LIG1        0.0621
     10 C          -0.7401   -0.9197    1.0164 C.3     1  LIG1       -0.0397
     11 H          -0.7294   -0.8073    2.1058 H       1  LIG1        0.0278
     12 H          -0.2929   -1.8912    0.7878 H       1  LIG1        0.0278
     13 H          -1.7853   -0.9498    0.6999 H       1  LIG1        0.0278
     14 O           2.1362    3.2899   -1.4825 O.3     1  LIG1       -0.5062
     15 H           1.5261    3.8996   -1.9135 H       1  LIG1        0.2922
     16 C           4.3654    2.2321    0.4948 C.ar    1  LIG1       -0.0424
     17 C           5.7506    2.1027    0.5080 C.ar    1  LIG1       -0.0548
     18 C           3.6195    1.2527   -0.1869 C.ar    1  LIG1       -0.0080
     19 C           6.4029    1.0495   -0.1223 C.ar    1  LIG1       -0.0199
     20 H           6.3422    2.8456    1.0351 H       1  LIG1        0.0622
     21 C           4.2682    0.1898   -0.8098 C.ar    1  LIG1       -0.0121
     22 C           5.6549    0.0849   -0.7837 C.ar    1  LIG1        0.1175
     23 H           3.6984   -0.5669   -1.3373 H       1  LIG1        0.0660
     24 H           7.4873    0.9787   -0.0918 H       1  LIG1        0.0654
     25 C           3.7053    3.3809    1.2099 C.3     1  LIG1       -0.0391
     26 H           2.8748    3.0395    1.8341 H       1  LIG1        0.0278
     27 H           3.2982    4.1028    0.4971 H       1  LIG1        0.0278
     28 H           4.4203    3.8993    1.8529 H       1  LIG1        0.0278
     29 O           6.2174   -0.9816   -1.4215 O.3     1  LIG1       -0.5067
     30 H           7.1763   -0.9291   -1.3367 H       1  LIG1        0.2921
@<TRIPOS>BOND
     1    15    14    1
     2    14     7    1
     3     8     6    1
     4    29    30    1
     5    29    22    1
     6    23    21    1
     7     6     7   ar
     8     6     3   ar
     9     7     4   ar
    10    21    22   ar
    11    21    18   ar
    12    22    19   ar
    13     9     3    1
    14     3     1   ar
    15     4    18    1
    16     4     2   ar
    17    18    16   ar
    18    19    24    1
    19    19    17   ar
    20     1     2   ar
    21     1    10    1
    22     2     5    1
    23    16    17   ar
    24    16    25    1
    25    27    25    1
    26    17    20    1
    27    13    10    1
    28    12    10    1
    29    10    11    1
    30    25    26    1
    31    25    28    1
