@<TRIPOS>MOLECULE
mol_data/opt/cam/geoms/mol2/4if4if-4if-4if-.out
 58 61 0 0 0
SMALL
GASTEIGER

@<TRIPOS>ATOM
      1 C          -0.1490    1.0009    1.0436 C.ar    1  LIG1       -0.0496
      2 C           1.2410    1.0772    0.9485 C.ar    1  LIG1       -0.0476
      3 C          -0.8737    0.9243   -0.1407 C.ar    1  LIG1       -0.0554
      4 C           1.9167    1.0896   -0.2697 C.ar    1  LIG1        0.0242
      5 H           1.8337    1.1353    1.8573 H       1  LIG1        0.0627
      6 C          -0.2312    0.9250   -1.3727 C.ar    1  LIG1       -0.0193
      7 C           1.1543    1.0029   -1.4426 C.ar    1  LIG1        0.1246
      8 H          -0.8114    0.8517   -2.2895 H       1  LIG1        0.0654
      9 H          -1.9574    0.8596   -0.1068 H       1  LIG1        0.0621
     10 C          -0.8330    1.0218    2.3857 C.3     1  LIG1       -0.0397
     11 H          -0.8407    2.0291    2.8158 H       1  LIG1        0.0278
     12 H          -0.3271    0.3687    3.1022 H       1  LIG1        0.0278
     13 H          -1.8713    0.6911    2.3069 H       1  LIG1        0.0278
     14 O           1.8167    0.9792   -2.6355 O.3     1  LIG1       -0.5062
     15 H           1.1755    0.8849   -3.3495 H       1  LIG1        0.2922
     16 C           4.1058    2.2304   -0.8503 C.ar    1  LIG1       -0.0418
     17 C           5.4942    2.2078   -0.7918 C.ar    1  LIG1       -0.0470
     18 C           3.4058    1.1436   -0.2956 C.ar    1  LIG1       -0.0080
     19 C           6.2176    1.1629   -0.2154 C.ar    1  LIG1        0.0242
     20 H           6.0482    3.0383   -1.2204 H       1  LIG1        0.0628
     21 C           4.1099    0.0987    0.2942 C.ar    1  LIG1       -0.0115
     22 C           5.5002    0.0947    0.3330 C.ar    1  LIG1        0.1251
     23 H           3.5813   -0.7443    0.7249 H       1  LIG1        0.0660
     24 C           3.3950    3.3999   -1.4782 C.3     1  LIG1       -0.0391
     25 H           2.5829    3.7624   -0.8414 H       1  LIG1        0.0278
     26 H           2.9522    3.1193   -2.4374 H       1  LIG1        0.0278
     27 H           4.0865    4.2281   -1.6485 H       1  LIG1        0.0278
     28 O           6.1040   -0.9703    0.9269 O.3     1  LIG1       -0.5061
     29 H           7.0624   -0.8527    0.8713 H       1  LIG1        0.2922
     30 C           8.4347    2.1423    0.5246 C.ar    1  LIG1       -0.0418
     31 C           9.8232    2.0641    0.5049 C.ar    1  LIG1       -0.0470
     32 C           7.7077    1.1664   -0.1834 C.ar    1  LIG1       -0.0080
     33 C          10.5238    1.0678   -0.1749 C.ar    1  LIG1        0.0242
     34 H          10.3959    2.8157    1.0410 H       1  LIG1        0.0628
     35 C           8.3932    0.1572   -0.8610 C.ar    1  LIG1       -0.0115
     36 C           9.7842    0.1031   -0.8675 C.ar    1  LIG1        0.1251
     37 H           7.8487   -0.5924   -1.4259 H       1  LIG1        0.0660
     38 C           7.7557    3.2424    1.3003 C.3     1  LIG1       -0.0391
     39 H           6.8928    2.8671    1.8552 H       1  LIG1        0.0278
     40 H           7.3882    4.0396    0.6469 H       1  LIG1        0.0278
     41 H           8.4503    3.6961    2.0110 H       1  LIG1        0.0278
     42 O          10.3641   -0.9125   -1.5577 O.3     1  LIG1       -0.5061
     43 H          11.3255   -0.8248   -1.4935 H       1  LIG1        0.2922
     44 C          12.7532    0.7990    0.9958 C.ar    1  LIG1       -0.0424
     45 C          14.1417    0.7659    0.8971 C.ar    1  LIG1       -0.0548
     46 C          12.0142    1.0218   -0.1818 C.ar    1  LIG1       -0.0080
     47 C          14.8046    0.9354   -0.3120 C.ar    1  LIG1       -0.0199
     48 H          14.7275    0.5913    1.7947 H       1  LIG1        0.0622
     49 C          12.6770    1.1828   -1.4003 C.ar    1  LIG1       -0.0121
     50 C          14.0670    1.1432   -1.4705 C.ar    1  LIG1        0.1175
     51 H          12.1167    1.3714   -2.3102 H       1  LIG1        0.0660
     52 H          15.8902    0.8998   -0.3512 H       1  LIG1        0.0654
     53 C          12.0871    0.5834    2.3309 C.3     1  LIG1       -0.0391
     54 H          11.2319   -0.0915    2.2491 H       1  LIG1        0.0278
     55 H          11.7125    1.5180    2.7593 H       1  LIG1        0.0278
     56 H          12.7924    0.1548    3.0463 H       1  LIG1        0.0278
     57 O          14.6371    1.3151   -2.6936 O.3     1  LIG1       -0.5067
     58 H          15.5968    1.2768   -2.6083 H       1  LIG1        0.2921
@<TRIPOS>BOND
     1    15    14    1
     2    57    58    1
     3    57    50    1
     4    14     7    1
     5    26    24    1
     6    51    49    1
     7     8     6    1
     8    27    24    1
     9    42    43    1
    10    42    36    1
    11    24    16    1
    12    24    25    1
    13    50    49   ar
    14    50    47   ar
    15     7     6   ar
    16     7     4   ar
    17    37    35    1
    18    49    46   ar
    19     6     3   ar
    20    20    17    1
    21    36    35   ar
    22    36    33   ar
    23    35    32   ar
    24    16    17   ar
    25    16    18   ar
    26    17    19   ar
    27    52    47    1
    28    47    45   ar
    29    18     4    1
    30    18    21   ar
    31     4     2   ar
    32    19    32    1
    33    19    22   ar
    34    32    30   ar
    35    46    33    1
    36    46    44   ar
    37    33    31   ar
    38     3     9    1
    39     3     1   ar
    40    21    22   ar
    41    21    23    1
    42    22    28    1
    43    31    30   ar
    44    31    34    1
    45    30    38    1
    46    40    38    1
    47    29    28    1
    48    45    44   ar
    49    45    48    1
    50     2     1   ar
    51     2     5    1
    52    44    53    1
    53     1    10    1
    54    38    39    1
    55    38    41    1
    56    54    53    1
    57    13    10    1
    58    53    55    1
    59    53    56    1
    60    10    11    1
    61    10    12    1
