@<TRIPOS>MOLECULE
mol_data/opt/cam/geoms/mol2/4if4if-4if4if.out
 58 61 0 0 0
SMALL
GASTEIGER

@<TRIPOS>ATOM
      1 C          -0.2218    0.1911   -0.2236 C.ar    1  LIG1       -0.0496
      2 C           1.1724    0.2103   -0.1756 C.ar    1  LIG1       -0.0476
      3 C          -0.8851    1.4132   -0.2048 C.ar    1  LIG1       -0.0554
      4 C           1.9109    1.3892   -0.0996 C.ar    1  LIG1        0.0242
      5 H           1.7177   -0.7295   -0.1910 H       1  LIG1        0.0627
      6 C          -0.1792    2.6081   -0.1393 C.ar    1  LIG1       -0.0193
      7 C           1.2094    2.6024   -0.0902 C.ar    1  LIG1        0.1246
      8 H          -0.7124    3.5559   -0.1382 H       1  LIG1        0.0654
      9 H          -1.9701    1.4388   -0.2451 H       1  LIG1        0.0621
     10 C          -0.9740   -1.1133   -0.2738 C.3     1  LIG1       -0.0397
     11 H          -0.9761   -1.6117    0.7014 H       1  LIG1        0.0278
     12 H          -0.5240   -1.8067   -0.9897 H       1  LIG1        0.0278
     13 H          -2.0154   -0.9598   -0.5660 H       1  LIG1        0.0278
     14 O           1.9321    3.7598   -0.0508 O.3     1  LIG1       -0.5062
     15 H           1.3258    4.5091   -0.0776 H       1  LIG1        0.2922
     16 C           4.1509    1.7792    1.0227 C.ar    1  LIG1       -0.0418
     17 C           5.5344    1.6511    0.9639 C.ar    1  LIG1       -0.0470
     18 C           3.4001    1.3346   -0.0801 C.ar    1  LIG1       -0.0080
     19 C           6.2018    1.0960   -0.1288 C.ar    1  LIG1        0.0242
     20 H           6.1291    1.9763    1.8131 H       1  LIG1        0.0628
     21 C           4.0502    0.7811   -1.1795 C.ar    1  LIG1       -0.0115
     22 C           5.4343    0.6669   -1.2146 C.ar    1  LIG1        0.1251
     23 H           3.4828    0.4490   -2.0417 H       1  LIG1        0.0660
     24 C           3.4987    2.3582    2.2500 C.3     1  LIG1       -0.0391
     25 H           2.6660    1.7365    2.5910 H       1  LIG1        0.0278
     26 H           3.0956    3.3535    2.0456 H       1  LIG1        0.0278
     27 H           4.2168    2.4396    3.0690 H       1  LIG1        0.0278
     28 O           5.9930    0.1328   -2.3382 O.3     1  LIG1       -0.5061
     29 H           6.9543    0.2172   -2.2724 H       1  LIG1        0.2922
     30 C           8.3479   -0.2479   -0.1530 C.ar    1  LIG1       -0.0418
     31 C           9.7423   -0.2464   -0.1736 C.ar    1  LIG1       -0.0470
     32 C           7.6882    0.9933   -0.1538 C.ar    1  LIG1       -0.0080
     33 C          10.5114    0.9148   -0.1879 C.ar    1  LIG1        0.0242
     34 H          10.2624   -1.1997   -0.1776 H       1  LIG1        0.0628
     35 C           8.4429    2.1669   -0.1683 C.ar    1  LIG1       -0.0115
     36 C           9.8322    2.1393   -0.1848 C.ar    1  LIG1        0.1251
     37 H           7.9246    3.1228   -0.1723 H       1  LIG1        0.0660
     38 C           7.5903   -1.5508   -0.0864 C.3     1  LIG1       -0.0391
     39 H           8.2788   -2.3918    0.0168 H       1  LIG1        0.0278
     40 H           6.9838   -1.7191   -0.9807 H       1  LIG1        0.0278
     41 H           6.9065   -1.5644    0.7669 H       1  LIG1        0.0278
     42 O          10.5700    3.2847   -0.2025 O.3     1  LIG1       -0.5061
     43 H           9.9748    4.0423   -0.1603 H       1  LIG1        0.2922
     44 C          12.7329    0.2416    0.8094 C.ar    1  LIG1       -0.0424
     45 C          14.1229    0.1941    0.6825 C.ar    1  LIG1       -0.0548
     46 C          12.0000    0.8486   -0.2213 C.ar    1  LIG1       -0.0080
     47 C          14.7864    0.7211   -0.4128 C.ar    1  LIG1       -0.0199
     48 H          14.7041   -0.2662    1.4764 H       1  LIG1        0.0622
     49 C          12.6665    1.3921   -1.3212 C.ar    1  LIG1       -0.0121
     50 C          14.0494    1.3313   -1.4221 C.ar    1  LIG1        0.1175
     51 H          12.0877    1.8755   -2.1036 H       1  LIG1        0.0660
     52 H          15.8663    0.6798   -0.4969 H       1  LIG1        0.0654
     53 C          12.0785   -0.3313    2.0421 C.3     1  LIG1       -0.0391
     54 H          12.8013   -0.4026    2.8581 H       1  LIG1        0.0278
     55 H          11.6822   -1.3377    1.8719 H       1  LIG1        0.0278
     56 H          11.2439    0.2861    2.3815 H       1  LIG1        0.0278
     57 O          14.7316    1.8490   -2.4828 O.3     1  LIG1       -0.5067
     58 H          14.1054    2.2590   -3.0905 H       1  LIG1        0.2921
@<TRIPOS>BOND
     1    58    57    1
     2    57    50    1
     3    28    29    1
     4    28    22    1
     5    51    49    1
     6    23    21    1
     7    50    49   ar
     8    50    47   ar
     9    49    46   ar
    10    22    21   ar
    11    22    19   ar
    12    21    18   ar
    13    12    10    1
    14    40    38    1
    15    13    10    1
    16    52    47    1
    17    47    45   ar
    18    10     1    1
    19    10    11    1
    20     9     3    1
    21     1     3   ar
    22     1     2   ar
    23    46    33    1
    24    46    44   ar
    25     3     6   ar
    26    42    36    1
    27    42    43    1
    28     5     2    1
    29    33    36   ar
    30    33    31   ar
    31    36    35   ar
    32    34    31    1
    33     2     4   ar
    34    31    30   ar
    35    37    35    1
    36    35    32   ar
    37    32    30   ar
    38    32    19    1
    39    30    38    1
    40     6     8    1
    41     6     7   ar
    42    19    17   ar
    43     4     7   ar
    44     4    18    1
    45     7    14    1
    46    38    39    1
    47    38    41    1
    48    18    16   ar
    49    15    14    1
    50    45    44   ar
    51    45    48    1
    52    44    53    1
    53    17    16   ar
    54    17    20    1
    55    16    24    1
    56    55    53    1
    57    53    56    1
    58    53    54    1
    59    26    24    1
    60    24    25    1
    61    24    27    1
