@<TRIPOS>MOLECULE
mol_data/opt/cam/geoms/mol2/4if4if4if4if.out
 58 61 0 0 0
SMALL
GASTEIGER

@<TRIPOS>ATOM
      1 C          -0.2597    1.1133   -0.8766 C.ar    1  LIG1       -0.0496
      2 C           1.1336    1.0519   -0.8792 C.ar    1  LIG1       -0.0476
      3 C          -0.9058    1.0593    0.3543 C.ar    1  LIG1       -0.0554
      4 C           1.8891    0.9461    0.2865 C.ar    1  LIG1        0.0242
      5 H           1.6620    1.0977   -1.8275 H       1  LIG1        0.0627
      6 C          -0.1837    0.9583    1.5363 C.ar    1  LIG1       -0.0193
      7 C           1.2053    0.9056    1.5100 C.ar    1  LIG1        0.1246
      8 H          -0.7042    0.9153    2.4901 H       1  LIG1        0.0654
      9 H          -1.9904    1.0975    0.3960 H       1  LIG1        0.0621
     10 C          -1.0295    1.2574   -2.1636 C.3     1  LIG1       -0.0397
     11 H          -0.6180    0.6184   -2.9496 H       1  LIG1        0.0278
     12 H          -0.9994    2.2874   -2.5349 H       1  LIG1        0.0278
     13 H          -2.0799    0.9885   -2.0298 H       1  LIG1        0.0278
     14 O           1.9430    0.8065    2.6531 O.3     1  LIG1       -0.5062
     15 H           1.3453    0.7478    3.4074 H       1  LIG1        0.2922
     16 C           4.0603   -0.1296   -0.4407 C.ar    1  LIG1       -0.0418
     17 C           5.4530   -0.0805   -0.4639 C.ar    1  LIG1       -0.0470
     18 C           3.3773    0.8954    0.2302 C.ar    1  LIG1       -0.0080
     19 C           6.1997    0.9279    0.1405 C.ar    1  LIG1        0.0242
     20 H           5.9909   -0.8677   -0.9840 H       1  LIG1        0.0628
     21 C           4.1076    1.9104    0.8464 C.ar    1  LIG1       -0.0115
     22 C           5.4948    1.9384    0.8048 C.ar    1  LIG1        0.1251
     23 H           3.5741    2.6929    1.3795 H       1  LIG1        0.0660
     24 C           3.3470   -1.2775   -1.1110 C.3     1  LIG1       -0.0391
     25 H           4.0231   -2.1266   -1.2344 H       1  LIG1        0.0278
     26 H           2.9773   -1.0104   -2.1064 H       1  LIG1        0.0278
     27 H           2.4844   -1.6107   -0.5300 H       1  LIG1        0.0278
     28 O           6.2070    2.9366    1.4040 O.3     1  LIG1       -0.5061
     29 H           5.5946    3.5183    1.8691 H       1  LIG1        0.2922
     30 C           8.4579   -0.1302    0.5700 C.ar    1  LIG1       -0.0418
     31 C           9.8428   -0.0539    0.4313 C.ar    1  LIG1       -0.0470
     32 C           7.6873    0.9298    0.0688 C.ar    1  LIG1       -0.0080
     33 C          10.5000    1.0135   -0.1752 C.ar    1  LIG1        0.0242
     34 H          10.4481   -0.8712    0.8128 H       1  LIG1        0.0628
     35 C           8.3286    2.0111   -0.5341 C.ar    1  LIG1       -0.0115
     36 C           9.7098    2.0604   -0.6629 C.ar    1  LIG1        0.1251
     37 H           7.7287    2.8385   -0.9034 H       1  LIG1        0.0660
     38 C           7.8476   -1.3227    1.2639 C.3     1  LIG1       -0.0391
     39 H           8.5858   -1.8087    1.9061 H       1  LIG1        0.0278
     40 H           7.4894   -2.0763    0.5549 H       1  LIG1        0.0278
     41 H           6.9941   -1.0359    1.8817 H       1  LIG1        0.0278
     42 O          10.3341    3.1175   -1.2594 O.3     1  LIG1       -0.5061
     43 H           9.6711    3.7793   -1.4877 H       1  LIG1        0.2922
     44 C          12.8246    0.9930    0.8175 C.ar    1  LIG1       -0.0424
     45 C          14.2043    0.9737    0.6029 C.ar    1  LIG1       -0.0548
     46 C          11.9843    1.0271   -0.3061 C.ar    1  LIG1       -0.0080
     47 C          14.7585    0.9889   -0.6664 C.ar    1  LIG1       -0.0199
     48 H          14.8663    0.9545    1.4642 H       1  LIG1        0.0622
     49 C          12.5405    1.0555   -1.5863 C.ar    1  LIG1       -0.0121
     50 C          13.9158    1.0363   -1.7714 C.ar    1  LIG1        0.1175
     51 H          11.8791    1.1002   -2.4474 H       1  LIG1        0.0660
     52 H          15.8318    0.9767   -0.8184 H       1  LIG1        0.0654
     53 C          12.2914    1.0008    2.2287 C.3     1  LIG1       -0.0391
     54 H          13.0584    1.3519    2.9232 H       1  LIG1        0.0278
     55 H          11.9846    0.0038    2.5618 H       1  LIG1        0.0278
     56 H          11.4195    1.6508    2.3274 H       1  LIG1        0.0278
     57 O          14.4894    1.0599   -3.0090 O.3     1  LIG1       -0.5067
     58 H          13.7944    1.1162   -3.6747 H       1  LIG1        0.2921
@<TRIPOS>BOND
     1    58    57    1
     2    57    50    1
     3    11    10    1
     4    12    10    1
     5    51    49    1
     6    10    13    1
     7    10     1    1
     8    26    24    1
     9     5     2    1
    10    50    49   ar
    11    50    47   ar
    12    49    46   ar
    13    43    42    1
    14    42    36    1
    15    25    24    1
    16    24    27    1
    17    24    16    1
    18    20    17    1
    19    37    35    1
    20     2     1   ar
    21     2     4   ar
    22     1     3   ar
    23    52    47    1
    24    47    45   ar
    25    36    35   ar
    26    36    33   ar
    27    35    32   ar
    28    17    16   ar
    29    17    19   ar
    30    16    18   ar
    31    46    33    1
    32    46    44   ar
    33    33    31   ar
    34    32    19    1
    35    32    30   ar
    36    19    22   ar
    37    18     4    1
    38    18    21   ar
    39     4     7   ar
    40     3     9    1
    41     3     6   ar
    42    31    30   ar
    43    31    34    1
    44    40    38    1
    45    30    38    1
    46    45    44   ar
    47    45    48    1
    48    22    21   ar
    49    22    28    1
    50    44    53    1
    51    21    23    1
    52    38    41    1
    53    38    39    1
    54    28    29    1
    55     7     6   ar
    56     7    14    1
    57     6     8    1
    58    53    56    1
    59    53    55    1
    60    53    54    1
    61    14    15    1
