@<TRIPOS>MOLECULE
mol_data/opt/cam/geoms/mol2/4if4if.out
 30 31 0 0 0
SMALL
GASTEIGER

@<TRIPOS>ATOM
      1 C          -0.0447    0.1837   -0.4898 C.ar    1  LIG1       -0.0496
      2 C           1.3483    0.2052   -0.5469 C.ar    1  LIG1       -0.0476
      3 C          -0.6768    1.1916    0.2320 C.ar    1  LIG1       -0.0554
      4 C           2.1164    1.1863    0.0764 C.ar    1  LIG1        0.0242
      5 H           1.8665   -0.5680   -1.1075 H       1  LIG1        0.0627
      6 C           0.0580    2.1872    0.8621 C.ar    1  LIG1       -0.0193
      7 C           1.4466    2.1926    0.7852 C.ar    1  LIG1        0.1246
      8 H          -0.4513    2.9667    1.4240 H       1  LIG1        0.0654
      9 H          -1.7603    1.2039    0.3055 H       1  LIG1        0.0621
     10 C          -0.8334   -0.8793   -1.2094 C.3     1  LIG1       -0.0397
     11 H          -0.3282   -1.8479   -1.1689 H       1  LIG1        0.0278
     12 H          -0.9703   -0.6292   -2.2671 H       1  LIG1        0.0278
     13 H          -1.8272   -1.0014   -0.7718 H       1  LIG1        0.0278
     14 O           2.1975    3.1558    1.3924 O.3     1  LIG1       -0.5062
     15 H           1.6114    3.7571    1.8663 H       1  LIG1        0.2922
     16 C           4.3636    0.1195    0.5127 C.ar    1  LIG1       -0.0424
     17 C           5.7491    0.1621    0.3453 C.ar    1  LIG1       -0.0548
     18 C           3.6039    1.1690   -0.0254 C.ar    1  LIG1       -0.0080
     19 C           6.3835    1.1950   -0.3251 C.ar    1  LIG1       -0.0199
     20 H           6.3507   -0.6405    0.7625 H       1  LIG1        0.0622
     21 C           4.2405    2.2169   -0.6917 C.ar    1  LIG1       -0.0121
     22 C           5.6203    2.2350   -0.8440 C.ar    1  LIG1        0.1175
     23 H           3.6409    3.0311   -1.0903 H       1  LIG1        0.0660
     24 H           7.4605    1.2172   -0.4460 H       1  LIG1        0.0654
     25 C           3.7360   -1.0219    1.2733 C.3     1  LIG1       -0.0391
     26 H           4.4911   -1.5504    1.8597 H       1  LIG1        0.0278
     27 H           3.2674   -1.7551    0.6091 H       1  LIG1        0.0278
     28 H           2.9590   -0.6720    1.9572 H       1  LIG1        0.0278
     29 O           6.2734    3.2416   -1.4920 O.3     1  LIG1       -0.5067
     30 H           5.6301    3.9000   -1.7786 H       1  LIG1        0.2921
@<TRIPOS>BOND
     1    12    10    1
     2    30    29    1
     3    29    22    1
     4    10    11    1
     5    10    13    1
     6    10     1    1
     7     5     2    1
     8    23    21    1
     9    22    21   ar
    10    22    19   ar
    11    21    18   ar
    12     2     1   ar
    13     2     4   ar
    14     1     3   ar
    15    24    19    1
    16    19    17   ar
    17    18     4    1
    18    18    16   ar
    19     4     7   ar
    20     3     9    1
    21     3     6   ar
    22    17    16   ar
    23    17    20    1
    24    16    25    1
    25    27    25    1
    26     7     6   ar
    27     7    14    1
    28     6     8    1
    29    25    26    1
    30    25    28    1
    31    14    15    1
