@<TRIPOS>MOLECULE
mol_data/opt/cam/geoms/mol2/4if4if4if4if-.out
 58 61 0 0 0
SMALL
GASTEIGER

@<TRIPOS>ATOM
      1 C          -0.2248    0.5061   -0.9496 C.ar    1  LIG1       -0.0496
      2 C           1.1686    0.4971   -0.8948 C.ar    1  LIG1       -0.0476
      3 C          -0.9081    1.1051    0.1038 C.ar    1  LIG1       -0.0554
      4 C           1.8892    1.0613    0.1557 C.ar    1  LIG1        0.0242
      5 H           1.7259    0.0405   -1.7080 H       1  LIG1        0.0627
      6 C          -0.2216    1.6812    1.1649 C.ar    1  LIG1       -0.0193
      7 C           1.1683    1.6666    1.1949 C.ar    1  LIG1        0.1246
      8 H          -0.7711    2.1437    1.9815 H       1  LIG1        0.0654
      9 H          -1.9940    1.1256    0.0999 H       1  LIG1        0.0621
     10 C          -0.9562   -0.0922   -2.1230 C.3     1  LIG1       -0.0397
     11 H          -0.5075   -1.0399   -2.4329 H       1  LIG1        0.0278
     12 H          -0.9343    0.5754   -2.9910 H       1  LIG1        0.0278
     13 H          -2.0049   -0.2816   -1.8822 H       1  LIG1        0.0278
     14 O           1.8712    2.2243    2.2224 O.3     1  LIG1       -0.5062
     15 H           1.2510    2.5636    2.8781 H       1  LIG1        0.2922
     16 C           4.1001   -0.1685    0.1512 C.ar    1  LIG1       -0.0418
     17 C           5.4919   -0.0963    0.1253 C.ar    1  LIG1       -0.0470
     18 C           3.3791    1.0346    0.1596 C.ar    1  LIG1       -0.0080
     19 C           6.2023    1.1014    0.1076 C.ar    1  LIG1        0.0242
     20 H           6.0585   -1.0228    0.1142 H       1  LIG1        0.0628
     21 C           4.0727    2.2437    0.1485 C.ar    1  LIG1       -0.0115
     22 C           5.4597    2.2880    0.1187 C.ar    1  LIG1        0.1251
     23 H           3.5101    3.1732    0.1724 H       1  LIG1        0.0660
     24 C           3.4284   -1.5188    0.1893 C.3     1  LIG1       -0.0391
     25 H           4.1244   -2.2803    0.5485 H       1  LIG1        0.0278
     26 H           3.0819   -1.8372   -0.7992 H       1  LIG1        0.0278
     27 H           2.5567   -1.5172    0.8471 H       1  LIG1        0.0278
     28 O           6.1353    3.4738    0.1014 O.3     1  LIG1       -0.5061
     29 H           5.4984    4.1942    0.1734 H       1  LIG1        0.2922
     30 C           8.4682    0.5039    1.0632 C.ar    1  LIG1       -0.0418
     31 C           9.8552    0.5391    0.9234 C.ar    1  LIG1       -0.0470
     32 C           7.6910    1.1118    0.0663 C.ar    1  LIG1       -0.0080
     33 C          10.5073    1.1505   -0.1447 C.ar    1  LIG1        0.0242
     34 H          10.4696    0.0818    1.6938 H       1  LIG1        0.0628
     35 C           8.3276    1.7304   -1.0096 C.ar    1  LIG1       -0.0115
     36 C           9.7098    1.7506   -1.1246 C.ar    1  LIG1        0.1251
     37 H           7.7217    2.2076   -1.7752 H       1  LIG1        0.0660
     38 C           7.8644   -0.1538    2.2792 C.3     1  LIG1       -0.0391
     39 H           8.5929   -0.1914    3.0925 H       1  LIG1        0.0278
     40 H           7.5497   -1.1833    2.0791 H       1  LIG1        0.0278
     41 H           6.9837    0.3852    2.6344 H       1  LIG1        0.0278
     42 O          10.3292    2.3346   -2.1925 O.3     1  LIG1       -0.5061
     43 H           9.6570    2.6982   -2.7804 H       1  LIG1        0.2922
     44 C          12.7662    2.2993   -0.1661 C.ar    1  LIG1       -0.0424
     45 C          14.1508    2.1727   -0.2147 C.ar    1  LIG1       -0.0548
     46 C          11.9947    1.1237   -0.2290 C.ar    1  LIG1       -0.0080
     47 C          14.7792    0.9374   -0.3198 C.ar    1  LIG1       -0.0199
     48 H          14.7619    3.0692   -0.1605 H       1  LIG1        0.0622
     49 C          12.6209   -0.1164   -0.3224 C.ar    1  LIG1       -0.0121
     50 C          14.0074   -0.2153   -0.3710 C.ar    1  LIG1        0.1175
     51 H          12.0316   -1.0252   -0.3715 H       1  LIG1        0.0660
     52 H          15.8641    0.8745   -0.3547 H       1  LIG1        0.0654
     53 C          12.1345    3.6590   -0.0293 C.3     1  LIG1       -0.0391
     54 H          11.3683    3.6670    0.7511 H       1  LIG1        0.0278
     55 H          11.6480    3.9595   -0.9609 H       1  LIG1        0.0278
     56 H          12.8849    4.4111    0.2252 H       1  LIG1        0.0278
     57 O          14.5470   -1.4650   -0.4681 O.3     1  LIG1       -0.5067
     58 H          15.5075   -1.3902   -0.5018 H       1  LIG1        0.2921
@<TRIPOS>BOND
     1    12    10    1
     2    43    42    1
     3    11    10    1
     4    42    36    1
     5    10    13    1
     6    10     1    1
     7    37    35    1
     8     5     2    1
     9    36    35   ar
    10    36    33   ar
    11    35    32   ar
    12    55    53    1
    13     1     2   ar
    14     1     3   ar
    15     2     4   ar
    16    26    24    1
    17    58    57    1
    18    57    50    1
    19    51    49    1
    20    50    49   ar
    21    50    47   ar
    22    52    47    1
    23    49    46   ar
    24    47    45   ar
    25    46    44   ar
    26    46    33    1
    27    45    44   ar
    28    45    48    1
    29    44    53    1
    30    33    31   ar
    31    53    56    1
    32    53    54    1
    33    32    19    1
    34    32    30   ar
    35     9     3    1
    36    28    22    1
    37    28    29    1
    38     3     6   ar
    39    19    22   ar
    40    19    17   ar
    41    20    17    1
    42    22    21   ar
    43    17    16   ar
    44    21    18   ar
    45    21    23    1
    46    16    18   ar
    47    16    24    1
    48     4    18    1
    49     4     7   ar
    50    24    25    1
    51    24    27    1
    52    31    30   ar
    53    31    34    1
    54    30    38    1
    55     6     7   ar
    56     6     8    1
    57     7    14    1
    58    40    38    1
    59    14    15    1
    60    38    41    1
    61    38    39    1
