@<TRIPOS>MOLECULE
mol_data/opt/cam/geoms/mol2/4ig.out
 16 16 0 0 0
SMALL
GASTEIGER

@<TRIPOS>ATOM
      1 C           0.0844    0.0356    0.0134 C.ar    1  LIG1       -0.0504
      2 C           1.4793    0.0529   -0.0112 C.ar    1  LIG1       -0.0578
      3 C          -0.5777    1.2607    0.0320 C.ar    1  LIG1       -0.0578
      4 C           2.1879    1.2447   -0.0225 C.ar    1  LIG1       -0.0483
      5 H           2.0249   -0.8865   -0.0203 H       1  LIG1        0.0621
      6 C           0.1191    2.4628    0.0215 C.ar    1  LIG1       -0.0483
      7 C           1.5108    2.4638   -0.0068 C.ar    1  LIG1        0.0048
      8 H          -0.4296    3.3992    0.0392 H       1  LIG1        0.0629
      9 H           3.2732    1.2271   -0.0402 H       1  LIG1        0.0629
     10 H          -1.6635    1.2808    0.0571 H       1  LIG1        0.0621
     11 C          -0.6753   -1.2643   -0.0030 C.3     1  LIG1       -0.0397
     12 H          -0.1847   -2.0212    0.6146 H       1  LIG1        0.0278
     13 H          -0.7458   -1.6698   -1.0181 H       1  LIG1        0.0278
     14 H          -1.6942   -1.1350    0.3691 H       1  LIG1        0.0278
     15 S           2.4790    3.9575   -0.0176 S.3     1  LIG1       -0.1426
     16 H           1.4491    4.8181   -0.0074 H       1  LIG1        0.1071
@<TRIPOS>BOND
     1    13    11    1
     2     9     4    1
     3     4     2   ar
     4     4     7   ar
     5     5     2    1
     6    15    16    1
     7    15     7    1
     8     2     1   ar
     9     7     6   ar
    10    11     1    1
    11    11    14    1
    12    11    12    1
    13     1     3   ar
    14     6     3   ar
    15     6     8    1
    16     3    10    1
