@<TRIPOS>MOLECULE
mol_data/opt/cam/geoms/mol2/4ig4ig-4ig.out
 44 46 0 0 0
SMALL
GASTEIGER

@<TRIPOS>ATOM
      1 C          -0.1412    1.0189   -0.9763 C.ar    1  LIG1       -0.0498
      2 C           1.2503    1.0225   -0.9731 C.ar    1  LIG1       -0.0501
      3 C          -0.7911    0.8383    0.2440 C.ar    1  LIG1       -0.0578
      4 C           1.9959    0.8548    0.1945 C.ar    1  LIG1       -0.0042
      5 H           1.7866    1.1555   -1.9084 H       1  LIG1        0.0627
      6 C          -0.0753    0.6779    1.4198 C.ar    1  LIG1       -0.0477
      7 C           1.3193    0.6851    1.4082 C.ar    1  LIG1        0.0125
      8 H          -0.6092    0.5471    2.3557 H       1  LIG1        0.0629
      9 H          -1.8768    0.8249    0.2784 H       1  LIG1        0.0621
     10 C          -0.9206    1.2233   -2.2482 C.3     1  LIG1       -0.0397
     11 H          -0.2954    1.0608   -3.1288 H       1  LIG1        0.0278
     12 H          -1.3179    2.2420   -2.3099 H       1  LIG1        0.0278
     13 H          -1.7719    0.5399   -2.3082 H       1  LIG1        0.0278
     14 S           2.2771    0.5017    2.8999 S.3     1  LIG1       -0.1420
     15 H           1.2299    0.2959    3.7147 H       1  LIG1        0.1071
     16 C           4.2285   -0.3178    0.0554 C.ar    1  LIG1       -0.0421
     17 C           5.6135   -0.2189   -0.0315 C.ar    1  LIG1       -0.0495
     18 C           3.4880    0.8722    0.1242 C.ar    1  LIG1       -0.0129
     19 C           6.2864    1.0023   -0.0474 C.ar    1  LIG1       -0.0042
     20 H           6.2046   -1.1284   -0.0884 H       1  LIG1        0.0627
     21 C           4.1451    2.0989    0.0958 C.ar    1  LIG1       -0.0400
     22 C           5.5334    2.1792    0.0134 C.ar    1  LIG1        0.0130
     23 H           3.5501    3.0057    0.1388 H       1  LIG1        0.0635
     24 C           3.5551   -1.6639    0.0702 C.3     1  LIG1       -0.0391
     25 H           4.2835   -2.4644   -0.0739 H       1  LIG1        0.0278
     26 H           2.8015   -1.7426   -0.7183 H       1  LIG1        0.0278
     27 H           3.0446   -1.8387    1.0220 H       1  LIG1        0.0278
     28 S           6.3839    3.7441   -0.0434 S.3     1  LIG1       -0.1420
     29 H           5.2949    4.5024    0.1612 H       1  LIG1        0.1071
     30 C           8.5769    1.1469    1.0019 C.ar    1  LIG1       -0.0426
     31 C           9.9599    1.1332    0.8370 C.ar    1  LIG1       -0.0572
     32 C           7.7768    1.0233   -0.1452 C.ar    1  LIG1       -0.0129
     33 C          10.5495    1.0099   -0.4132 C.ar    1  LIG1       -0.0483
     34 H          10.5952    1.2275    1.7127 H       1  LIG1        0.0621
     35 C           8.3672    0.8838   -1.3998 C.ar    1  LIG1       -0.0406
     36 C           9.7517    0.8816   -1.5458 C.ar    1  LIG1        0.0053
     37 H           7.7251    0.7763   -2.2683 H       1  LIG1        0.0635
     38 H          11.6308    1.0185   -0.5057 H       1  LIG1        0.0629
     39 C           7.9670    1.2907    2.3705 C.3     1  LIG1       -0.0391
     40 H           8.7385    1.2735    3.1431 H       1  LIG1        0.0278
     41 H           7.2567    0.4862    2.5797 H       1  LIG1        0.0278
     42 H           7.4196    2.2339    2.4607 H       1  LIG1        0.0278
     43 S          10.5499    0.6857   -3.1259 S.3     1  LIG1       -0.1426
     44 H           9.4790    0.9675   -3.8844 H       1  LIG1        0.1071
@<TRIPOS>BOND
     1    44    43    1
     2    11    10    1
     3    43    36    1
     4    12    10    1
     5    13    10    1
     6    37    35    1
     7    10     1    1
     8     5     2    1
     9    36    35   ar
    10    36    33   ar
    11    35    32   ar
    12     1     2   ar
    13     1     3   ar
    14     2     4   ar
    15    26    24    1
    16    38    33    1
    17    33    31   ar
    18    32    19    1
    19    32    30   ar
    20    20    17    1
    21    25    24    1
    22    19    17   ar
    23    19    22   ar
    24    28    22    1
    25    28    29    1
    26    17    16   ar
    27    22    21   ar
    28    16    24    1
    29    16    18   ar
    30    24    27    1
    31    21    18   ar
    32    21    23    1
    33    18     4    1
    34     4     7   ar
    35     3     9    1
    36     3     6   ar
    37    31    30   ar
    38    31    34    1
    39    30    39    1
    40     7     6   ar
    41     7    14    1
    42     6     8    1
    43    39    42    1
    44    39    41    1
    45    39    40    1
    46    14    15    1
