@<TRIPOS>MOLECULE
mol_data/opt/cam/geoms/mol2/4ig4ig-4ig-4ig.out
 58 61 0 0 0
SMALL
GASTEIGER

@<TRIPOS>ATOM
      1 C          -0.1995    1.7820   -0.5184 C.ar    1  LIG1       -0.0498
      2 C           1.1908    1.7198   -0.5102 C.ar    1  LIG1       -0.0501
      3 C          -0.8959    0.7935    0.1753 C.ar    1  LIG1       -0.0578
      4 C           1.8902    0.7161    0.1608 C.ar    1  LIG1       -0.0042
      5 H           1.7627    2.4721   -1.0462 H       1  LIG1        0.0627
      6 C          -0.2260   -0.2103    0.8572 C.ar    1  LIG1       -0.0477
      7 C           1.1676   -0.2594    0.8579 C.ar    1  LIG1        0.0125
      8 H          -0.7956   -0.9622    1.3943 H       1  LIG1        0.0629
      9 H          -1.9820    0.8077    0.1859 H       1  LIG1        0.0621
     10 C          -0.9274    2.8903   -1.2316 C.3     1  LIG1       -0.0397
     11 H          -0.2941    3.3618   -1.9864 H       1  LIG1        0.0278
     12 H          -1.2418    3.6720   -0.5318 H       1  LIG1        0.0278
     13 H          -1.8274    2.5201   -1.7294 H       1  LIG1        0.0278
     14 S           2.0683   -1.5231    1.7344 S.3     1  LIG1       -0.1420
     15 H           0.9881   -2.2127    2.1349 H       1  LIG1        0.1071
     16 C           4.0893   -0.0651   -0.8039 C.ar    1  LIG1       -0.0421
     17 C           5.4788    0.0019   -0.7886 C.ar    1  LIG1       -0.0495
     18 C           3.3837    0.7111    0.1282 C.ar    1  LIG1       -0.0129
     19 C           6.1887    0.7963    0.1110 C.ar    1  LIG1       -0.0042
     20 H           6.0432   -0.5887   -1.5046 H       1  LIG1        0.0627
     21 C           4.0785    1.5182    1.0244 C.ar    1  LIG1       -0.0400
     22 C           5.4706    1.5688    1.0293 C.ar    1  LIG1        0.0130
     23 H           3.5106    2.1169    1.7295 H       1  LIG1        0.0635
     24 C           3.3744   -0.9441   -1.7947 C.3     1  LIG1       -0.0391
     25 H           4.0822   -1.4077   -2.4847 H       1  LIG1        0.0278
     26 H           2.6474   -0.3764   -2.3821 H       1  LIG1        0.0278
     27 H           2.8247   -1.7426   -1.2874 H       1  LIG1        0.0278
     28 S           6.3706    2.6122    2.1593 S.3     1  LIG1       -0.1420
     29 H           5.2993    3.0152    2.8612 H       1  LIG1        0.1071
     30 C           8.4480    0.0081    0.9163 C.ar    1  LIG1       -0.0421
     31 C           9.8330    0.0675    0.7986 C.ar    1  LIG1       -0.0495
     32 C           7.6812    0.8165    0.0632 C.ar    1  LIG1       -0.0129
     33 C          10.4807    0.8934   -0.1195 C.ar    1  LIG1       -0.0042
     34 H          10.4442   -0.5521    1.4485 H       1  LIG1        0.0627
     35 C           8.3134    1.6355   -0.8679 C.ar    1  LIG1       -0.0400
     36 C           9.7019    1.6858   -0.9686 C.ar    1  LIG1        0.0130
     37 H           7.6989    2.2433   -1.5245 H       1  LIG1        0.0635
     38 C           7.8016   -0.8990    1.9286 C.3     1  LIG1       -0.0391
     39 H           8.5505   -1.5078    2.4392 H       1  LIG1        0.0278
     40 H           7.0775   -1.5709    1.4597 H       1  LIG1        0.0278
     41 H           7.2612   -0.3225    2.6854 H       1  LIG1        0.0278
     42 S          10.5214    2.7166   -2.1695 S.3     1  LIG1       -0.1420
     43 H           9.4093    3.3224   -2.6155 H       1  LIG1        0.1071
     44 C          12.7221    1.8740    0.4968 C.ar    1  LIG1       -0.0426
     45 C          14.1108    1.8049    0.4127 C.ar    1  LIG1       -0.0572
     46 C          11.9731    0.9007   -0.1833 C.ar    1  LIG1       -0.0129
     47 C          14.7540    0.8174   -0.3200 C.ar    1  LIG1       -0.0483
     48 H          14.7072    2.5490    0.9323 H       1  LIG1        0.0621
     49 C          12.6176   -0.1004   -0.9077 C.ar    1  LIG1       -0.0406
     50 C          14.0066   -0.1483   -0.9869 C.ar    1  LIG1        0.0053
     51 H          12.0140   -0.8479   -1.4127 H       1  LIG1        0.0635
     52 H          15.8377    0.8026   -0.3748 H       1  LIG1        0.0629
     53 C          12.0530    2.9605    1.2953 C.3     1  LIG1       -0.0391
     54 H          12.7925    3.5650    1.8244 H       1  LIG1        0.0278
     55 H          11.3599    2.5468    2.0328 H       1  LIG1        0.0278
     56 H          11.4736    3.6259    0.6482 H       1  LIG1        0.0278
     57 S          14.8749   -1.4184   -1.8837 S.3     1  LIG1       -0.1426
     58 H          13.8237   -1.8693   -2.5861 H       1  LIG1        0.1071
@<TRIPOS>BOND
     1    43    42    1
     2    58    57    1
     3    25    24    1
     4    26    24    1
     5    42    36    1
     6    11    10    1
     7    57    50    1
     8    24    27    1
     9    24    16    1
    10    13    10    1
    11    37    35    1
    12    20    17    1
    13    51    49    1
    14    10    12    1
    15    10     1    1
    16     5     2    1
    17    50    49   ar
    18    50    47   ar
    19    36    35   ar
    20    36    33   ar
    21    49    46   ar
    22    35    32   ar
    23    16    17   ar
    24    16    18   ar
    25    17    19   ar
    26     1     2   ar
    27     1     3   ar
    28     2     4   ar
    29    52    47    1
    30    47    45   ar
    31    46    33    1
    32    46    44   ar
    33    33    31   ar
    34    32    19    1
    35    32    30   ar
    36    19    22   ar
    37    18     4    1
    38    18    21   ar
    39     4     7   ar
    40     3     9    1
    41     3     6   ar
    42    45    44   ar
    43    45    48    1
    44    44    53    1
    45    56    53    1
    46    31    30   ar
    47    31    34    1
    48     6     7   ar
    49     6     8    1
    50     7    14    1
    51    30    38    1
    52    21    22   ar
    53    21    23    1
    54    22    28    1
    55    53    54    1
    56    53    55    1
    57    40    38    1
    58    14    15    1
    59    38    39    1
    60    38    41    1
    61    28    29    1
