@<TRIPOS>MOLECULE
mol_data/opt/cam/geoms/mol2/4ig4ig-4ig-.out
 44 46 0 0 0
SMALL
GASTEIGER

@<TRIPOS>ATOM
      1 C          -0.1404    1.0170   -0.9778 C.ar    1  LIG1       -0.0498
      2 C           1.2510    1.0191   -0.9738 C.ar    1  LIG1       -0.0501
      3 C          -0.7912    0.8460    0.2435 C.ar    1  LIG1       -0.0578
      4 C           1.9958    0.8587    0.1955 C.ar    1  LIG1       -0.0042
      5 H           1.7880    1.1450   -1.9097 H       1  LIG1        0.0627
      6 C          -0.0763    0.6931    1.4207 C.ar    1  LIG1       -0.0477
      7 C           1.3184    0.6985    1.4098 C.ar    1  LIG1        0.0125
      8 H          -0.6109    0.5697    2.3573 H       1  LIG1        0.0629
      9 H          -1.8769    0.8343    0.2774 H       1  LIG1        0.0621
     10 C          -0.9192    1.2121   -2.2516 C.3     1  LIG1       -0.0397
     11 H          -0.2884    1.0631   -3.1306 H       1  LIG1        0.0278
     12 H          -1.3338    2.2239   -2.3113 H       1  LIG1        0.0278
     13 H          -1.7584    0.5143   -2.3166 H       1  LIG1        0.0278
     14 S           2.2750    0.5247    2.9034 S.3     1  LIG1       -0.1420
     15 H           1.2271    0.3258    3.7190 H       1  LIG1        0.1071
     16 C           4.2274   -0.3171    0.0662 C.ar    1  LIG1       -0.0421
     17 C           5.6125   -0.2202   -0.0208 C.ar    1  LIG1       -0.0495
     18 C           3.4879    0.8741    0.1258 C.ar    1  LIG1       -0.0129
     19 C           6.2866    1.0003   -0.0455 C.ar    1  LIG1       -0.0042
     20 H           6.2028   -1.1306   -0.0708 H       1  LIG1        0.0627
     21 C           4.1463    2.0999    0.0886 C.ar    1  LIG1       -0.0400
     22 C           5.5347    2.1783    0.0062 C.ar    1  LIG1        0.0130
     23 H           3.5522    3.0077    0.1245 H       1  LIG1        0.0635
     24 C           3.5526   -1.6623    0.0906 C.3     1  LIG1       -0.0391
     25 H           4.2803   -2.4645   -0.0473 H       1  LIG1        0.0278
     26 H           2.7993   -1.7461   -0.6976 H       1  LIG1        0.0278
     27 H           3.0416   -1.8296    1.0434 H       1  LIG1        0.0278
     28 S           6.3867    3.7419   -0.0619 S.3     1  LIG1       -0.1420
     29 H           5.2984    4.5028    0.1365 H       1  LIG1        0.1071
     30 C           8.5768    1.1505    1.0036 C.ar    1  LIG1       -0.0426
     31 C           9.9599    1.1342    0.8393 C.ar    1  LIG1       -0.0572
     32 C           7.7771    1.0191   -0.1429 C.ar    1  LIG1       -0.0129
     33 C          10.5499    1.0009   -0.4097 C.ar    1  LIG1       -0.0483
     34 H          10.5950    1.2345    1.7145 H       1  LIG1        0.0621
     35 C           8.3678    0.8695   -1.3961 C.ar    1  LIG1       -0.0406
     36 C           9.7523    0.8650   -1.5416 C.ar    1  LIG1        0.0053
     37 H           7.7260    0.7561   -2.2641 H       1  LIG1        0.0635
     38 H          11.6312    1.0079   -0.5019 H       1  LIG1        0.0629
     39 C           7.9665    1.3052    2.3708 C.3     1  LIG1       -0.0391
     40 H           8.7377    1.2929    3.1438 H       1  LIG1        0.0278
     41 H           7.2553    0.5030    2.5857 H       1  LIG1        0.0278
     42 H           7.4202    2.2496    2.4537 H       1  LIG1        0.0278
     43 S          10.5510    0.6564   -3.1198 S.3     1  LIG1       -0.1426
     44 H           9.4807    0.9337   -3.8809 H       1  LIG1        0.1071
@<TRIPOS>BOND
     1    44    43    1
     2    11    10    1
     3    43    36    1
     4    13    10    1
     5    12    10    1
     6    37    35    1
     7    10     1    1
     8     5     2    1
     9    36    35   ar
    10    36    33   ar
    11    35    32   ar
    12     1     2   ar
    13     1     3   ar
    14     2     4   ar
    15    26    24    1
    16    38    33    1
    17    33    31   ar
    18    32    19    1
    19    32    30   ar
    20    20    17    1
    21    28    22    1
    22    28    29    1
    23    25    24    1
    24    19    17   ar
    25    19    22   ar
    26    17    16   ar
    27    22    21   ar
    28    16    24    1
    29    16    18   ar
    30    21    23    1
    31    21    18   ar
    32    24    27    1
    33    18     4    1
    34     4     7   ar
    35     3     9    1
    36     3     6   ar
    37    31    30   ar
    38    31    34    1
    39    30    39    1
    40     7     6   ar
    41     7    14    1
    42     6     8    1
    43    39    42    1
    44    39    41    1
    45    39    40    1
    46    14    15    1
