@<TRIPOS>MOLECULE
mol_data/opt/cam/geoms/mol2/4ig4ig4ig4ig.out
 58 61 0 0 0
SMALL
GASTEIGER

@<TRIPOS>ATOM
      1 C          -0.1972    1.8024   -0.5111 C.ar    1  LIG1       -0.0498
      2 C           1.1929    1.7373   -0.5030 C.ar    1  LIG1       -0.0501
      3 C          -0.8959    0.8056    0.1684 C.ar    1  LIG1       -0.0578
      4 C           1.8899    0.7228    0.1542 C.ar    1  LIG1       -0.0042
      5 H           1.7666    2.4960   -1.0279 H       1  LIG1        0.0627
      6 C          -0.2285   -0.2090    0.8364 C.ar    1  LIG1       -0.0477
      7 C           1.1650   -0.2609    0.8371 C.ar    1  LIG1        0.0125
      8 H          -0.7999   -0.9672    1.3625 H       1  LIG1        0.0629
      9 H          -1.9821    0.8218    0.1785 H       1  LIG1        0.0621
     10 C          -0.9226    2.9218   -1.2093 C.3     1  LIG1       -0.0397
     11 H          -0.2853    3.4079   -1.9512 H       1  LIG1        0.0278
     12 H          -1.2435    3.6902   -0.4979 H       1  LIG1        0.0278
     13 H          -1.8185    2.5587   -1.7197 H       1  LIG1        0.0278
     14 S           2.0627   -1.5387    1.6963 S.3     1  LIG1       -0.1420
     15 H           0.9808   -2.2316    2.0865 H       1  LIG1        0.1071
     16 C           4.0881   -0.0487   -0.8203 C.ar    1  LIG1       -0.0421
     17 C           5.4777    0.0153   -0.8033 C.ar    1  LIG1       -0.0495
     18 C           3.3834    0.7154    0.1225 C.ar    1  LIG1       -0.0129
     19 C           6.1886    0.7954    0.1080 C.ar    1  LIG1       -0.0042
     20 H           6.0414   -0.5660   -1.5273 H       1  LIG1        0.0627
     21 C           4.0793    1.5081    1.0306 C.ar    1  LIG1       -0.0400
     22 C           5.4715    1.5560    1.0370 C.ar    1  LIG1        0.0130
     23 H           3.5121    2.0978    1.7439 H       1  LIG1        0.0635
     24 C           3.3720   -0.9119   -1.8241 C.3     1  LIG1       -0.0391
     25 H           4.0795   -1.3682   -2.5194 H       1  LIG1        0.0278
     26 H           2.6478   -0.3339   -2.4047 H       1  LIG1        0.0278
     27 H           2.8190   -1.7155   -1.3286 H       1  LIG1        0.0278
     28 S           6.3728    2.5813    2.1824 S.3     1  LIG1       -0.1420
     29 H           5.3019    2.9762    2.8894 H       1  LIG1        0.1071
     30 C           8.4459   -0.0087    0.9032 C.ar    1  LIG1       -0.0421
     31 C           9.8310    0.0498    0.7873 C.ar    1  LIG1       -0.0495
     32 C           7.6812    0.8134    0.0614 C.ar    1  LIG1       -0.0129
     33 C          10.4809    0.8878   -0.1184 C.ar    1  LIG1       -0.0042
     34 H          10.4407   -0.5802    1.4285 H       1  LIG1        0.0627
     35 C           8.3155    1.6447   -0.8573 C.ar    1  LIG1       -0.0400
     36 C           9.7041    1.6939   -0.9565 C.ar    1  LIG1        0.0130
     37 H           7.7025    2.2631   -1.5054 H       1  LIG1        0.0635
     38 C           7.7972   -0.9290    1.9021 C.3     1  LIG1       -0.0391
     39 H           8.5444   -1.5479    2.4028 H       1  LIG1        0.0278
     40 H           7.0706   -1.5913    1.4235 H       1  LIG1        0.0278
     41 H           7.2592   -0.3623    2.6679 H       1  LIG1        0.0278
     42 S          10.5263    2.7406   -2.1415 S.3     1  LIG1       -0.1420
     43 H           9.4156    3.3548   -2.5795 H       1  LIG1        0.1071
     44 C          12.7236    1.8549    0.5140 C.ar    1  LIG1       -0.0426
     45 C          14.1122    1.7846    0.4297 C.ar    1  LIG1       -0.0572
     46 C          11.9733    0.8933   -0.1812 C.ar    1  LIG1       -0.0129
     47 C          14.7541    0.8072   -0.3175 C.ar    1  LIG1       -0.0483
     48 H          14.7096    2.5197    0.9608 H       1  LIG1        0.0621
     49 C          12.6165   -0.0978   -0.9203 C.ar    1  LIG1       -0.0406
     50 C          14.0055   -0.1469   -0.9994 C.ar    1  LIG1        0.0053
     51 H          12.0119   -0.8364   -1.4371 H       1  LIG1        0.0635
     52 H          15.8379    0.7913   -0.3717 H       1  LIG1        0.0629
     53 C          12.0558    2.9303    1.3284 C.3     1  LIG1       -0.0391
     54 H          12.7961    3.5264    1.8660 H       1  LIG1        0.0278
     55 H          11.3627    2.5066    2.0603 H       1  LIG1        0.0278
     56 H          11.4767    3.6055    0.6913 H       1  LIG1        0.0278
     57 S          14.8723   -1.4047   -1.9149 S.3     1  LIG1       -0.1426
     58 H          13.8202   -1.8447   -2.6229 H       1  LIG1        0.1071
@<TRIPOS>BOND
     1    58    57    1
     2    43    42    1
     3    25    24    1
     4    26    24    1
     5    42    36    1
     6    11    10    1
     7    57    50    1
     8    24    27    1
     9    24    16    1
    10    13    10    1
    11    20    17    1
    12    37    35    1
    13    51    49    1
    14    10     1    1
    15    10    12    1
    16     5     2    1
    17    50    49   ar
    18    50    47   ar
    19    36    35   ar
    20    36    33   ar
    21    49    46   ar
    22    35    32   ar
    23    16    17   ar
    24    16    18   ar
    25    17    19   ar
    26     1     2   ar
    27     1     3   ar
    28     2     4   ar
    29    52    47    1
    30    47    45   ar
    31    46    33    1
    32    46    44   ar
    33    33    31   ar
    34    32    19    1
    35    32    30   ar
    36    19    22   ar
    37    18     4    1
    38    18    21   ar
    39     4     7   ar
    40     3     9    1
    41     3     6   ar
    42    45    44   ar
    43    45    48    1
    44    44    53    1
    45    56    53    1
    46    31    30   ar
    47    31    34    1
    48     6     7   ar
    49     6     8    1
    50     7    14    1
    51    30    38    1
    52    21    22   ar
    53    21    23    1
    54    22    28    1
    55    53    54    1
    56    53    55    1
    57    40    38    1
    58    14    15    1
    59    38    39    1
    60    38    41    1
    61    28    29    1
