@<TRIPOS>MOLECULE
mol_data/opt/cam/geoms/mol2/4ig4ig-4ig4ig-.out
 58 61 0 0 0
SMALL
GASTEIGER

@<TRIPOS>ATOM
      1 C          -0.1986    1.7934   -0.5064 C.ar    1  LIG1       -0.0498
      2 C           1.1915    1.7292   -0.5001 C.ar    1  LIG1       -0.0501
      3 C          -0.8956    0.8030    0.1841 C.ar    1  LIG1       -0.0578
      4 C           1.8903    0.7217    0.1660 C.ar    1  LIG1       -0.0042
      5 H           1.7639    2.4830   -1.0336 H       1  LIG1        0.0627
      6 C          -0.2264   -0.2045    0.8610 C.ar    1  LIG1       -0.0477
      7 C           1.1671   -0.2556    0.8599 C.ar    1  LIG1        0.0125
      8 H          -0.7965   -0.9577    1.3957 H       1  LIG1        0.0629
      9 H          -1.9818    0.8187    0.1960 H       1  LIG1        0.0621
     10 C          -0.9260    2.9054   -1.2145 C.3     1  LIG1       -0.0397
     11 H          -0.2902    3.3845   -1.9623 H       1  LIG1        0.0278
     12 H          -1.2461    3.6806   -0.5102 H       1  LIG1        0.0278
     13 H          -1.8225    2.5367   -1.7198 H       1  LIG1        0.0278
     14 S           2.0670   -1.5242    1.7301 S.3     1  LIG1       -0.1420
     15 H           0.9863   -2.2139    2.1290 H       1  LIG1        0.1071
     16 C           4.0872   -0.0581   -0.8047 C.ar    1  LIG1       -0.0421
     17 C           5.4768    0.0069   -0.7908 C.ar    1  LIG1       -0.0495
     18 C           3.3837    0.7148    0.1317 C.ar    1  LIG1       -0.0129
     19 C           6.1888    0.7962    0.1116 C.ar    1  LIG1       -0.0042
     20 H           6.0395   -0.5811   -1.5100 H       1  LIG1        0.0627
     21 C           4.0807    1.5169    1.0308 C.ar    1  LIG1       -0.0400
     22 C           5.4728    1.5656    1.0344 C.ar    1  LIG1        0.0130
     23 H           3.5144    2.1132    1.7393 H       1  LIG1        0.0635
     24 C           3.3699   -0.9315   -1.7987 C.3     1  LIG1       -0.0391
     25 H           4.0764   -1.3941   -2.4908 H       1  LIG1        0.0278
     26 H           2.6442   -0.3597   -2.3837 H       1  LIG1        0.0278
     27 H           2.8183   -1.7306   -1.2944 H       1  LIG1        0.0278
     28 S           6.3755    2.6026    2.1680 S.3     1  LIG1       -0.1420
     29 H           5.3056    3.0039    2.8729 H       1  LIG1        0.1071
     30 C           8.4480    0.0015    0.9109 C.ar    1  LIG1       -0.0421
     31 C           9.8328    0.0596    0.7919 C.ar    1  LIG1       -0.0495
     32 C           7.6813    0.8146    0.0622 C.ar    1  LIG1       -0.0129
     33 C          10.4806    0.8888   -0.1233 C.ar    1  LIG1       -0.0042
     34 H          10.4440   -0.5636    1.4383 H       1  LIG1        0.0627
     35 C           8.3135    1.6370   -0.8659 C.ar    1  LIG1       -0.0400
     36 C           9.7019    1.6860   -0.9680 C.ar    1  LIG1        0.0130
     37 H           7.6991    2.2485   -1.5192 H       1  LIG1        0.0635
     38 C           7.8015   -0.9092    1.9200 C.3     1  LIG1       -0.0391
     39 H           8.5500   -1.5224    2.4257 H       1  LIG1        0.0278
     40 H           7.0746   -1.5768    1.4493 H       1  LIG1        0.0278
     41 H           7.2643   -0.3352    2.6809 H       1  LIG1        0.0278
     42 S          10.5215    2.7211   -2.1650 S.3     1  LIG1       -0.1420
     43 H           9.4096    3.3303   -2.6072 H       1  LIG1        0.1071
     44 C          12.7239    1.8634    0.4954 C.ar    1  LIG1       -0.0426
     45 C          14.1124    1.7931    0.4094 C.ar    1  LIG1       -0.0572
     46 C          11.9729    0.8945   -0.1888 C.ar    1  LIG1       -0.0129
     47 C          14.7535    0.8086   -0.3291 C.ar    1  LIG1       -0.0483
     48 H          14.7103    2.5338    0.9320 H       1  LIG1        0.0621
     49 C          12.6154   -0.1036   -0.9190 C.ar    1  LIG1       -0.0406
     50 C          14.0042   -0.1528   -1.0001 C.ar    1  LIG1        0.0053
     51 H          12.0103   -0.8478   -1.4273 H       1  LIG1        0.0635
     52 H          15.8372    0.7927   -0.3852 H       1  LIG1        0.0629
     53 C          12.0569    2.9466    1.3002 C.3     1  LIG1       -0.0391
     54 H          12.7978    3.5484    1.8305 H       1  LIG1        0.0278
     55 H          11.3652    2.5298    2.0374 H       1  LIG1        0.0278
     56 H          11.4764    3.6151    0.6573 H       1  LIG1        0.0278
     57 S          14.8701   -1.4193   -1.9044 S.3     1  LIG1       -0.1426
     58 H          13.8172   -1.8664   -2.6067 H       1  LIG1        0.1071
@<TRIPOS>BOND
     1    43    42    1
     2    58    57    1
     3    25    24    1
     4    26    24    1
     5    42    36    1
     6    11    10    1
     7    57    50    1
     8    24    27    1
     9    24    16    1
    10    13    10    1
    11    37    35    1
    12    20    17    1
    13    51    49    1
    14    10    12    1
    15    10     1    1
    16     5     2    1
    17    50    49   ar
    18    50    47   ar
    19    36    35   ar
    20    36    33   ar
    21    49    46   ar
    22    35    32   ar
    23    16    17   ar
    24    16    18   ar
    25    17    19   ar
    26     1     2   ar
    27     1     3   ar
    28     2     4   ar
    29    52    47    1
    30    47    45   ar
    31    46    33    1
    32    46    44   ar
    33    33    31   ar
    34    32    19    1
    35    32    30   ar
    36    19    22   ar
    37    18     4    1
    38    18    21   ar
    39     4     7   ar
    40     3     9    1
    41     3     6   ar
    42    45    44   ar
    43    45    48    1
    44    44    53    1
    45    56    53    1
    46    31    30   ar
    47    31    34    1
    48     7     6   ar
    49     7    14    1
    50     6     8    1
    51    30    38    1
    52    21    22   ar
    53    21    23    1
    54    22    28    1
    55    53    54    1
    56    53    55    1
    57    40    38    1
    58    14    15    1
    59    38    39    1
    60    38    41    1
    61    28    29    1
