@<TRIPOS>MOLECULE
mol_data/opt/cam/geoms/mol2/4ig4ig-.out
 30 31 0 0 0
SMALL
GASTEIGER

@<TRIPOS>ATOM
      1 C          -0.0281    0.2370   -0.7652 C.ar    1  LIG1       -0.0498
      2 C           1.3619    0.2956   -0.7956 C.ar    1  LIG1       -0.0501
      3 C          -0.6886    1.0196    0.1808 C.ar    1  LIG1       -0.0578
      4 C           2.0959    1.1008    0.0761 C.ar    1  LIG1       -0.0042
      5 H           1.9067   -0.3061   -1.5177 H       1  LIG1        0.0627
      6 C           0.0153    1.8349    1.0530 C.ar    1  LIG1       -0.0477
      7 C           1.4083    1.8851    1.0099 C.ar    1  LIG1        0.0125
      8 H          -0.5271    2.4390    1.7735 H       1  LIG1        0.0629
      9 H          -1.7732    0.9948    0.2367 H       1  LIG1        0.0621
     10 C          -0.7951   -0.6230   -1.7343 C.3     1  LIG1       -0.0397
     11 H          -0.1584   -1.3950   -2.1721 H       1  LIG1        0.0278
     12 H          -1.2011   -0.0260   -2.5579 H       1  LIG1        0.0278
     13 H          -1.6391   -1.1181   -1.2465 H       1  LIG1        0.0278
     14 S           2.3492    2.9348    2.1005 S.3     1  LIG1       -0.1420
     15 H           1.2977    3.3775    2.8085 H       1  LIG1        0.1071
     16 C           4.3761    0.3175    0.8255 C.ar    1  LIG1       -0.0426
     17 C           5.7589    0.3657    0.6635 C.ar    1  LIG1       -0.0572
     18 C           3.5871    1.1167   -0.0169 C.ar    1  LIG1       -0.0129
     19 C           6.3590    1.1755   -0.2901 C.ar    1  LIG1       -0.0483
     20 H           6.3856   -0.2459    1.3058 H       1  LIG1        0.0621
     21 C           4.1876    1.9208   -0.9839 C.ar    1  LIG1       -0.0406
     22 C           5.5718    1.9614   -1.1260 C.ar    1  LIG1        0.0053
     23 H           3.5531    2.5204   -1.6289 H       1  LIG1        0.0635
     24 H           7.4404    1.1971   -0.3795 H       1  LIG1        0.0629
     25 C           3.7558   -0.5683    1.8726 C.3     1  LIG1       -0.0391
     26 H           4.5169   -1.1732    2.3696 H       1  LIG1        0.0278
     27 H           3.0143   -1.2443    1.4376 H       1  LIG1        0.0278
     28 H           3.2430    0.0236    2.6366 H       1  LIG1        0.0278
     29 S           6.3822    2.9596   -2.3579 S.3     1  LIG1       -0.1426
     30 H           5.3195    3.7138   -2.6793 H       1  LIG1        0.1071
@<TRIPOS>BOND
     1    30    29    1
     2    12    10    1
     3    29    22    1
     4    11    10    1
     5    10    13    1
     6    10     1    1
     7    23    21    1
     8     5     2    1
     9    22    21   ar
    10    22    19   ar
    11    21    18   ar
    12     2     1   ar
    13     2     4   ar
    14     1     3   ar
    15    24    19    1
    16    19    17   ar
    17    18     4    1
    18    18    16   ar
    19     4     7   ar
    20     3     9    1
    21     3     6   ar
    22    17    16   ar
    23    17    20    1
    24    16    25    1
    25     7     6   ar
    26     7    14    1
    27     6     8    1
    28    27    25    1
    29    25    26    1
    30    25    28    1
    31    14    15    1
