@<TRIPOS>MOLECULE
mol_data/opt/cam/geoms/mol2/4ig4ig-4ig-4ig-.out
 58 61 0 0 0
SMALL
GASTEIGER

@<TRIPOS>ATOM
      1 C          -0.1977    1.7677   -0.5623 C.ar    1  LIG1       -0.0498
      2 C           1.1926    1.7067   -0.5469 C.ar    1  LIG1       -0.0501
      3 C          -0.8964    0.7892    0.1432 C.ar    1  LIG1       -0.0578
      4 C           1.8897    0.7139    0.1424 C.ar    1  LIG1       -0.0042
      5 H           1.7663    2.4514   -1.0915 H       1  LIG1        0.0627
      6 C          -0.2289   -0.2036    0.8431 C.ar    1  LIG1       -0.0477
      7 C           1.1647   -0.2515    0.8509 C.ar    1  LIG1        0.0125
      8 H          -0.8004   -0.9477    1.3890 H       1  LIG1        0.0629
      9 H          -1.9826    0.8026    0.1486 H       1  LIG1        0.0621
     10 C          -0.9233    2.8642   -1.2958 C.3     1  LIG1       -0.0397
     11 H          -0.2845    3.3300   -2.0493 H       1  LIG1        0.0278
     12 H          -1.2488    3.6523   -0.6083 H       1  LIG1        0.0278
     13 H          -1.8164    2.4839   -1.7986 H       1  LIG1        0.0278
     14 S           2.0624   -1.5011    1.7505 S.3     1  LIG1       -0.1420
     15 H           0.9809   -2.1854    2.1565 H       1  LIG1        0.1071
     16 C           4.0938   -0.0795   -0.8006 C.ar    1  LIG1       -0.0421
     17 C           5.4831   -0.0111   -0.7800 C.ar    1  LIG1       -0.0495
     18 C           3.3833    0.7098    0.1167 C.ar    1  LIG1       -0.0129
     19 C           6.1883    0.7972    0.1109 C.ar    1  LIG1       -0.0042
     20 H           6.0513   -0.6117   -1.4846 H       1  LIG1        0.0627
     21 C           4.0734    1.5306    1.0040 C.ar    1  LIG1       -0.0400
     22 C           5.4654    1.5826    1.0145 C.ar    1  LIG1        0.0130
     23 H           3.5018    2.1392    1.6976 H       1  LIG1        0.0635
     24 C           3.3841   -0.9737   -1.7816 C.3     1  LIG1       -0.0391
     25 H           4.0956   -1.4481   -2.4604 H       1  LIG1        0.0278
     26 H           2.6606   -0.4149   -2.3817 H       1  LIG1        0.0278
     27 H           2.8312   -1.7640   -1.2650 H       1  LIG1        0.0278
     28 S           6.3594    2.6435    2.1329 S.3     1  LIG1       -0.1420
     29 H           5.2846    3.0558    2.8238 H       1  LIG1        0.1071
     30 C           8.4446    0.0233    0.9382 C.ar    1  LIG1       -0.0421
     31 C           9.8300    0.0823    0.8260 C.ar    1  LIG1       -0.0495
     32 C           7.6810    0.8181    0.0696 C.ar    1  LIG1       -0.0129
     33 C          10.4812    0.8951   -0.1014 C.ar    1  LIG1       -0.0042
     34 H          10.4389   -0.5269    1.4878 H       1  LIG1        0.0627
     35 C           8.3167    1.6237   -0.8707 C.ar    1  LIG1       -0.0400
     36 C           9.7055    1.6739   -0.9659 C.ar    1  LIG1        0.0130
     37 H           7.7046    2.2210   -1.5392 H       1  LIG1        0.0635
     38 C           7.7945   -0.8691    1.9612 C.3     1  LIG1       -0.0391
     39 H           8.5414   -1.4710    2.4827 H       1  LIG1        0.0278
     40 H           7.0715   -1.5472    1.4994 H       1  LIG1        0.0278
     41 H           7.2519   -0.2817    2.7079 H       1  LIG1        0.0278
     42 S          10.5296    2.6876   -2.1781 S.3     1  LIG1       -0.1420
     43 H           9.4190    3.2855   -2.6383 H       1  LIG1        0.1071
     44 C          12.7187    1.8867    0.5110 C.ar    1  LIG1       -0.0426
     45 C          14.1078    1.8179    0.4341 C.ar    1  LIG1       -0.0572
     46 C          11.9738    0.9029   -0.1586 C.ar    1  LIG1       -0.0129
     47 C          14.7554    0.8208   -0.2815 C.ar    1  LIG1       -0.0483
     48 H          14.7011    2.5700    0.9457 H       1  LIG1        0.0621
     49 C          12.6226   -0.1076   -0.8657 C.ar    1  LIG1       -0.0406
     50 C          14.0120   -0.1551   -0.9379 C.ar    1  LIG1        0.0053
     51 H          12.0221   -0.8629   -1.3629 H       1  LIG1        0.0635
     52 H          15.8394    0.8063   -0.3310 H       1  LIG1        0.0629
     53 C          12.0448    2.9837    1.2907 C.3     1  LIG1       -0.0391
     54 H          12.7813    3.5974    1.8134 H       1  LIG1        0.0278
     55 H          11.3499    2.5797    2.0320 H       1  LIG1        0.0278
     56 H          11.4664    3.6382    0.6318 H       1  LIG1        0.0278
     57 S          14.8859   -1.4368   -1.8127 S.3     1  LIG1       -0.1426
     58 H          13.8378   -1.9006   -2.5114 H       1  LIG1        0.1071
@<TRIPOS>BOND
     1    43    42    1
     2    58    57    1
     3    25    24    1
     4    26    24    1
     5    42    36    1
     6    11    10    1
     7    57    50    1
     8    13    10    1
     9    24    27    1
    10    24    16    1
    11    37    35    1
    12    20    17    1
    13    51    49    1
    14    10    12    1
    15    10     1    1
    16     5     2    1
    17    36    35   ar
    18    36    33   ar
    19    50    49   ar
    20    50    47   ar
    21    35    32   ar
    22    49    46   ar
    23    16    17   ar
    24    16    18   ar
    25    17    19   ar
    26     1     2   ar
    27     1     3   ar
    28     2     4   ar
    29    52    47    1
    30    47    45   ar
    31    46    33    1
    32    46    44   ar
    33    33    31   ar
    34    32    19    1
    35    32    30   ar
    36    19    22   ar
    37    18     4    1
    38    18    21   ar
    39     4     7   ar
    40     3     9    1
    41     3     6   ar
    42    45    44   ar
    43    45    48    1
    44    44    53    1
    45    56    53    1
    46    31    30   ar
    47    31    34    1
    48     6     7   ar
    49     6     8    1
    50     7    14    1
    51    30    38    1
    52    21    22   ar
    53    21    23    1
    54    22    28    1
    55    53    54    1
    56    53    55    1
    57    40    38    1
    58    14    15    1
    59    38    39    1
    60    38    41    1
    61    28    29    1
