@<TRIPOS>MOLECULE
mol_data/opt/cam/geoms/mol2/4ig4ig4ig-.out
 44 46 0 0 0
SMALL
GASTEIGER

@<TRIPOS>ATOM
      1 C          -0.1376    1.0310   -0.9911 C.ar    1  LIG1       -0.0498
      2 C           1.2539    1.0290   -0.9837 C.ar    1  LIG1       -0.0501
      3 C          -0.7918    0.8618    0.2285 C.ar    1  LIG1       -0.0578
      4 C           1.9954    0.8666    0.1873 C.ar    1  LIG1       -0.0042
      5 H           1.7935    1.1533   -1.9184 H       1  LIG1        0.0627
      6 C          -0.0801    0.7069    1.4075 C.ar    1  LIG1       -0.0477
      7 C           1.3146    0.7083    1.4000 C.ar    1  LIG1        0.0125
      8 H          -0.6173    0.5849    2.3428 H       1  LIG1        0.0629
      9 H          -1.8776    0.8531    0.2598 H       1  LIG1        0.0621
     10 C          -0.9125    1.2292   -2.2668 C.3     1  LIG1       -0.0397
     11 H          -0.2836    1.0641   -3.1443 H       1  LIG1        0.0278
     12 H          -1.3111    2.2470   -2.3340 H       1  LIG1        0.0278
     13 H          -1.7625    0.5442   -2.3273 H       1  LIG1        0.0278
     14 S           2.2671    0.5316    2.8959 S.3     1  LIG1       -0.1420
     15 H           1.2166    0.3359    3.7090 H       1  LIG1        0.1071
     16 C           4.2237   -0.3159    0.0632 C.ar    1  LIG1       -0.0421
     17 C           5.6093   -0.2232   -0.0203 C.ar    1  LIG1       -0.0495
     18 C           3.4877    0.8775    0.1213 C.ar    1  LIG1       -0.0129
     19 C           6.2871    0.9952   -0.0431 C.ar    1  LIG1       -0.0042
     20 H           6.1969   -1.1354   -0.0690 H       1  LIG1        0.0627
     21 C           4.1498    2.1013    0.0860 C.ar    1  LIG1       -0.0400
     22 C           5.5387    2.1755    0.0071 C.ar    1  LIG1        0.0130
     23 H           3.5584    3.0108    0.1206 H       1  LIG1        0.0635
     24 C           3.5448   -1.6592    0.0857 C.3     1  LIG1       -0.0391
     25 H           4.2704   -2.4635   -0.0506 H       1  LIG1        0.0278
     26 H           2.7932   -1.7405   -0.7044 H       1  LIG1        0.0278
     27 H           3.0308   -1.8251    1.0372 H       1  LIG1        0.0278
     28 S           6.3956    3.7365   -0.0585 S.3     1  LIG1       -0.1420
     29 H           5.3091    4.5007    0.1374 H       1  LIG1        0.1071
     30 C           8.5751    1.1382    1.0119 C.ar    1  LIG1       -0.0426
     31 C           9.9586    1.1178    0.8511 C.ar    1  LIG1       -0.0572
     32 C           7.7779    1.0096   -0.1366 C.ar    1  LIG1       -0.0129
     33 C          10.5513    0.9831   -0.3964 C.ar    1  LIG1       -0.0483
     34 H          10.5917    1.2159    1.7280 H       1  LIG1        0.0621
     35 C           8.3714    0.8586   -1.3884 C.ar    1  LIG1       -0.0406
     36 C           9.7562    0.8498   -1.5303 C.ar    1  LIG1        0.0053
     37 H           7.7314    0.7473   -2.2580 H       1  LIG1        0.0635
     38 H          11.6329    0.9868   -0.4858 H       1  LIG1        0.0629
     39 C           7.9618    1.2943    2.3776 C.3     1  LIG1       -0.0391
     40 H           8.7310    1.2796    3.1525 H       1  LIG1        0.0278
     41 H           7.2477    0.4942    2.5905 H       1  LIG1        0.0278
     42 H           7.4180    2.2403    2.4594 H       1  LIG1        0.0278
     43 S          10.5582    0.6393   -3.1066 S.3     1  LIG1       -0.1426
     44 H           9.4907    0.9200   -3.8703 H       1  LIG1        0.1071
@<TRIPOS>BOND
     1    44    43    1
     2    11    10    1
     3    43    36    1
     4    12    10    1
     5    13    10    1
     6    10     1    1
     7    37    35    1
     8     5     2    1
     9    36    35   ar
    10    36    33   ar
    11    35    32   ar
    12     1     2   ar
    13     1     3   ar
    14     2     4   ar
    15    26    24    1
    16    38    33    1
    17    33    31   ar
    18    32    19    1
    19    32    30   ar
    20    20    17    1
    21    28    22    1
    22    28    29    1
    23    25    24    1
    24    19    17   ar
    25    19    22   ar
    26    17    16   ar
    27    22    21   ar
    28    16    24    1
    29    16    18   ar
    30    24    27    1
    31    21    23    1
    32    21    18   ar
    33    18     4    1
    34     4     7   ar
    35     3     9    1
    36     3     6   ar
    37    31    30   ar
    38    31    34    1
    39    30    39    1
    40     7     6   ar
    41     7    14    1
    42     6     8    1
    43    39    42    1
    44    39    41    1
    45    39    40    1
    46    14    15    1
