@<TRIPOS>MOLECULE
mol_data/opt/cam/geoms/mol2/4ig4ig.out
 30 31 0 0 0
SMALL
GASTEIGER

@<TRIPOS>ATOM
      1 C          -0.0336    0.2587   -0.7678 C.ar    1  LIG1       -0.0498
      2 C           1.3566    0.3113   -0.8021 C.ar    1  LIG1       -0.0501
      3 C          -0.6874    1.0322    0.1902 C.ar    1  LIG1       -0.0578
      4 C           2.0971    1.1020    0.0774 C.ar    1  LIG1       -0.0042
      5 H           1.8963   -0.2837   -1.5336 H       1  LIG1        0.0627
      6 C           0.0231    1.8332    1.0704 C.ar    1  LIG1       -0.0477
      7 C           1.4161    1.8775    1.0233 C.ar    1  LIG1        0.0125
      8 H          -0.5142    2.4305    1.8003 H       1  LIG1        0.0629
      9 H          -1.7719    1.0117    0.2493 H       1  LIG1        0.0621
     10 C          -0.8077   -0.5856   -1.7451 C.3     1  LIG1       -0.0397
     11 H          -0.1754   -1.3532   -2.1965 H       1  LIG1        0.0278
     12 H          -1.2157    0.0240   -2.5585 H       1  LIG1        0.0278
     13 H          -1.6509   -1.0848   -1.2604 H       1  LIG1        0.0278
     14 S           2.3655    2.9089    2.1241 S.3     1  LIG1       -0.1420
     15 H           1.3183    3.3474    2.8410 H       1  LIG1        0.1071
     16 C           4.3761    0.2988    0.8092 C.ar    1  LIG1       -0.0426
     17 C           5.7586    0.3428    0.6433 C.ar    1  LIG1       -0.0572
     18 C           3.5880    1.1122   -0.0203 C.ar    1  LIG1       -0.0129
     19 C           6.3593    1.1619   -0.3020 C.ar    1  LIG1       -0.0483
     20 H           6.3845   -0.2798    1.2757 H       1  LIG1        0.0621
     21 C           4.1891    1.9258   -0.9791 C.ar    1  LIG1       -0.0406
     22 C           5.5730    1.9620   -1.1253 C.ar    1  LIG1        0.0053
     23 H           3.5552    2.5365   -1.6143 H       1  LIG1        0.0635
     24 H           7.4405    1.1797   -0.3947 H       1  LIG1        0.0629
     25 C           3.7551   -0.5974    1.8469 C.3     1  LIG1       -0.0391
     26 H           4.5151   -1.2119    2.3339 H       1  LIG1        0.0278
     27 H           3.0094   -1.2646    1.4058 H       1  LIG1        0.0278
     28 H           3.2473   -0.0130    2.6200 H       1  LIG1        0.0278
     29 S           6.3840    2.9720   -2.3470 S.3     1  LIG1       -0.1426
     30 H           5.3238    3.7352   -2.6551 H       1  LIG1        0.1071
@<TRIPOS>BOND
     1    30    29    1
     2    12    10    1
     3    29    22    1
     4    11    10    1
     5    10    13    1
     6    10     1    1
     7    23    21    1
     8     5     2    1
     9    22    21   ar
    10    22    19   ar
    11    21    18   ar
    12     2     1   ar
    13     2     4   ar
    14     1     3   ar
    15    24    19    1
    16    19    17   ar
    17    18     4    1
    18    18    16   ar
    19     4     7   ar
    20     3     9    1
    21     3     6   ar
    22    17    16   ar
    23    17    20    1
    24    16    25    1
    25     7     6   ar
    26     7    14    1
    27     6     8    1
    28    27    25    1
    29    25    26    1
    30    25    28    1
    31    14    15    1
