@<TRIPOS>MOLECULE
mol_data/opt/cam/geoms/mol2/4ig4ig4ig-4ig-.out
 58 61 0 0 0
SMALL
GASTEIGER

@<TRIPOS>ATOM
      1 C          -0.1978    1.7825   -0.5391 C.ar    1  LIG1       -0.0498
      2 C           1.1925    1.7199   -0.5270 C.ar    1  LIG1       -0.0501
      3 C          -0.8963    0.7968    0.1565 C.ar    1  LIG1       -0.0578
      4 C           1.8898    0.7185    0.1495 C.ar    1  LIG1       -0.0042
      5 H           1.7660    2.4701   -1.0643 H       1  LIG1        0.0627
      6 C          -0.2285   -0.2047    0.8438 C.ar    1  LIG1       -0.0477
      7 C           1.1650   -0.2542    0.8482 C.ar    1  LIG1        0.0125
      8 H          -0.7998   -0.9543    1.3821 H       1  LIG1        0.0629
      9 H          -1.9824    0.8114    0.1642 H       1  LIG1        0.0621
     10 C          -0.9235    2.8884   -1.2583 C.3     1  LIG1       -0.0397
     11 H          -0.2874    3.3583   -2.0117 H       1  LIG1        0.0278
     12 H          -1.2413    3.6718   -0.5620 H       1  LIG1        0.0278
     13 H          -1.8212    2.5162   -1.7589 H       1  LIG1        0.0278
     14 S           2.0631   -1.5151    1.7315 S.3     1  LIG1       -0.1420
     15 H           0.9815   -2.2030    2.1317 H       1  LIG1        0.1071
     16 C           4.0911   -0.0664   -0.8071 C.ar    1  LIG1       -0.0421
     17 C           5.4806    0.0000   -0.7883 C.ar    1  LIG1       -0.0495
     18 C           3.3833    0.7128    0.1209 C.ar    1  LIG1       -0.0129
     19 C           6.1884    0.7968    0.1107 C.ar    1  LIG1       -0.0042
     20 H           6.0465   -0.5929   -1.5011 H       1  LIG1        0.0627
     21 C           4.0762    1.5223    1.0166 C.ar    1  LIG1       -0.0400
     22 C           5.4682    1.5723    1.0250 C.ar    1  LIG1        0.0130
     23 H           3.5066    2.1233    1.7184 H       1  LIG1        0.0635
     24 C           3.3784   -0.9482   -1.7970 C.3     1  LIG1       -0.0391
     25 H           4.0878   -1.4149   -2.4832 H       1  LIG1        0.0278
     26 H           2.6538   -0.3818   -2.3886 H       1  LIG1        0.0278
     27 H           2.8262   -1.7443   -1.2886 H       1  LIG1        0.0278
     28 S           6.3657    2.6187    2.1542 S.3     1  LIG1       -0.1420
     29 H           5.2928    3.0243    2.8520 H       1  LIG1        0.1071
     30 C           8.4453    0.0103    0.9245 C.ar    1  LIG1       -0.0421
     31 C           9.8306    0.0688    0.8102 C.ar    1  LIG1       -0.0495
     32 C           7.6811    0.8162    0.0668 C.ar    1  LIG1       -0.0129
     33 C          10.4811    0.8915   -0.1088 C.ar    1  LIG1       -0.0042
     34 H          10.4399   -0.5489    1.4637 H       1  LIG1        0.0627
     35 C           8.3160    1.6321   -0.8652 C.ar    1  LIG1       -0.0400
     36 C           9.7047    1.6815   -0.9625 C.ar    1  LIG1        0.0130
     37 H           7.7035    2.2380   -1.5254 H       1  LIG1        0.0635
     38 C           7.7959   -0.8932    1.9381 C.3     1  LIG1       -0.0391
     39 H           8.5431   -1.5017    2.4515 H       1  LIG1        0.0278
     40 H           7.0717   -1.5653    1.4697 H       1  LIG1        0.0278
     41 H           7.2551   -0.3140    2.6924 H       1  LIG1        0.0278
     42 S          10.5278    2.7082   -2.1644 S.3     1  LIG1       -0.1420
     43 H           9.4171    3.3130   -2.6154 H       1  LIG1        0.1071
     44 C          12.7212    1.8728    0.5106 C.ar    1  LIG1       -0.0426
     45 C          14.1101    1.8029    0.4303 C.ar    1  LIG1       -0.0572
     46 C          11.9736    0.8980   -0.1688 C.ar    1  LIG1       -0.0129
     47 C          14.7548    0.8132   -0.2981 C.ar    1  LIG1       -0.0483
     48 H          14.7055    2.5482    0.9493 H       1  LIG1        0.0621
     49 C          12.6195   -0.1053   -0.8888 C.ar    1  LIG1       -0.0406
     50 C          14.0087   -0.1540   -0.9643 C.ar    1  LIG1        0.0053
     51 H          12.0169   -0.8539   -1.3934 H       1  LIG1        0.0635
     52 H          15.8386    0.7977   -0.3500 H       1  LIG1        0.0629
     53 C          12.0505    2.9618    1.3043 C.3     1  LIG1       -0.0391
     54 H          12.7889    3.5683    1.8327 H       1  LIG1        0.0278
     55 H          11.3564    2.5502    2.0422 H       1  LIG1        0.0278
     56 H          11.4718    3.6247    0.6542 H       1  LIG1        0.0278
     57 S          14.8789   -1.4269   -1.8554 S.3     1  LIG1       -0.1426
     58 H          13.8293   -1.8792   -2.5593 H       1  LIG1        0.1071
@<TRIPOS>BOND
     1    43    42    1
     2    58    57    1
     3    25    24    1
     4    26    24    1
     5    42    36    1
     6    11    10    1
     7    57    50    1
     8    24    27    1
     9    24    16    1
    10    13    10    1
    11    37    35    1
    12    20    17    1
    13    51    49    1
    14    10    12    1
    15    10     1    1
    16     5     2    1
    17    50    49   ar
    18    50    47   ar
    19    36    35   ar
    20    36    33   ar
    21    49    46   ar
    22    35    32   ar
    23    16    17   ar
    24    16    18   ar
    25    17    19   ar
    26     1     2   ar
    27     1     3   ar
    28     2     4   ar
    29    52    47    1
    30    47    45   ar
    31    46    33    1
    32    46    44   ar
    33    33    31   ar
    34    32    19    1
    35    32    30   ar
    36    19    22   ar
    37    18     4    1
    38    18    21   ar
    39     4     7   ar
    40     3     9    1
    41     3     6   ar
    42    45    44   ar
    43    45    48    1
    44    44    53    1
    45    56    53    1
    46    31    30   ar
    47    31    34    1
    48     6     7   ar
    49     6     8    1
    50     7    14    1
    51    30    38    1
    52    21    22   ar
    53    21    23    1
    54    22    28    1
    55    53    54    1
    56    53    55    1
    57    40    38    1
    58    14    15    1
    59    38    39    1
    60    38    41    1
    61    28    29    1
