@<TRIPOS>MOLECULE
mol_data/opt/cam/geoms/mol2/4ig4ig4ig4ig-.out
 58 61 0 0 0
SMALL
GASTEIGER

@<TRIPOS>ATOM
      1 C          -0.1976    1.7886   -0.5306 C.ar    1  LIG1       -0.0498
      2 C           1.1925    1.7254   -0.5197 C.ar    1  LIG1       -0.0501
      3 C          -0.8962    0.7988    0.1591 C.ar    1  LIG1       -0.0578
      4 C           1.8898    0.7194    0.1501 C.ar    1  LIG1       -0.0042
      5 H           1.7661    2.4787   -1.0525 H       1  LIG1        0.0627
      6 C          -0.2285   -0.2073    0.8397 C.ar    1  LIG1       -0.0477
      7 C           1.1650   -0.2574    0.8431 C.ar    1  LIG1        0.0125
      8 H          -0.7998   -0.9601    1.3736 H       1  LIG1        0.0629
      9 H          -1.9824    0.8138    0.1674 H       1  LIG1        0.0621
     10 C          -0.9233    2.8993   -1.2425 C.3     1  LIG1       -0.0397
     11 H          -0.2869    3.3750   -1.9919 H       1  LIG1        0.0278
     12 H          -1.2422    3.6775   -0.5408 H       1  LIG1        0.0278
     13 H          -1.8204    2.5303   -1.7464 H       1  LIG1        0.0278
     14 S           2.0630   -1.5241    1.7181 S.3     1  LIG1       -0.1420
     15 H           0.9814   -2.2140    2.1145 H       1  LIG1        0.1071
     16 C           4.0903   -0.0608   -0.8122 C.ar    1  LIG1       -0.0421
     17 C           5.4798    0.0050   -0.7938 C.ar    1  LIG1       -0.0495
     18 C           3.3833    0.7134    0.1206 C.ar    1  LIG1       -0.0129
     19 C           6.1885    0.7964    0.1095 C.ar    1  LIG1       -0.0042
     20 H           6.0452   -0.5840   -1.5102 H       1  LIG1        0.0627
     21 C           4.0769    1.5175    1.0205 C.ar    1  LIG1       -0.0400
     22 C           5.4690    1.5670    1.0284 C.ar    1  LIG1        0.0130
     23 H           3.5080    2.1147    1.7260 H       1  LIG1        0.0635
     24 C           3.3768   -0.9367   -1.8067 C.3     1  LIG1       -0.0391
     25 H           4.0856   -1.3983   -2.4971 H       1  LIG1        0.0278
     26 H           2.6509   -0.3671   -2.3935 H       1  LIG1        0.0278
     27 H           2.8261   -1.7366   -1.3027 H       1  LIG1        0.0278
     28 S           6.3675    2.6066    2.1631 S.3     1  LIG1       -0.1420
     29 H           5.2951    3.0086    2.8638 H       1  LIG1        0.1071
     30 C           8.4455    0.0043    0.9175 C.ar    1  LIG1       -0.0421
     31 C           9.8307    0.0629    0.8029 C.ar    1  LIG1       -0.0495
     32 C           7.6811    0.8155    0.0648 C.ar    1  LIG1       -0.0129
     33 C          10.4810    0.8907   -0.1118 C.ar    1  LIG1       -0.0042
     34 H          10.4401   -0.5587    1.4525 H       1  LIG1        0.0627
     35 C           8.3159    1.6364   -0.8628 C.ar    1  LIG1       -0.0400
     36 C           9.7046    1.6858   -0.9606 C.ar    1  LIG1        0.0130
     37 H           7.7032    2.2463   -1.5192 H       1  LIG1        0.0635
     38 C           7.7962   -0.9048    1.9262 C.3     1  LIG1       -0.0391
     39 H           8.5435   -1.5157    2.4365 H       1  LIG1        0.0278
     40 H           7.0724   -1.5747    1.4541 H       1  LIG1        0.0278
     41 H           7.2550   -0.3298    2.6835 H       1  LIG1        0.0278
     42 S          10.5274    2.7189   -2.1571 S.3     1  LIG1       -0.1420
     43 H           9.4167    3.3267   -2.6041 H       1  LIG1        0.1071
     44 C          12.7219    1.8679    0.5116 C.ar    1  LIG1       -0.0426
     45 C          14.1107    1.7979    0.4302 C.ar    1  LIG1       -0.0572
     46 C          11.9735    0.8969   -0.1725 C.ar    1  LIG1       -0.0129
     47 C          14.7546    0.8117   -0.3037 C.ar    1  LIG1       -0.0483
     48 H          14.7066    2.5401    0.9529 H       1  LIG1        0.0621
     49 C          12.6187   -0.1029   -0.8981 C.ar    1  LIG1       -0.0406
     50 C          14.0079   -0.1517   -0.9746 C.ar    1  LIG1        0.0053
     51 H          12.0156   -0.8486   -1.4064 H       1  LIG1        0.0635
     52 H          15.8385    0.7961   -0.3561 H       1  LIG1        0.0629
     53 C          12.0519    2.9528    1.3115 C.3     1  LIG1       -0.0391
     54 H          12.7909    3.5557    1.8433 H       1  LIG1        0.0278
     55 H          11.3575    2.5377    2.0470 H       1  LIG1        0.0278
     56 H          11.4739    3.6200    0.6650 H       1  LIG1        0.0278
     57 S          14.8771   -1.4201   -1.8729 S.3     1  LIG1       -0.1426
     58 H          13.8267   -1.8695   -2.5774 H       1  LIG1        0.1071
@<TRIPOS>BOND
     1    43    42    1
     2    58    57    1
     3    25    24    1
     4    26    24    1
     5    42    36    1
     6    11    10    1
     7    57    50    1
     8    24    27    1
     9    24    16    1
    10    13    10    1
    11    37    35    1
    12    20    17    1
    13    51    49    1
    14    10    12    1
    15    10     1    1
    16     5     2    1
    17    50    49   ar
    18    50    47   ar
    19    36    35   ar
    20    36    33   ar
    21    49    46   ar
    22    35    32   ar
    23    16    17   ar
    24    16    18   ar
    25    17    19   ar
    26     1     2   ar
    27     1     3   ar
    28     2     4   ar
    29    52    47    1
    30    47    45   ar
    31    46    33    1
    32    46    44   ar
    33    33    31   ar
    34    32    19    1
    35    32    30   ar
    36    19    22   ar
    37    18     4    1
    38    18    21   ar
    39     4     7   ar
    40     3     9    1
    41     3     6   ar
    42    45    44   ar
    43    45    48    1
    44    44    53    1
    45    56    53    1
    46    31    30   ar
    47    31    34    1
    48     6     7   ar
    49     6     8    1
    50     7    14    1
    51    30    38    1
    52    21    22   ar
    53    21    23    1
    54    22    28    1
    55    53    54    1
    56    53    55    1
    57    40    38    1
    58    14    15    1
    59    38    39    1
    60    38    41    1
    61    28    29    1
