@<TRIPOS>MOLECULE
mol_data/opt/cam/geoms/mol2/4ig4ig4ig.out
 44 46 0 0 0
SMALL
GASTEIGER

@<TRIPOS>ATOM
      1 C          -0.1409    1.0264   -0.9779 C.ar    1  LIG1       -0.0498
      2 C           1.2505    1.0283   -0.9745 C.ar    1  LIG1       -0.0501
      3 C          -0.7911    0.8442    0.2420 C.ar    1  LIG1       -0.0578
      4 C           1.9959    0.8574    0.1928 C.ar    1  LIG1       -0.0042
      5 H           1.7871    1.1626   -1.9096 H       1  LIG1        0.0627
      6 C          -0.0756    0.6806    1.4175 C.ar    1  LIG1       -0.0477
      7 C           1.3190    0.6861    1.4060 C.ar    1  LIG1        0.0125
      8 H          -0.6098    0.5486    2.3531 H       1  LIG1        0.0629
      9 H          -1.8768    0.8321    0.2763 H       1  LIG1        0.0621
     10 C          -0.9201    1.2339   -2.2495 C.3     1  LIG1       -0.0397
     11 H          -0.2932    1.0791   -3.1303 H       1  LIG1        0.0278
     12 H          -1.3221    2.2510   -2.3061 H       1  LIG1        0.0278
     13 H          -1.7680    0.5468   -2.3140 H       1  LIG1        0.0278
     14 S           2.2764    0.4986    2.8975 S.3     1  LIG1       -0.1420
     15 H           1.2288    0.2924    3.7117 H       1  LIG1        0.1071
     16 C           4.2272   -0.3176    0.0516 C.ar    1  LIG1       -0.0421
     17 C           5.6123   -0.2201   -0.0350 C.ar    1  LIG1       -0.0495
     18 C           3.4880    0.8732    0.1226 C.ar    1  LIG1       -0.0129
     19 C           6.2866    1.0004   -0.0486 C.ar    1  LIG1       -0.0042
     20 H           6.2024   -1.1301   -0.0937 H       1  LIG1        0.0627
     21 C           4.1465    2.0992    0.0966 C.ar    1  LIG1       -0.0400
     22 C           5.5349    2.1781    0.0144 C.ar    1  LIG1        0.0130
     23 H           3.5526    3.0066    0.1412 H       1  LIG1        0.0635
     24 C           3.5522   -1.6629    0.0638 C.3     1  LIG1       -0.0391
     25 H           4.2797   -2.4639   -0.0818 H       1  LIG1        0.0278
     26 H           2.7985   -1.7392   -0.7249 H       1  LIG1        0.0278
     27 H           3.0415   -1.8389    1.0152 H       1  LIG1        0.0278
     28 S           6.3872    3.7421   -0.0394 S.3     1  LIG1       -0.1420
     29 H           5.2991    4.5013    0.1665 H       1  LIG1        0.1071
     30 C           8.5772    1.1404    1.0011 C.ar    1  LIG1       -0.0426
     31 C           9.9602    1.1254    0.8362 C.ar    1  LIG1       -0.0572
     32 C           7.7770    1.0199   -0.1463 C.ar    1  LIG1       -0.0129
     33 C          10.5497    1.0037   -0.4143 C.ar    1  LIG1       -0.0483
     34 H          10.5956    1.2174    1.7120 H       1  LIG1        0.0621
     35 C           8.3673    0.8820   -1.4011 C.ar    1  LIG1       -0.0406
     36 C           9.7518    0.8785   -1.5471 C.ar    1  LIG1        0.0053
     37 H           7.7251    0.7769   -2.2699 H       1  LIG1        0.0635
     38 H          11.6310    1.0114   -0.5067 H       1  LIG1        0.0629
     39 C           7.9674    1.2823    2.3699 C.3     1  LIG1       -0.0391
     40 H           8.7388    1.2628    3.1425 H       1  LIG1        0.0278
     41 H           7.2562    0.4782    2.5776 H       1  LIG1        0.0278
     42 H           7.4211    2.2259    2.4619 H       1  LIG1        0.0278
     43 S          10.5498    0.6847   -3.1275 S.3     1  LIG1       -0.1426
     44 H           9.4793    0.9692   -3.8856 H       1  LIG1        0.1071
@<TRIPOS>BOND
     1    44    43    1
     2    11    10    1
     3    43    36    1
     4    13    10    1
     5    12    10    1
     6    37    35    1
     7    10     1    1
     8     5     2    1
     9    36    35   ar
    10    36    33   ar
    11    35    32   ar
    12     1     2   ar
    13     1     3   ar
    14     2     4   ar
    15    26    24    1
    16    38    33    1
    17    33    31   ar
    18    32    19    1
    19    32    30   ar
    20    20    17    1
    21    25    24    1
    22    19    17   ar
    23    19    22   ar
    24    28    22    1
    25    28    29    1
    26    17    16   ar
    27    22    21   ar
    28    16    24    1
    29    16    18   ar
    30    24    27    1
    31    21    18   ar
    32    21    23    1
    33    18     4    1
    34     4     7   ar
    35     3     9    1
    36     3     6   ar
    37    31    30   ar
    38    31    34    1
    39    30    39    1
    40     7     6   ar
    41     7    14    1
    42     6     8    1
    43    39    42    1
    44    39    41    1
    45    39    40    1
    46    14    15    1
