@<TRIPOS>MOLECULE
mol_data/opt/cam/geoms/mol2/4ig4ig-4ig4ig.out
 58 61 0 0 0
SMALL
GASTEIGER

@<TRIPOS>ATOM
      1 C          -0.1991    1.7907   -0.5074 C.ar    1  LIG1       -0.0498
      2 C           1.1911    1.7275   -0.5006 C.ar    1  LIG1       -0.0501
      3 C          -0.8957    0.7968    0.1785 C.ar    1  LIG1       -0.0578
      4 C           1.8903    0.7176    0.1614 C.ar    1  LIG1       -0.0042
      5 H           1.7632    2.4840   -1.0304 H       1  LIG1        0.0627
      6 C          -0.2261   -0.2132    0.8512 C.ar    1  LIG1       -0.0477
      7 C           1.1675   -0.2633    0.8506 C.ar    1  LIG1        0.0125
      8 H          -0.7959   -0.9692    1.3823 H       1  LIG1        0.0629
      9 H          -1.9818    0.8116    0.1899 H       1  LIG1        0.0621
     10 C          -0.9269    2.9053   -1.2109 C.3     1  LIG1       -0.0397
     11 H          -0.2907    3.3889   -1.9555 H       1  LIG1        0.0278
     12 H          -1.2490    3.6766   -0.5032 H       1  LIG1        0.0278
     13 H          -1.8222    2.5379   -1.7192 H       1  LIG1        0.0278
     14 S           2.0679   -1.5351    1.7156 S.3     1  LIG1       -0.1420
     15 H           0.9874   -2.2274    2.1110 H       1  LIG1        0.1071
     16 C           4.0882   -0.0563   -0.8117 C.ar    1  LIG1       -0.0421
     17 C           5.4778    0.0096   -0.7967 C.ar    1  LIG1       -0.0495
     18 C           3.3837    0.7119    0.1279 C.ar    1  LIG1       -0.0129
     19 C           6.1888    0.7954    0.1096 C.ar    1  LIG1       -0.0042
     20 H           6.0413   -0.5748   -1.5183 H       1  LIG1        0.0627
     21 C           4.0797    1.5104    1.0309 C.ar    1  LIG1       -0.0400
     22 C           5.4718    1.5601    1.0354 C.ar    1  LIG1        0.0130
     23 H           3.5126    2.1031    1.7418 H       1  LIG1        0.0635
     24 C           3.3721   -0.9258   -1.8099 C.3     1  LIG1       -0.0391
     25 H           4.0793   -1.3849   -2.5036 H       1  LIG1        0.0278
     26 H           2.6463   -0.3519   -2.3927 H       1  LIG1        0.0278
     27 H           2.8208   -1.7275   -1.3095 H       1  LIG1        0.0278
     28 S           6.3732    2.5926    2.1742 S.3     1  LIG1       -0.1420
     29 H           5.3026    2.9899    2.8804 H       1  LIG1        0.1071
     30 C           8.4481   -0.0015    0.9063 C.ar    1  LIG1       -0.0421
     31 C           9.8330    0.0582    0.7884 C.ar    1  LIG1       -0.0495
     32 C           7.6813    0.8151    0.0610 C.ar    1  LIG1       -0.0129
     33 C          10.4807    0.8922   -0.1225 C.ar    1  LIG1       -0.0042
     34 H          10.4443   -0.5676    1.4322 H       1  LIG1        0.0627
     35 C           8.3134    1.6423   -0.8628 C.ar    1  LIG1       -0.0400
     36 C           9.7018    1.6928   -0.9639 C.ar    1  LIG1        0.0130
     37 H           7.6989    2.2565   -1.5135 H       1  LIG1        0.0635
     38 C           7.8018   -0.9173    1.9108 C.3     1  LIG1       -0.0391
     39 H           8.5504   -1.5324    2.4140 H       1  LIG1        0.0278
     40 H           7.0755   -1.5831    1.4366 H       1  LIG1        0.0278
     41 H           7.2638   -0.3472    2.6742 H       1  LIG1        0.0278
     42 S          10.5213    2.7342   -2.1556 S.3     1  LIG1       -0.1420
     43 H           9.4092    3.3446   -2.5955 H       1  LIG1        0.1071
     44 C          12.7229    1.8655    0.5019 C.ar    1  LIG1       -0.0426
     45 C          14.1115    1.7966    0.4163 C.ar    1  LIG1       -0.0572
     46 C          11.9730    0.8993   -0.1872 C.ar    1  LIG1       -0.0129
     47 C          14.7537    0.8160   -0.3264 C.ar    1  LIG1       -0.0483
     48 H          14.7086    2.5353    0.9427 H       1  LIG1        0.0621
     49 C          12.6165   -0.0950   -0.9217 C.ar    1  LIG1       -0.0406
     50 C          14.0055   -0.1428   -1.0023 C.ar    1  LIG1        0.0053
     51 H          12.0123   -0.8372   -1.4337 H       1  LIG1        0.0635
     52 H          15.8375    0.8012   -0.3819 H       1  LIG1        0.0629
     53 C          12.0547    2.9445    1.3114 C.3     1  LIG1       -0.0391
     54 H          12.7949    3.5443    1.8449 H       1  LIG1        0.0278
     55 H          11.3630    2.5237    2.0463 H       1  LIG1        0.0278
     56 H          11.4740    3.6155    0.6714 H       1  LIG1        0.0278
     57 S          14.8728   -1.4044   -1.9120 S.3     1  LIG1       -0.1426
     58 H          13.8206   -1.8491   -2.6168 H       1  LIG1        0.1071
@<TRIPOS>BOND
     1    58    57    1
     2    43    42    1
     3    25    24    1
     4    26    24    1
     5    42    36    1
     6    11    10    1
     7    57    50    1
     8    24    27    1
     9    24    16    1
    10    13    10    1
    11    20    17    1
    12    37    35    1
    13    51    49    1
    14    10     1    1
    15    10    12    1
    16     5     2    1
    17    50    49   ar
    18    50    47   ar
    19    36    35   ar
    20    36    33   ar
    21    49    46   ar
    22    35    32   ar
    23    16    17   ar
    24    16    18   ar
    25    17    19   ar
    26     1     2   ar
    27     1     3   ar
    28     2     4   ar
    29    52    47    1
    30    47    45   ar
    31    46    33    1
    32    46    44   ar
    33    33    31   ar
    34    32    19    1
    35    32    30   ar
    36    19    22   ar
    37    18     4    1
    38    18    21   ar
    39     4     7   ar
    40     3     9    1
    41     3     6   ar
    42    45    44   ar
    43    45    48    1
    44    44    53    1
    45    56    53    1
    46    31    30   ar
    47    31    34    1
    48     7     6   ar
    49     7    14    1
    50     6     8    1
    51    30    38    1
    52    21    22   ar
    53    21    23    1
    54    22    28    1
    55    53    54    1
    56    53    55    1
    57    40    38    1
    58    14    15    1
    59    38    39    1
    60    38    41    1
    61    28    29    1
