@<TRIPOS>MOLECULE
mol_data/opt/cam/geoms/mol2/4ig4ig4ig-4ig.out
 58 61 0 0 0
SMALL
GASTEIGER

@<TRIPOS>ATOM
      1 C          -0.1987    1.7885   -0.5169 C.ar    1  LIG1       -0.0498
      2 C           1.1915    1.7252   -0.5088 C.ar    1  LIG1       -0.0501
      3 C          -0.8959    0.7991    0.1748 C.ar    1  LIG1       -0.0578
      4 C           1.8901    0.7196    0.1600 C.ar    1  LIG1       -0.0042
      5 H           1.7639    2.4783   -1.0432 H       1  LIG1        0.0627
      6 C          -0.2268   -0.2067    0.8545 C.ar    1  LIG1       -0.0477
      7 C           1.1668   -0.2568    0.8550 C.ar    1  LIG1        0.0125
      8 H          -0.7969   -0.9592    1.3900 H       1  LIG1        0.0629
      9 H          -1.9820    0.8141    0.1855 H       1  LIG1        0.0621
     10 C          -0.9260    2.8988   -1.2278 C.3     1  LIG1       -0.0397
     11 H          -0.2900    3.3762   -1.9765 H       1  LIG1        0.0278
     12 H          -1.2464    3.6756   -0.5254 H       1  LIG1        0.0278
     13 H          -1.8223    2.5288   -1.7325 H       1  LIG1        0.0278
     14 S           2.0666   -1.5232    1.7287 S.3     1  LIG1       -0.1420
     15 H           0.9858   -2.2128    2.1278 H       1  LIG1        0.1071
     16 C           4.0886   -0.0608   -0.8067 C.ar    1  LIG1       -0.0421
     17 C           5.4781    0.0049   -0.7913 C.ar    1  LIG1       -0.0495
     18 C           3.3836    0.7135    0.1274 C.ar    1  LIG1       -0.0129
     19 C           6.1887    0.7965    0.1103 C.ar    1  LIG1       -0.0042
     20 H           6.0420   -0.5842   -1.5088 H       1  LIG1        0.0627
     21 C           4.0791    1.5177    1.0257 C.ar    1  LIG1       -0.0400
     22 C           5.4712    1.5672    1.0307 C.ar    1  LIG1        0.0130
     23 H           3.5117    2.1151    1.7323 H       1  LIG1        0.0635
     24 C           3.3729   -0.9368   -1.7997 C.3     1  LIG1       -0.0391
     25 H           4.0803   -1.3994   -2.4908 H       1  LIG1        0.0278
     26 H           2.6465   -0.3670   -2.3857 H       1  LIG1        0.0278
     27 H           2.8224   -1.7360   -1.2943 H       1  LIG1        0.0278
     28 S           6.3721    2.6071    2.1632 S.3     1  LIG1       -0.1420
     29 H           5.3011    3.0092    2.8661 H       1  LIG1        0.1071
     30 C           8.4474    0.0049    0.9140 C.ar    1  LIG1       -0.0421
     31 C           9.8324    0.0634    0.7963 C.ar    1  LIG1       -0.0495
     32 C           7.6812    0.8155    0.0625 C.ar    1  LIG1       -0.0129
     33 C          10.4808    0.8905   -0.1203 C.ar    1  LIG1       -0.0042
     34 H          10.4432   -0.5579    1.4450 H       1  LIG1        0.0627
     35 C           8.3140    1.6358   -0.8671 C.ar    1  LIG1       -0.0400
     36 C           9.7025    1.6851   -0.9679 C.ar    1  LIG1        0.0130
     37 H           7.7000    2.2453   -1.5226 H       1  LIG1        0.0635
     38 C           7.8004   -0.9036    1.9247 C.3     1  LIG1       -0.0391
     39 H           8.5488   -1.5148    2.4331 H       1  LIG1        0.0278
     40 H           7.0748   -1.5732    1.4547 H       1  LIG1        0.0278
     41 H           7.2616   -0.3281    2.6833 H       1  LIG1        0.0278
     42 S          10.5228    2.7175   -2.1669 S.3     1  LIG1       -0.1420
     43 H           9.4111    3.3249   -2.6118 H       1  LIG1        0.1071
     44 C          12.7230    1.8681    0.4977 C.ar    1  LIG1       -0.0426
     45 C          14.1116    1.7980    0.4133 C.ar    1  LIG1       -0.0572
     46 C          11.9731    0.8967   -0.1843 C.ar    1  LIG1       -0.0129
     47 C          14.7539    0.8113   -0.3213 C.ar    1  LIG1       -0.0483
     48 H          14.7087    2.5406    0.9342 H       1  LIG1        0.0621
     49 C          12.6167   -0.1036   -0.9106 C.ar    1  LIG1       -0.0406
     50 C          14.0057   -0.1525   -0.9900 C.ar    1  LIG1        0.0053
     51 H          12.0125   -0.8495   -1.4171 H       1  LIG1        0.0635
     52 H          15.8377    0.7956   -0.3761 H       1  LIG1        0.0629
     53 C          12.0548    2.9536    1.2983 C.3     1  LIG1       -0.0391
     54 H          12.7950    3.5569    1.8279 H       1  LIG1        0.0278
     55 H          11.3621    2.5389    2.0357 H       1  LIG1        0.0278
     56 H          11.4752    3.6202    0.6527 H       1  LIG1        0.0278
     57 S          14.8730   -1.4215   -1.8894 S.3     1  LIG1       -0.1426
     58 H          13.8208   -1.8720   -2.5905 H       1  LIG1        0.1071
@<TRIPOS>BOND
     1    43    42    1
     2    58    57    1
     3    25    24    1
     4    26    24    1
     5    42    36    1
     6    11    10    1
     7    57    50    1
     8    24    27    1
     9    24    16    1
    10    13    10    1
    11    37    35    1
    12    20    17    1
    13    51    49    1
    14    10    12    1
    15    10     1    1
    16     5     2    1
    17    50    49   ar
    18    50    47   ar
    19    36    35   ar
    20    36    33   ar
    21    49    46   ar
    22    35    32   ar
    23    16    17   ar
    24    16    18   ar
    25    17    19   ar
    26     1     2   ar
    27     1     3   ar
    28     2     4   ar
    29    52    47    1
    30    47    45   ar
    31    46    33    1
    32    46    44   ar
    33    33    31   ar
    34    32    19    1
    35    32    30   ar
    36    19    22   ar
    37    18     4    1
    38    18    21   ar
    39     4     7   ar
    40     3     9    1
    41     3     6   ar
    42    45    44   ar
    43    45    48    1
    44    44    53    1
    45    56    53    1
    46    31    30   ar
    47    31    34    1
    48     6     7   ar
    49     6     8    1
    50     7    14    1
    51    30    38    1
    52    21    22   ar
    53    21    23    1
    54    22    28    1
    55    53    54    1
    56    53    55    1
    57    40    38    1
    58    14    15    1
    59    38    39    1
    60    38    41    1
    61    28    29    1
