@<TRIPOS>MOLECULE
mol_data/opt/cam/geoms/mol2/4ih12hd-12lh-4if.out
 54 57 0 0 0
SMALL
GASTEIGER

@<TRIPOS>ATOM
      1 C          -0.1490   -0.0812    0.4288 C.ar    1  LIG1       -0.0497
      2 C           1.2153    0.1252    0.5687 C.ar    1  LIG1       -0.0463
      3 C          -0.8360    0.7542   -0.4550 C.ar    1  LIG1       -0.0571
      4 C           1.9139    1.1130   -0.1433 C.ar    1  LIG1        0.0400
      5 H           1.7715   -0.4884    1.2713 H       1  LIG1        0.0628
      6 C          -0.1820    1.7559   -1.1468 C.ar    1  LIG1       -0.0401
      7 C           1.1965    1.9648   -1.0104 C.ar    1  LIG1        0.0354
      8 H          -0.7414    2.4082   -1.8115 H       1  LIG1        0.0636
      9 H          -1.9060    0.6262   -0.5940 H       1  LIG1        0.0621
     10 C          -0.8680   -1.1519    1.2069 C.3     1  LIG1       -0.0397
     11 H          -0.1806   -1.7000    1.8552 H       1  LIG1        0.0278
     12 H          -1.3484   -1.8776    0.5426 H       1  LIG1        0.0278
     13 H          -1.6527   -0.7278    1.8412 H       1  LIG1        0.0278
     14 N           1.7912    3.0080   -1.7006 N.pl3   1  LIG1       -0.3574
     15 H           2.7963    3.0586   -1.6955 H       1  LIG1        0.1423
     16 H           1.3520    3.2724   -2.5675 H       1  LIG1        0.1423
     17 C           3.3632    1.1715    0.0052 C.ar    1  LIG1        0.1594
     18 C           4.3007    0.2083    0.2585 C.ar    1  LIG1        0.0894
     19 C           5.5715    0.8792    0.3154 C.ar    1  LIG1        0.1218
     20 C           5.3268    2.2127    0.0734 C.ar    1  LIG1        0.1935
     21 O           4.0076    2.3912   -0.1128 O.2     1  LIG1       -0.4483
     22 N           4.1215   -1.1486    0.4762 N.pl3   1  LIG1       -0.3540
     23 H           3.3121   -1.5406    0.0148 H       1  LIG1        0.1425
     24 H           4.9543   -1.7019    0.3250 H       1  LIG1        0.1425
     25 N           7.7604   -0.3932    0.7742 N.1     1  LIG1       -0.1907
     26 C           6.7993    0.2234    0.5784 C.1     1  LIG1        0.1050
     27 C           6.1589    3.3781   -0.0180 C.ar    1  LIG1        0.2151
     28 C           7.5036    3.5790   -0.1875 C.ar    1  LIG1        0.1902
     29 C           7.7293    4.9869   -0.1386 C.ar    1  LIG1        0.1141
     30 C           6.5035    5.5645    0.0659 C.ar    1  LIG1        0.1605
     31 O           5.5452    4.5829    0.1090 O.2     1  LIG1       -0.4459
     32 O           8.5017    2.6790   -0.3782 O.3     1  LIG1       -0.4896
     33 C           8.4883    2.0127   -1.6392 C.3     1  LIG1        0.0791
     34 H           9.3089    1.2970   -1.6153 H       1  LIG1        0.0660
     35 H           7.5504    1.4731   -1.7958 H       1  LIG1        0.0660
     36 H           8.6350    2.7263   -2.4576 H       1  LIG1        0.0660
     37 N           8.9833    5.5697   -0.2910 N.pl3   1  LIG1       -0.3522
     38 H           9.6788    4.8914   -0.5735 H       1  LIG1        0.1425
     39 H           8.9934    6.3897   -0.8823 H       1  LIG1        0.1425
     40 C           6.6548    7.9325    0.8914 C.ar    1  LIG1       -0.0395
     41 C           6.1326    9.2270    0.8375 C.ar    1  LIG1       -0.0547
     42 C           6.0211    6.9455    0.1162 C.ar    1  LIG1        0.0256
     43 C           5.0143    9.5494    0.0874 C.ar    1  LIG1       -0.0199
     44 H           6.6091   10.0036    1.4284 H       1  LIG1        0.0622
     45 C           4.8766    7.2612   -0.6269 C.ar    1  LIG1       -0.0092
     46 C           4.3693    8.5512   -0.6373 C.ar    1  LIG1        0.1176
     47 H           4.3874    6.4776   -1.1985 H       1  LIG1        0.0661
     48 H           4.6162   10.5575    0.0673 H       1  LIG1        0.0654
     49 C           7.7947    7.6199    1.8245 C.3     1  LIG1       -0.0390
     50 H           8.0515    8.4998    2.4182 H       1  LIG1        0.0278
     51 H           8.6936    7.2787    1.3049 H       1  LIG1        0.0278
     52 H           7.5198    6.8171    2.5154 H       1  LIG1        0.0278
     53 O           3.2594    8.8995   -1.3465 O.3     1  LIG1       -0.5067
     54 H           2.8798    8.1100   -1.7492 H       1  LIG1        0.2921
@<TRIPOS>BOND
     1    16    14    1
     2    36    33    1
     3     8     6    1
     4    35    33    1
     5    54    53    1
     6    14    15    1
     7    14     7    1
     8    33    34    1
     9    33    32    1
    10    53    46    1
    11    47    45    1
    12     6     7   ar
    13     6     3   ar
    14     7     4   ar
    15    39    37    1
    16    46    45   ar
    17    46    43   ar
    18    45    42   ar
    19     9     3    1
    20    38    37    1
    21     3     1   ar
    22    32    28    1
    23    37    29    1
    24    28    29   ar
    25    28    27   ar
    26     4    17    1
    27     4     2   ar
    28    29    30   ar
    29    21    17   ar
    30    21    20   ar
    31    27    20    1
    32    27    31   ar
    33    17    18   ar
    34    23    22    1
    35    30    31   ar
    36    30    42    1
    37    48    43    1
    38    20    19   ar
    39    43    41   ar
    40    42    40   ar
    41    18    19   ar
    42    18    22    1
    43    19    26    1
    44    24    22    1
    45     1     2   ar
    46     1    10    1
    47    12    10    1
    48     2     5    1
    49    26    25    3
    50    41    40   ar
    51    41    44    1
    52    40    49    1
    53    10    13    1
    54    10    11    1
    55    51    49    1
    56    49    50    1
    57    49    52    1
