@<TRIPOS>MOLECULE
mol_data/opt/cam/geoms/mol2/4ih12ef-6ee12if.out
 51 54 0 0 0
SMALL
GASTEIGER

@<TRIPOS>ATOM
      1 C           0.0789   -0.4124   -0.5630 C.ar    1  LIG1       -0.0497
      2 C           1.4040   -0.1401   -0.2752 C.ar    1  LIG1       -0.0464
      3 C          -0.7957    0.6757   -0.6486 C.ar    1  LIG1       -0.0571
      4 C           1.8914    1.1610   -0.0629 C.ar    1  LIG1        0.0395
      5 H           2.1048   -0.9640   -0.2164 H       1  LIG1        0.0628
      6 C          -0.3502    1.9657   -0.4537 C.ar    1  LIG1       -0.0401
      7 C           0.9932    2.2497   -0.1585 C.ar    1  LIG1        0.0354
      8 H          -1.0483    2.7953   -0.5232 H       1  LIG1        0.0636
      9 H          -1.8445    0.5063   -0.8778 H       1  LIG1        0.0621
     10 C          -0.4074   -1.8206   -0.7833 C.3     1  LIG1       -0.0397
     11 H           0.4144   -2.5368   -0.7163 H       1  LIG1        0.0278
     12 H          -0.8704   -1.9369   -1.7685 H       1  LIG1        0.0278
     13 H          -1.1574   -2.1068   -0.0387 H       1  LIG1        0.0278
     14 N           1.3534    3.5609    0.0758 N.pl3   1  LIG1       -0.3574
     15 H           2.3264    3.8100    0.0037 H       1  LIG1        0.1423
     16 H           0.7159    4.2557   -0.2791 H       1  LIG1        0.1423
     17 C           3.3096    1.3202    0.2382 C.ar    1  LIG1        0.1565
     18 C           4.2745    0.4475    0.7024 C.ar    1  LIG1        0.1125
     19 C           5.4967    1.1916    0.7250 C.ar    1  LIG1        0.1791
     20 C           5.2223    2.4557    0.2976 C.ar    1  LIG1        0.1808
     21 O           3.8811    2.5275    0.0051 O.2     1  LIG1       -0.4496
     22 C           4.1525   -0.8990    1.1310 C.1     1  LIG1       -0.0622
     23 C           4.0903   -2.0418    1.5049 C.1     1  LIG1       -0.1137
     24 H           4.0331   -3.0493    1.8469 H       1  LIG1        0.1232
     25 O           6.6683    0.6605    1.1337 O.3     1  LIG1       -0.5024
     26 H           7.3091    1.3689    1.2751 H       1  LIG1        0.2923
     27 C           5.7342    4.9351    0.4266 C.ar    1  LIG1        0.1248
     28 C           6.0840    3.6077    0.0883 C.ar    1  LIG1        0.0559
     29 C           7.3467    3.4215   -0.4688 C.ar    1  LIG1       -0.0307
     30 C           8.2140    4.4958   -0.6667 C.ar    1  LIG1        0.0544
     31 C           7.7711    5.7760   -0.2726 C.ar    1  LIG1        0.1231
     32 N           6.5549    5.9674    0.2393 N.ar    1  LIG1       -0.2334
     33 H           7.6473    2.4344   -0.8043 H       1  LIG1        0.0638
     34 C           4.4769    5.2349    1.0521 C.1     1  LIG1       -0.0491
     35 C           3.4428    5.4859    1.6134 C.1     1  LIG1       -0.1124
     36 H           2.5227    5.6860    2.1132 H       1  LIG1        0.1232
     37 C           9.4583    4.2700   -1.3315 C.1     1  LIG1       -0.0674
     38 C          10.4832    4.0243   -1.9131 C.1     1  LIG1       -0.1138
     39 H          11.3912    3.8225   -2.4339 H       1  LIG1        0.1232
     40 C           8.6016    6.9772   -0.4080 C.ar    1  LIG1        0.1607
     41 C           9.8965    7.2674   -0.0815 C.ar    1  LIG1        0.0383
     42 C          10.0534    8.6521   -0.4020 C.ar    1  LIG1        0.1580
     43 C           8.8653    9.0976   -0.8844 C.ar    1  LIG1        0.1342
     44 O           7.9658    8.0797   -0.8835 O.2     1  LIG1       -0.4573
     45 H           8.5188   10.0506   -1.2505 H       1  LIG1        0.1068
     46 C          10.9505    6.4217    0.5515 C.3     1  LIG1       -0.0326
     47 H          11.4869    7.0024    1.3061 H       1  LIG1        0.0280
     48 H          11.6830    6.0765   -0.1835 H       1  LIG1        0.0280
     49 H          10.5243    5.5388    1.0297 H       1  LIG1        0.0280
     50 O          11.2271    9.3062   -0.2012 O.3     1  LIG1       -0.5034
     51 H          11.1130   10.2424   -0.4001 H       1  LIG1        0.2923
@<TRIPOS>BOND
     1    39    38    1
     2    38    37    3
     3    12    10    1
     4    37    30    1
     5    45    43    1
     6    43    44   ar
     7    43    42   ar
     8    44    40   ar
     9     9     3    1
    10    33    29    1
    11    10    11    1
    12    10     1    1
    13    10    13    1
    14    30    29   ar
    15    30    31   ar
    16     3     1   ar
    17     3     6   ar
    18     1     2   ar
    19     8     6    1
    20    29    28   ar
    21     6     7   ar
    22    40    31    1
    23    40    41   ar
    24    42    50    1
    25    42    41   ar
    26    51    50    1
    27    16    14    1
    28     2     5    1
    29     2     4   ar
    30    31    32   ar
    31    48    46    1
    32     7     4   ar
    33     7    14    1
    34    41    46    1
    35     4    17    1
    36    15    14    1
    37    21    17   ar
    38    21    20   ar
    39    28    20    1
    40    28    27   ar
    41    17    18   ar
    42    32    27   ar
    43    20    19   ar
    44    27    34    1
    45    46    49    1
    46    46    47    1
    47    18    19   ar
    48    18    22    1
    49    19    25    1
    50    34    35    3
    51    22    23    3
    52    25    26    1
    53    23    24    1
    54    35    36    1
