@<TRIPOS>MOLECULE
mol_data/opt/cam/geoms/mol2/4ih4fa4al-6eh-.out
 55 58 0 0 0
SMALL
GASTEIGER

@<TRIPOS>ATOM
      1 C          -0.2573    0.1780    0.7653 C.ar    1  LIG1       -0.0498
      2 C           1.1349    0.2132    0.6781 C.ar    1  LIG1       -0.0492
      3 C          -0.9711    1.1653    0.0732 C.ar    1  LIG1       -0.0571
      4 C           1.8292    1.1819   -0.0620 C.ar    1  LIG1        0.0065
      5 H           1.7165   -0.5381    1.2040 H       1  LIG1        0.0627
      6 C          -0.3151    2.1331   -0.6767 C.ar    1  LIG1       -0.0402
      7 C           1.0867    2.1614   -0.7626 C.ar    1  LIG1        0.0325
      8 H          -0.8900    2.8894   -1.2063 H       1  LIG1        0.0636
      9 H          -2.0578    1.1765    0.1184 H       1  LIG1        0.0621
     10 C          -0.9686   -0.8945    1.5569 C.3     1  LIG1       -0.0397
     11 H          -0.2951   -1.3722    2.2745 H       1  LIG1        0.0278
     12 H          -1.3636   -1.6845    0.9052 H       1  LIG1        0.0278
     13 H          -1.8171   -0.4859    2.1163 H       1  LIG1        0.0278
     14 N           1.7137    3.1774   -1.4965 N.pl3   1  LIG1       -0.3575
     15 H           2.6398    2.9417   -1.8294 H       1  LIG1        0.1423
     16 H           1.1392    3.5604   -2.2356 H       1  LIG1        0.1423
     17 C           4.0667    0.0411   -0.4360 C.ar    1  LIG1        0.1252
     18 C           5.4625    0.0585   -0.4134 C.ar    1  LIG1       -0.0119
     19 C           3.3194    1.1840   -0.0766 C.ar    1  LIG1        0.0254
     20 C           6.1755    1.2047   -0.0329 C.ar    1  LIG1       -0.0143
     21 H           6.0063   -0.8293   -0.7296 H       1  LIG1        0.0660
     22 C           4.0483    2.3240    0.2980 C.ar    1  LIG1       -0.0499
     23 C           5.4403    2.3458    0.3220 C.ar    1  LIG1       -0.0532
     24 H           3.4958    3.2107    0.5926 H       1  LIG1        0.0625
     25 O           3.3811   -1.0764   -0.8271 O.3     1  LIG1       -0.5061
     26 H           4.0177   -1.7691   -1.0476 H       1  LIG1        0.2922
     27 H           5.9574    3.2384    0.6584 H       1  LIG1        0.0624
     28 C           8.3749    0.0637    0.3916 C.ar    1  LIG1       -0.0532
     29 C           9.7684    0.0858    0.4196 C.ar    1  LIG1       -0.0499
     30 C           7.6595    1.2003   -0.0060 C.ar    1  LIG1       -0.0143
     31 C          10.4953    1.2250    0.0646 C.ar    1  LIG1        0.0265
     32 H          10.3133   -0.7910    0.7573 H       1  LIG1        0.0625
     33 C           8.3784    2.3482   -0.3839 C.ar    1  LIG1       -0.0116
     34 C           9.7743    2.3647   -0.3576 C.ar    1  LIG1        0.1284
     35 H           7.8323    3.2146   -0.7352 H       1  LIG1        0.0660
     36 H           7.8447   -0.8235    0.7214 H       1  LIG1        0.0624
     37 O          10.5268    3.4257   -0.7613 O.3     1  LIG1       -0.4945
     38 C           9.8778    4.6556   -1.0407 C.3     1  LIG1        0.0788
     39 H          10.6729    5.3707   -1.2550 H       1  LIG1        0.0660
     40 H           9.2181    4.5782   -1.9146 H       1  LIG1        0.0660
     41 H           9.2964    5.0069   -0.1796 H       1  LIG1        0.0660
     42 C          12.7288    2.0547    0.9722 C.ar    1  LIG1        0.1210
     43 C          11.9824    1.2129    0.1092 C.ar    1  LIG1        0.0212
     44 C          12.6879    0.3132   -0.6891 C.ar    1  LIG1       -0.0291
     45 C          14.0871    0.2657   -0.6432 C.ar    1  LIG1        0.0436
     46 C          14.7229    1.1614    0.2369 C.ar    1  LIG1        0.0496
     47 N          14.0750    2.0171    1.0166 N.ar    1  LIG1       -0.2443
     48 H          12.1415   -0.3454   -1.3594 H       1  LIG1        0.0643
     49 H          15.8113    1.1698    0.3054 H       1  LIG1        0.0849
     50 C          12.0866    2.9657    1.8741 C.1     1  LIG1       -0.0492
     51 C          11.5530    3.7212    2.6540 C.1     1  LIG1       -0.1124
     52 H          11.0910    4.3846    3.3472 H       1  LIG1        0.1232
     53 N          14.8167   -0.6519   -1.3885 N.pl3   1  LIG1       -0.3568
     54 H          14.3673   -0.9952   -2.2258 H       1  LIG1        0.1424
     55 H          15.7874   -0.4162   -1.5417 H       1  LIG1        0.1424
@<TRIPOS>BOND
     1    16    14    1
     2    54    53    1
     3    40    38    1
     4    15    14    1
     5    55    53    1
     6    14     7    1
     7    53    45    1
     8    48    44    1
     9    39    38    1
    10     8     6    1
    11    26    25    1
    12    38    37    1
    13    38    41    1
    14    25    17    1
    15     7     6   ar
    16     7     4   ar
    17    37    34    1
    18    35    33    1
    19    21    18    1
    20    44    45   ar
    21    44    43   ar
    22     6     3   ar
    23    45    46   ar
    24    17    18   ar
    25    17    19   ar
    26    18    20   ar
    27    33    34   ar
    28    33    30   ar
    29    34    31   ar
    30    19     4    1
    31    19    22   ar
    32     4     2   ar
    33    20    30    1
    34    20    23   ar
    35    30    28   ar
    36    31    43    1
    37    31    29   ar
    38     3     9    1
    39     3     1   ar
    40    43    42   ar
    41    46    49    1
    42    46    47   ar
    43    22    23   ar
    44    22    24    1
    45    23    27    1
    46    28    29   ar
    47    28    36    1
    48    29    32    1
    49     2     1   ar
    50     2     5    1
    51     1    10    1
    52    12    10    1
    53    42    47   ar
    54    42    50    1
    55    10    13    1
    56    10    11    1
    57    50    51    3
    58    51    52    1
