@<TRIPOS>MOLECULE
mol_data/opt/cam/geoms/mol2/4ih4ih12ef-6ie.out
 56 59 0 0 0
SMALL
GASTEIGER

@<TRIPOS>ATOM
      1 C          -0.2044    0.5352    0.7430 C.ar    1  LIG1       -0.0498
      2 C           1.1845    0.5976    0.7257 C.ar    1  LIG1       -0.0493
      3 C          -0.8765    0.9228   -0.4165 C.ar    1  LIG1       -0.0571
      4 C           1.9079    1.0332   -0.3853 C.ar    1  LIG1        0.0033
      5 H           1.7387    0.3056    1.6137 H       1  LIG1        0.0627
      6 C          -0.1870    1.3611   -1.5338 C.ar    1  LIG1       -0.0402
      7 C           1.2103    1.4293   -1.5398 C.ar    1  LIG1        0.0324
      8 H          -0.7330    1.6611   -2.4241 H       1  LIG1        0.0636
      9 H          -1.9620    0.8808   -0.4470 H       1  LIG1        0.0621
     10 C          -0.9562    0.0901    1.9702 C.3     1  LIG1       -0.0397
     11 H          -0.3036   -0.4473    2.6625 H       1  LIG1        0.0278
     12 H          -1.7873   -0.5725    1.7122 H       1  LIG1        0.0278
     13 H          -1.3790    0.9418    2.5143 H       1  LIG1        0.0278
     14 N           1.8794    1.9177   -2.6619 N.pl3   1  LIG1       -0.3575
     15 H           2.8488    1.6440   -2.7319 H       1  LIG1        0.1423
     16 H           1.3812    1.8013   -3.5321 H       1  LIG1        0.1423
     17 C           4.1771   -0.0828   -0.2073 C.ar    1  LIG1       -0.0419
     18 C           5.5531    0.0620   -0.1553 C.ar    1  LIG1       -0.0458
     19 C           3.3979    1.0843   -0.3353 C.ar    1  LIG1       -0.0114
     20 C           6.2084    1.3003   -0.2275 C.ar    1  LIG1        0.0395
     21 H           6.1608   -0.8293   -0.0581 H       1  LIG1        0.0628
     22 C           4.0305    2.3178   -0.4130 C.ar    1  LIG1       -0.0323
     23 C           5.4217    2.4684   -0.3567 C.ar    1  LIG1        0.0360
     24 H           3.4194    3.2104   -0.5123 H       1  LIG1        0.0642
     25 C           3.5614   -1.4574   -0.1396 C.3     1  LIG1       -0.0391
     26 H           4.3198   -2.2249   -0.3094 H       1  LIG1        0.0278
     27 H           2.7742   -1.5822   -0.8875 H       1  LIG1        0.0278
     28 H           3.1031   -1.6568    0.8338 H       1  LIG1        0.0278
     29 N           5.9449    3.7487   -0.3968 N.pl3   1  LIG1       -0.3574
     30 H           6.9219    3.8446   -0.6167 H       1  LIG1        0.1423
     31 H           5.3451    4.4486   -0.8047 H       1  LIG1        0.1423
     32 C           7.6649    1.3218   -0.1823 C.ar    1  LIG1        0.1565
     33 C           8.6375    0.3593   -0.3675 C.ar    1  LIG1        0.1125
     34 C           9.8906    1.0218   -0.1575 C.ar    1  LIG1        0.1791
     35 C           9.6302    2.3280    0.1281 C.ar    1  LIG1        0.1799
     36 O           8.2665    2.5011    0.1157 O.2     1  LIG1       -0.4497
     37 C           8.5087   -1.0102   -0.7132 C.1     1  LIG1       -0.0622
     38 C           8.4433   -2.1761   -1.0072 C.1     1  LIG1       -0.1137
     39 H           8.3881   -3.2062   -1.2737 H       1  LIG1        0.1232
     40 O          11.0762    0.3807   -0.2418 O.3     1  LIG1       -0.5024
     41 H          11.7672    0.9343    0.1436 H       1  LIG1        0.2923
     42 C          10.1798    4.4772    1.3345 C.ar    1  LIG1        0.0490
     43 C          10.4967    3.4681    0.3957 C.ar    1  LIG1        0.0431
     44 C          11.7097    3.5643   -0.2842 C.ar    1  LIG1       -0.0324
     45 C          12.5792    4.6231   -0.0234 C.ar    1  LIG1        0.0434
     46 C          12.1628    5.5721    0.9122 C.ar    1  LIG1        0.0433
     47 N          11.0059    5.5004    1.5605 N.ar    1  LIG1       -0.2582
     48 H          11.9705    2.8322   -1.0421 H       1  LIG1        0.0638
     49 H          12.8005    6.4215    1.1418 H       1  LIG1        0.0842
     50 C           8.9167    4.4544    2.1480 C.3     1  LIG1       -0.0217
     51 H           8.7754    3.4819    2.6276 H       1  LIG1        0.0293
     52 H           8.0279    4.6277    1.5354 H       1  LIG1        0.0293
     53 H           8.9804    5.2304    2.9098 H       1  LIG1        0.0293
     54 C          13.8342    4.7477   -0.6962 C.1     1  LIG1       -0.0681
     55 C          14.8925    4.8523   -1.2599 C.1     1  LIG1       -0.1139
     56 H          15.8292    4.9479   -1.7594 H       1  LIG1        0.1232
@<TRIPOS>BOND
     1    16    14    1
     2    15    14    1
     3    14     7    1
     4     8     6    1
     5    56    55    1
     6     7     6   ar
     7     7     4   ar
     8     6     3   ar
     9    39    38    1
    10    55    54    3
    11    48    44    1
    12    38    37    3
    13    27    25    1
    14    31    29    1
    15    37    33    1
    16    54    45    1
    17    30    29    1
    18    24    22    1
    19     9     3    1
    20     3     1   ar
    21    22    23   ar
    22    22    19   ar
    23    29    23    1
    24     4    19    1
    25     4     2   ar
    26    33    32   ar
    27    33    34   ar
    28    23    20   ar
    29    19    17   ar
    30    26    25    1
    31    44    45   ar
    32    44    43   ar
    33    40    34    1
    34    40    41    1
    35    20    32    1
    36    20    18   ar
    37    17    18   ar
    38    17    25    1
    39    32    36   ar
    40    34    35   ar
    41    18    21    1
    42    25    28    1
    43    45    46   ar
    44    36    35   ar
    45    35    43    1
    46    43    42   ar
    47     2     1   ar
    48     2     5    1
    49     1    10    1
    50    46    49    1
    51    46    47   ar
    52    42    47   ar
    53    42    50    1
    54    52    50    1
    55    12    10    1
    56    10    13    1
    57    10    11    1
    58    50    51    1
    59    50    53    1
