@<TRIPOS>MOLECULE
mol_data/opt/cam/geoms/mol2/4ii.out
 18 18 0 0 0
SMALL
GASTEIGER

@<TRIPOS>ATOM
      1 C           0.0766    0.0200    0.0134 C.ar    1  LIG1       -0.0504
      2 C           1.4707    0.0292    0.0167 C.ar    1  LIG1       -0.0586
      3 C          -0.5806    1.2493    0.0170 C.ar    1  LIG1       -0.0586
      4 C           2.1807    1.2228    0.0162 C.ar    1  LIG1       -0.0586
      5 H           2.0102   -0.9140    0.0257 H       1  LIG1        0.0620
      6 C           0.1294    2.4430    0.0166 C.ar    1  LIG1       -0.0586
      7 C           1.5234    2.4522    0.0124 C.ar    1  LIG1       -0.0504
      8 H          -0.4102    3.3862    0.0255 H       1  LIG1        0.0620
      9 H           3.2671    1.1989    0.0249 H       1  LIG1        0.0620
     10 H          -1.6670    1.2733    0.0264 H       1  LIG1        0.0620
     11 C          -0.6933   -1.2744   -0.0144 C.3     1  LIG1       -0.0397
     12 H          -0.1426   -2.0772    0.4821 H       1  LIG1        0.0278
     13 H          -0.8855   -1.5992   -1.0429 H       1  LIG1        0.0278
     14 H          -1.6622   -1.1733    0.4807 H       1  LIG1        0.0278
     15 C           2.2934    3.7466   -0.0164 C.3     1  LIG1       -0.0397
     16 H           1.7424    4.5499    0.4790 H       1  LIG1        0.0278
     17 H           2.4861    4.0702   -1.0451 H       1  LIG1        0.0278
     18 H           3.2621    3.6460    0.4794 H       1  LIG1        0.0278
@<TRIPOS>BOND
     1    17    15    1
     2    13    11    1
     3    15     7    1
     4    15    16    1
     5    15    18    1
     6    11     1    1
     7    11    14    1
     8    11    12    1
     9     7     4   ar
    10     7     6   ar
    11     1     2   ar
    12     1     3   ar
    13     4     2   ar
    14     4     9    1
    15     6     3   ar
    16     6     8    1
    17     2     5    1
    18     3    10    1
