@<TRIPOS>MOLECULE
mol_data/opt/cam/geoms/mol2/4ii12aa12af12ed13la-6al6de-12fd.out
 89 96 0 0 0
SMALL
GASTEIGER

@<TRIPOS>ATOM
      1 C           1.7807   -1.2457   -2.6039 C.ar    1  LIG1       -0.0498
      2 C           2.8344   -0.8481   -1.7916 C.ar    1  LIG1       -0.0479
      3 C           0.6882   -0.3868   -2.7136 C.ar    1  LIG1       -0.0586
      4 C           2.8144    0.3609   -1.0860 C.ar    1  LIG1        0.0204
      5 H           3.7142   -1.4801   -1.7153 H       1  LIG1        0.0627
      6 C           0.6529    0.8138   -2.0201 C.ar    1  LIG1       -0.0579
      7 C           1.7013    1.2124   -1.1908 C.ar    1  LIG1       -0.0398
      8 H          -0.2160    1.4576   -2.1189 H       1  LIG1        0.0620
      9 H          -0.1494   -0.6586   -3.3500 H       1  LIG1        0.0620
     10 C           1.8147   -2.5583   -3.3414 C.3     1  LIG1       -0.0397
     11 H           2.8150   -2.9970   -3.3303 H       1  LIG1        0.0278
     12 H           1.5122   -2.4359   -4.3851 H       1  LIG1        0.0278
     13 H           1.1301   -3.2841   -2.8899 H       1  LIG1        0.0278
     14 C           1.5898    2.5094   -0.4304 C.3     1  LIG1       -0.0390
     15 H           0.5630    2.8796   -0.4728 H       1  LIG1        0.0278
     16 H           2.2586    3.2725   -0.8402 H       1  LIG1        0.0278
     17 H           1.8654    2.3834    0.6202 H       1  LIG1        0.0278
     18 C           3.9769    0.6630   -0.2482 C.ar    1  LIG1        0.1361
     19 C           4.8074   -0.1400    0.4809 C.ar    1  LIG1       -0.0151
     20 C           5.8074    0.6986    1.0405 C.ar    1  LIG1       -0.0122
     21 C           5.5228    1.9636    0.6166 C.ar    1  LIG1        0.1707
     22 O           4.4100    1.9524   -0.1634 O.2     1  LIG1       -0.4517
     23 H           4.6980   -1.2051    0.6160 H       1  LIG1        0.0656
     24 H           6.6258    0.4083    1.6822 H       1  LIG1        0.0657
     25 C           6.1925    3.2214    0.8200 C.ar    1  LIG1        0.1744
     26 C           7.4039    3.5199    1.3756 C.ar    1  LIG1        0.0296
     27 C           7.5430    4.9289    1.2869 C.ar    1  LIG1        0.1665
     28 C           6.4035    5.4023    0.6731 C.ar    1  LIG1        0.2131
     29 O           5.5745    4.3432    0.3901 O.2     1  LIG1       -0.4448
     30 H           8.1245    2.8338    1.7921 H       1  LIG1        0.0693
     31 O           8.6070    5.5862    1.7704 O.3     1  LIG1       -0.5031
     32 H           8.6293    6.5015    1.4444 H       1  LIG1        0.2923
     33 C           5.9387    6.7081    0.3269 C.ar    1  LIG1        0.1909
     34 C           6.5555    7.9222    0.1654 C.ar    1  LIG1        0.0916
     35 C           5.5065    8.8767   -0.1250 C.ar    1  LIG1        0.1151
     36 C           4.3330    8.1661   -0.1456 C.ar    1  LIG1        0.1740
     37 O           4.5989    6.8584    0.1347 O.2     1  LIG1       -0.4474
     38 C           7.9437    8.1896    0.2356 C.1     1  LIG1       -0.0644
     39 C           9.1267    8.4181    0.2952 C.1     1  LIG1       -0.1138
     40 H          10.1704    8.6366    0.3152 H       1  LIG1        0.1232
     41 N           5.9727   11.3873   -0.4541 N.1     1  LIG1       -0.1907
     42 C           5.7252   10.2648   -0.3190 C.1     1  LIG1        0.1043
     43 C           2.9486    8.4512   -0.3607 C.ar    1  LIG1        0.1260
     44 C           2.2770    9.5914   -0.7873 C.ar    1  LIG1        0.1489
     45 C           0.8958    9.3104   -0.7862 C.ar    1  LIG1        0.0062
     46 C           0.7463    7.9951   -0.3657 C.ar    1  LIG1        0.0521
     47 N           1.9884    7.4927   -0.1248 N.ar    1  LIG1       -0.3487
     48 H           2.1999    6.5823    0.2520 H       1  LIG1        0.1661
     49 O           2.9301   10.7116   -1.1374 O.3     1  LIG1       -0.4929
     50 C           2.1444   11.8239   -1.5152 C.3     1  LIG1        0.0789
     51 H           2.8450   12.6311   -1.7233 H       1  LIG1        0.0660
     52 H           1.5565   11.6065   -2.4145 H       1  LIG1        0.0660
     53 H           1.4703   12.1253   -0.7052 H       1  LIG1        0.0660
     54 H           0.1002    9.9685   -1.0983 H       1  LIG1        0.0676
     55 C          -0.4204    5.8016   -0.1850 C.ar    1  LIG1        0.0376
     56 C          -0.4586    7.1970   -0.1822 C.ar    1  LIG1        0.0200
     57 C          -1.7031    7.8025    0.0123 C.ar    1  LIG1       -0.0073
     58 C          -2.8282    7.0141    0.2000 C.ar    1  LIG1        0.1466
     59 C          -2.6785    5.6104    0.2136 C.ar    1  LIG1        0.1152
     60 N          -1.4903    5.0461    0.0188 N.ar    1  LIG1       -0.2506
     61 H          -1.7732    8.8820    0.0313 H       1  LIG1        0.0662
     62 H           0.5048    5.2662   -0.3786 H       1  LIG1        0.0836
     63 O          -4.0769    7.5052    0.3808 O.3     1  LIG1       -0.4929
     64 C          -4.2739    8.9047    0.2926 C.3     1  LIG1        0.0789
     65 H          -5.3436    9.0650    0.4188 H       1  LIG1        0.0660
     66 H          -3.7331    9.4366    1.0830 H       1  LIG1        0.0660
     67 H          -3.9624    9.2890   -0.6845 H       1  LIG1        0.0660
     68 C          -3.9447    3.4786   -0.2635 C.ar    1  LIG1        0.1502
     69 C          -3.8176    4.6896    0.4383 C.ar    1  LIG1        0.0410
     70 C          -4.7882    4.9386    1.4023 C.ar    1  LIG1       -0.0321
     71 C          -5.8162    4.0291    1.6445 C.ar    1  LIG1        0.0545
     72 C          -5.8669    2.8688    0.8439 C.ar    1  LIG1        0.1264
     73 N          -4.9369    2.6132   -0.0741 N.ar    1  LIG1       -0.2312
     74 H          -4.7365    5.8399    1.9976 H       1  LIG1        0.0638
     75 N          -2.3503    2.7338   -2.1783 N.1     1  LIG1       -0.1893
     76 C          -3.0236    3.0898   -1.3097 C.1     1  LIG1        0.1198
     77 C          -6.7206    4.2685    2.7226 C.1     1  LIG1       -0.0674
     78 C          -7.4417    4.4953    3.6585 C.1     1  LIG1       -0.1138
     79 H          -8.0934    4.6830    4.4809 H       1  LIG1        0.1232
     80 C          -6.9228    1.8670    0.9656 C.ar    1  LIG1        0.1966
     81 C          -8.2787    1.9113    1.1238 C.ar    1  LIG1        0.1820
     82 C          -8.7434    0.5532    1.0568 C.ar    1  LIG1        0.1315
     83 C          -7.6315   -0.2108    0.8494 C.ar    1  LIG1        0.1137
     84 O          -6.5474    0.5556    0.7858 O.2     1  LIG1       -0.4562
     85 H          -7.4923   -1.2747    0.7393 H       1  LIG1        0.1044
     86 O          -9.0363    3.0112    1.2614 O.3     1  LIG1       -0.5023
     87 H          -9.9677    2.7585    1.3149 H       1  LIG1        0.2923
     88 N         -11.2262   -0.0876    1.2830 N.1     1  LIG1       -0.1906
     89 C         -10.0993    0.1554    1.1761 C.1     1  LIG1        0.1060
@<TRIPOS>BOND
     1    12    10    1
     2     9     3    1
     3    10    11    1
     4    10    13    1
     5    10     1    1
     6     3     1   ar
     7     3     6   ar
     8     1     2   ar
     9    52    50    1
    10    75    76    3
    11     8     6    1
    12     6     7   ar
    13     2     5    1
    14     2     4   ar
    15    51    50    1
    16    50    49    1
    17    50    53    1
    18    76    68    1
    19     7     4   ar
    20     7    14    1
    21    49    44    1
    22    54    45    1
    23     4    18    1
    24    16    14    1
    25    44    45   ar
    26    44    43   ar
    27    45    46   ar
    28    67    64    1
    29    15    14    1
    30    41    42    3
    31    14    17    1
    32    62    55    1
    33    46    56    1
    34    46    47   ar
    35    43    36    1
    36    43    47   ar
    37    42    35    1
    38    68    73   ar
    39    68    69   ar
    40    18    22   ar
    41    18    19   ar
    42    55    56   ar
    43    55    60   ar
    44    56    57   ar
    45    22    21   ar
    46    36    35   ar
    47    36    37   ar
    48    35    34   ar
    49    47    48    1
    50    73    72   ar
    51    57    61    1
    52    57    58   ar
    53    60    59   ar
    54    37    33   ar
    55    34    38    1
    56    34    33   ar
    57    58    59   ar
    58    58    63    1
    59    59    69    1
    60    38    39    3
    61    64    63    1
    62    64    65    1
    63    64    66    1
    64    39    40    1
    65    33    28    1
    66    29    28   ar
    67    29    25   ar
    68    69    70   ar
    69    19    23    1
    70    19    20   ar
    71    21    25    1
    72    21    20   ar
    73    28    27   ar
    74    85    83    1
    75    84    83   ar
    76    84    80   ar
    77    25    26   ar
    78    72    80    1
    79    72    71   ar
    80    83    82   ar
    81    80    81   ar
    82    20    24    1
    83    82    81   ar
    84    82    89    1
    85    81    86    1
    86    89    88    3
    87    86    87    1
    88    27    26   ar
    89    27    31    1
    90    26    30    1
    91    70    71   ar
    92    70    74    1
    93    32    31    1
    94    71    77    1
    95    77    78    3
    96    78    79    1
