@<TRIPOS>MOLECULE
mol_data/opt/cam/geoms/mol2/4ii12ea-6ed-12eh4ai-13ef6eh-6ie-.out
 101 108 0 0 0
SMALL
GASTEIGER

@<TRIPOS>ATOM
      1 C           0.6217   -1.6617    0.7422 C.ar    1  LIG1       -0.0498
      2 C           1.9303   -1.2813    0.4748 C.ar    1  LIG1       -0.0479
      3 C          -0.1447   -0.8246    1.5508 C.ar    1  LIG1       -0.0586
      4 C           2.4827   -0.1028    0.9907 C.ar    1  LIG1        0.0217
      5 H           2.5445   -1.9123   -0.1575 H       1  LIG1        0.0627
      6 C           0.3918    0.3445    2.0682 C.ar    1  LIG1       -0.0579
      7 C           1.7043    0.7372    1.8099 C.ar    1  LIG1       -0.0397
      8 H          -0.2220    0.9742    2.7055 H       1  LIG1        0.0620
      9 H          -1.1718   -1.0923    1.7828 H       1  LIG1        0.0620
     10 C           0.0424   -2.9239    0.1599 C.3     1  LIG1       -0.0397
     11 H           0.8210   -3.5574   -0.2700 H       1  LIG1        0.0278
     12 H          -0.6784   -2.7001   -0.6334 H       1  LIG1        0.0278
     13 H          -0.4846   -3.5065    0.9207 H       1  LIG1        0.0278
     14 C           2.2255    2.0085    2.4288 C.3     1  LIG1       -0.0390
     15 H           1.5245    2.3734    3.1822 H       1  LIG1        0.0278
     16 H           2.3678    2.7946    1.6831 H       1  LIG1        0.0278
     17 H           3.1934    1.8560    2.9131 H       1  LIG1        0.0278
     18 C           3.8740    0.1995    0.6520 C.ar    1  LIG1        0.1512
     19 C           4.9746   -0.5921    0.4031 C.ar    1  LIG1        0.0710
     20 C           6.0476    0.3000    0.0919 C.ar    1  LIG1        0.0003
     21 C           5.5435    1.5607    0.1718 C.ar    1  LIG1        0.1396
     22 O           4.2281    1.4998    0.5111 O.2     1  LIG1       -0.4535
     23 C           5.0683   -2.0089    0.4609 C.1     1  LIG1       -0.0658
     24 C           5.1827   -3.2067    0.5014 C.1     1  LIG1       -0.1138
     25 H           5.2807   -4.2669    0.5476 H       1  LIG1        0.1232
     26 H           7.0539    0.0139   -0.1734 H       1  LIG1        0.0668
     27 C           5.4875    4.0339   -0.4262 C.ar    1  LIG1        0.1246
     28 C           6.1667    2.8642   -0.0138 C.ar    1  LIG1        0.0524
     29 C           7.5319    2.9913    0.2241 C.ar    1  LIG1       -0.0288
     30 C           8.1828    4.2038    0.0280 C.ar    1  LIG1        0.0815
     31 C           7.4261    5.2999   -0.4330 C.ar    1  LIG1        0.1260
     32 N           6.1124    5.1960   -0.6241 N.ar    1  LIG1       -0.2333
     33 H           8.0933    2.1458    0.6042 H       1  LIG1        0.0639
     34 C           4.0787    4.0524   -0.7012 C.1     1  LIG1       -0.0491
     35 C           2.9058    4.1118   -0.9600 C.1     1  LIG1       -0.1124
     36 H           1.8663    4.1541   -1.1931 H       1  LIG1        0.1232
     37 N          10.6642    4.3231    0.7518 N.1     1  LIG1       -0.1908
     38 C           9.5621    4.3013    0.4020 C.1     1  LIG1        0.1014
     39 C           8.0049    6.6097   -0.7213 C.ar    1  LIG1        0.1722
     40 C           9.1611    7.0231   -1.3405 C.ar    1  LIG1        0.0932
     41 C           9.0970    8.4562   -1.3891 C.ar    1  LIG1        0.0873
     42 C           7.9129    8.8108   -0.7960 C.ar    1  LIG1        0.1575
     43 O           7.2482    7.6780   -0.4118 O.2     1  LIG1       -0.4501
     44 C          10.1899    6.2568   -1.9443 C.1     1  LIG1       -0.0639
     45 C          11.0835    5.6672   -2.4955 C.1     1  LIG1       -0.1137
     46 H          11.8746    5.1171   -2.9513 H       1  LIG1        0.1232
     47 N          10.0786    9.2699   -1.9373 N.pl3   1  LIG1       -0.3541
     48 H          10.7587    8.7468   -2.4742 H       1  LIG1        0.1425
     49 H           9.7215   10.0587   -2.4595 H       1  LIG1        0.1425
     50 C           7.9896   11.2822   -0.5671 C.ar    1  LIG1       -0.0504
     51 C           7.3457   12.4827   -0.3302 C.ar    1  LIG1       -0.0517
     52 C           7.2676   10.0844   -0.5333 C.ar    1  LIG1        0.0194
     53 C           5.9768   12.5399   -0.0449 C.ar    1  LIG1        0.0026
     54 H           7.9130   13.4052   -0.3565 H       1  LIG1        0.0624
     55 C           5.9048   10.1373   -0.2269 C.ar    1  LIG1       -0.0475
     56 C           5.2453   11.3351    0.0227 C.ar    1  LIG1       -0.0406
     57 H           5.3484    9.2077   -0.1726 H       1  LIG1        0.0627
     58 H           9.0589   11.2709   -0.7445 H       1  LIG1        0.0625
     59 C           3.7791   11.2830    0.3777 C.3     1  LIG1       -0.0391
     60 H           3.5171   10.2893    0.7457 H       1  LIG1        0.0278
     61 H           3.1339   11.4781   -0.4871 H       1  LIG1        0.0278
     62 H           3.5207   12.0116    1.1486 H       1  LIG1        0.0278
     63 C           5.3694   13.8578    0.1809 C.ar    1  LIG1        0.0664
     64 C           5.8866   14.9906    0.8166 C.ar    1  LIG1        0.0919
     65 C           4.9027   16.0042    0.7017 C.ar    1  LIG1        0.1581
     66 C           3.8109   15.4935    0.0180 C.ar    1  LIG1        0.0929
     67 N           4.1369   14.1863   -0.2845 N.ar    1  LIG1       -0.3502
     68 H           3.5814   13.6099   -0.8977 H       1  LIG1        0.1660
     69 C           7.1355   15.1294    1.4769 C.1     1  LIG1       -0.0639
     70 C           8.1935   15.2644    2.0364 C.1     1  LIG1       -0.1137
     71 H           9.1230   15.3812    2.5434 H       1  LIG1        0.1232
     72 O           5.0620   17.2541    1.2213 O.3     1  LIG1       -0.5035
     73 H           4.6742   17.8940    0.6119 H       1  LIG1        0.2923
     74 C           1.6709   15.6968   -1.3372 C.ar    1  LIG1        0.1231
     75 C           2.5317   16.1160   -0.2966 C.ar    1  LIG1        0.0375
     76 C           2.0957   17.2029    0.4655 C.ar    1  LIG1       -0.0271
     77 C           0.8860   17.8390    0.2024 C.ar    1  LIG1        0.0517
     78 C           0.1026   17.3361   -0.8635 C.ar    1  LIG1        0.0947
     79 N           0.5069   16.3033   -1.5867 N.ar    1  LIG1       -0.2359
     80 H           2.6920   17.5325    1.3095 H       1  LIG1        0.0644
     81 C           1.9760   14.5938   -2.2077 C.1     1  LIG1       -0.0491
     82 C           2.2079   13.6662   -2.9418 C.1     1  LIG1       -0.1124
     83 H           2.4045   12.8673   -3.6200 H       1  LIG1        0.1232
     84 N           0.4553   18.8865    0.9884 N.pl3   1  LIG1       -0.3563
     85 H           1.1543   19.3522    1.5458 H       1  LIG1        0.1424
     86 H          -0.2402   19.5005    0.5936 H       1  LIG1        0.1424
     87 C          -1.5190   18.3580   -2.5206 C.ar    1  LIG1        0.0475
     88 C          -1.2198   17.9281   -1.2117 C.ar    1  LIG1        0.0243
     89 C          -2.2107   18.0363   -0.2432 C.ar    1  LIG1       -0.0339
     90 C          -3.4635   18.5553   -0.5770 C.ar    1  LIG1        0.0434
     91 C          -3.6552   18.9483   -1.9025 C.ar    1  LIG1        0.0433
     92 N          -2.7173   18.8564   -2.8375 N.ar    1  LIG1       -0.2583
     93 H          -2.0180   17.7104    0.7734 H       1  LIG1        0.0637
     94 H          -4.6139   19.3576   -2.2108 H       1  LIG1        0.0842
     95 C          -0.5167   18.2887   -3.6369 C.3     1  LIG1       -0.0217
     96 H          -0.3284   17.2505   -3.9193 H       1  LIG1        0.0293
     97 H           0.4464   18.7121   -3.3386 H       1  LIG1        0.0293
     98 H          -0.9059   18.8356   -4.4950 H       1  LIG1        0.0293
     99 C          -4.5089   18.6802    0.3901 C.1     1  LIG1       -0.0681
    100 C          -5.3899   18.7888    1.2030 C.1     1  LIG1       -0.1139
    101 H          -6.1721   18.8822    1.9208 H       1  LIG1        0.1232
@<TRIPOS>BOND
     1    98    95    1
     2    96    95    1
     3    95    97    1
     4    95    87    1
     5    83    82    1
     6    46    45    1
     7    82    81    3
     8    92    87   ar
     9    92    91   ar
    10    87    88   ar
    11    45    44    3
    12    48    47    1
    13    49    47    1
    14    94    91    1
    15    81    74    1
    16    44    40    1
    17    47    41    1
    18    91    90   ar
    19    79    74   ar
    20    79    78   ar
    21    41    40   ar
    22    41    42   ar
    23    40    39   ar
    24    74    75   ar
    25    88    78    1
    26    88    89   ar
    27    36    35    1
    28    35    34    3
    29    68    67    1
    30    78    77   ar
    31    42    52    1
    32    42    43   ar
    33    58    50    1
    34    39    31    1
    35    39    43   ar
    36    34    27    1
    37    12    10    1
    38    32    31   ar
    39    32    27   ar
    40    90    89   ar
    41    90    99    1
    42    50    52   ar
    43    50    51   ar
    44    52    55   ar
    45    61    59    1
    46    31    30   ar
    47    27    28   ar
    48    54    51    1
    49    51    53   ar
    50    75    66    1
    51    75    76   ar
    52    67    66   ar
    53    67    63   ar
    54    11    10    1
    55    89    93    1
    56    55    57    1
    57    55    56   ar
    58    26    20    1
    59     5     2    1
    60    53    56   ar
    61    53    63    1
    62    28    21    1
    63    28    29   ar
    64    66    65   ar
    65    56    59    1
    66    30    29   ar
    67    30    38    1
    68    20    21   ar
    69    20    19   ar
    70    10     1    1
    71    10    13    1
    72    21    22   ar
    73    63    64   ar
    74    77    76   ar
    75    77    84    1
    76    29    33    1
    77    59    60    1
    78    59    62    1
    79    99   100    3
    80    38    37    3
    81    19    23    1
    82    19    18   ar
    83    23    24    3
    84    76    80    1
    85     2     1   ar
    86     2     4   ar
    87    24    25    1
    88    22    18   ar
    89    86    84    1
    90    73    72    1
    91    18     4    1
    92    65    64   ar
    93    65    72    1
    94     1     3   ar
    95    64    69    1
    96    84    85    1
    97     4     7   ar
    98   100   101    1
    99    69    70    3
   100     3     9    1
   101     3     6   ar
   102    16    14    1
   103     7     6   ar
   104     7    14    1
   105    70    71    1
   106     6     8    1
   107    14    17    1
   108    14    15    1
