@<TRIPOS>MOLECULE
mol_data/opt/cam/geoms/mol2/4ii4il12ha12eh.out
 55 58 0 0 0
SMALL
GASTEIGER

@<TRIPOS>ATOM
      1 C          -0.0666    0.3618   -0.9281 C.ar    1  LIG1       -0.0499
      2 C           1.3241    0.4485   -0.8811 C.ar    1  LIG1       -0.0508
      3 C          -0.7893    0.9802    0.0877 C.ar    1  LIG1       -0.0586
      4 C           1.9891    1.1318    0.1350 C.ar    1  LIG1       -0.0144
      5 H           1.9141   -0.0288   -1.6593 H       1  LIG1        0.0626
      6 C          -0.1385    1.6663    1.1052 C.ar    1  LIG1       -0.0580
      7 C           1.2505    1.7585    1.1513 C.ar    1  LIG1       -0.0427
      8 H          -0.7240    2.1426    1.8865 H       1  LIG1        0.0620
      9 H          -1.8744    0.9262    0.0849 H       1  LIG1        0.0620
     10 C          -0.7594   -0.3548   -2.0574 C.3     1  LIG1       -0.0397
     11 H          -0.1668   -1.1992   -2.4182 H       1  LIG1        0.0278
     12 H          -0.9238    0.3143   -2.9090 H       1  LIG1        0.0278
     13 H          -1.7363   -0.7346   -1.7484 H       1  LIG1        0.0278
     14 C           1.9340    2.5144    2.2609 C.3     1  LIG1       -0.0391
     15 H           1.2040    2.9097    2.9704 H       1  LIG1        0.0278
     16 H           2.5182    3.3536    1.8724 H       1  LIG1        0.0278
     17 H           2.6324    1.8784    2.8132 H       1  LIG1        0.0278
     18 C           4.2542    0.2152    0.7758 C.ar    1  LIG1       -0.0418
     19 C           5.6399    0.3300    0.7373 C.ar    1  LIG1       -0.0440
     20 C           3.4823    1.1891    0.1246 C.ar    1  LIG1       -0.0112
     21 C           6.3022    1.3652    0.0631 C.ar    1  LIG1        0.0610
     22 H           6.2376   -0.3925    1.2849 H       1  LIG1        0.0629
     23 C           4.1263    2.2245   -0.5483 C.ar    1  LIG1       -0.0113
     24 C           5.5104    2.3216   -0.5930 C.ar    1  LIG1        0.1314
     25 H           3.5492    2.9867   -1.0611 H       1  LIG1        0.0660
     26 C           3.6068   -0.9247    1.5189 C.3     1  LIG1       -0.0391
     27 H           4.3577   -1.5522    2.0035 H       1  LIG1        0.0278
     28 H           3.0178   -1.5562    0.8471 H       1  LIG1        0.0278
     29 H           2.9189   -0.5641    2.2894 H       1  LIG1        0.0278
     30 O           6.0503    3.3915   -1.2587 O.3     1  LIG1       -0.4944
     31 C           6.6790    3.0854   -2.4915 C.3     1  LIG1        0.0788
     32 H           7.0554    4.0280   -2.8899 H       1  LIG1        0.0660
     33 H           7.5184    2.3949   -2.3627 H       1  LIG1        0.0660
     34 H           5.9621    2.6521   -3.1999 H       1  LIG1        0.0660
     35 C           7.7591    1.3994    0.0743 C.ar    1  LIG1        0.1598
     36 C           8.6960    0.3943    0.1037 C.ar    1  LIG1        0.0718
     37 C           9.9711    1.0267    0.1282 C.ar    1  LIG1        0.0087
     38 C           9.7280    2.3702    0.1076 C.ar    1  LIG1        0.1737
     39 O           8.4007    2.6116    0.0738 O.2     1  LIG1       -0.4497
     40 N           8.4723   -0.9831    0.1408 N.pl3   1  LIG1       -0.3550
     41 H           7.5917   -1.2574   -0.2752 H       1  LIG1        0.1424
     42 H           9.2339   -1.5160   -0.2567 H       1  LIG1        0.1424
     43 H          10.9410    0.5542    0.1586 H       1  LIG1        0.0675
     44 C          10.6109    3.5056    0.1148 C.ar    1  LIG1        0.1869
     45 C          11.9835    3.5989    0.1485 C.ar    1  LIG1        0.0940
     46 C          12.2863    5.0077    0.1309 C.ar    1  LIG1        0.0792
     47 C          11.0879    5.6447    0.0849 C.ar    1  LIG1        0.1145
     48 O          10.0655    4.7317    0.0752 O.2     1  LIG1       -0.4567
     49 H          10.7981    6.6817    0.0671 H       1  LIG1        0.1049
     50 C          12.9407    2.5557    0.1789 C.1     1  LIG1       -0.0639
     51 C          13.7904    1.7001    0.1947 C.1     1  LIG1       -0.1137
     52 H          14.5358    0.9392    0.2231 H       1  LIG1        0.1232
     53 N          13.5695    5.5319    0.2110 N.pl3   1  LIG1       -0.3546
     54 H          14.2823    4.8838   -0.0952 H       1  LIG1        0.1424
     55 H          13.6830    6.4399   -0.2154 H       1  LIG1        0.1424
@<TRIPOS>BOND
     1    34    31    1
     2    12    10    1
     3    32    31    1
     4    31    33    1
     5    31    30    1
     6    11    10    1
     7    10    13    1
     8    10     1    1
     9     5     2    1
    10    30    24    1
    11    25    23    1
    12     1     2   ar
    13     1     3   ar
    14     2     4   ar
    15    24    23   ar
    16    24    21   ar
    17    23    20   ar
    18    41    40    1
    19    42    40    1
    20    55    53    1
    21    54    53    1
    22    21    35    1
    23    21    19   ar
    24    49    47    1
    25    39    35   ar
    26    39    38   ar
    27    35    36   ar
    28    48    47   ar
    29    48    44   ar
    30     9     3    1
    31    47    46   ar
    32     3     6   ar
    33    36    37   ar
    34    36    40    1
    35    38    44    1
    36    38    37   ar
    37    44    45   ar
    38    20     4    1
    39    20    18   ar
    40    37    43    1
    41    46    45   ar
    42    46    53    1
    43     4     7   ar
    44    45    50    1
    45    50    51    3
    46    51    52    1
    47    19    18   ar
    48    19    22    1
    49    18    26    1
    50    28    26    1
    51     6     7   ar
    52     6     8    1
    53     7    14    1
    54    26    27    1
    55    26    29    1
    56    16    14    1
    57    14    17    1
    58    14    15    1
