@<TRIPOS>MOLECULE
mol_data/opt/cam/geoms/mol2/4ii4ii.out
 34 35 0 0 0
SMALL
GASTEIGER

@<TRIPOS>ATOM
      1 C           0.0554    0.2453   -0.9216 C.ar    1  LIG1       -0.0499
      2 C           1.4456    0.3122   -0.8427 C.ar    1  LIG1       -0.0509
      3 C          -0.6823    1.0818   -0.0890 C.ar    1  LIG1       -0.0586
      4 C           2.0970    1.1833    0.0284 C.ar    1  LIG1       -0.0145
      5 H           2.0473   -0.3326   -1.4781 H       1  LIG1        0.0626
      6 C          -0.0456    1.9568    0.7819 C.ar    1  LIG1       -0.0580
      7 C           1.3434    2.0278    0.8589 C.ar    1  LIG1       -0.0427
      8 H          -0.6424    2.6018    1.4208 H       1  LIG1        0.0620
      9 H          -1.7679    1.0503   -0.1206 H       1  LIG1        0.0620
     10 C          -0.6215   -0.6829   -1.8956 C.3     1  LIG1       -0.0397
     11 H          -0.0256   -1.5821   -2.0708 H       1  LIG1        0.0278
     12 H          -0.7713   -0.1978   -2.8664 H       1  LIG1        0.0278
     13 H          -1.6042   -0.9938   -1.5324 H       1  LIG1        0.0278
     14 C           2.0111    2.9913    1.8053 C.3     1  LIG1       -0.0391
     15 H           1.2697    3.5475    2.3830 H       1  LIG1        0.0278
     16 H           2.6334    3.7127    1.2676 H       1  LIG1        0.0278
     17 H           2.6708    2.4754    2.5094 H       1  LIG1        0.0278
     18 C           4.3108    0.3939    0.9482 C.ar    1  LIG1       -0.0427
     19 C           5.7018    0.4631    0.9244 C.ar    1  LIG1       -0.0580
     20 C           3.5917    1.2071    0.0580 C.ar    1  LIG1       -0.0145
     21 C           6.3736    1.3064    0.0486 C.ar    1  LIG1       -0.0586
     22 H           6.2719   -0.1578    1.6098 H       1  LIG1        0.0620
     23 C           4.2782    2.0466   -0.8173 C.ar    1  LIG1       -0.0509
     24 C           5.6705    2.1115   -0.8427 C.ar    1  LIG1       -0.0499
     25 H           3.7029    2.6675   -1.4993 H       1  LIG1        0.0626
     26 H           7.4596    1.3375    0.0595 H       1  LIG1        0.0620
     27 C           3.6049   -0.5351    1.9013 C.3     1  LIG1       -0.0391
     28 H           4.3221   -1.0691    2.5284 H       1  LIG1        0.0278
     29 H           3.0046   -1.2762    1.3656 H       1  LIG1        0.0278
     30 H           2.9175    0.0055    2.5589 H       1  LIG1        0.0278
     31 C           6.3867    3.0044   -1.8219 C.3     1  LIG1       -0.0397
     32 H           5.7987    3.8959   -2.0535 H       1  LIG1        0.0278
     33 H           6.5752    2.4843   -2.7674 H       1  LIG1        0.0278
     34 H           7.3540    3.3292   -1.4308 H       1  LIG1        0.0278
@<TRIPOS>BOND
     1    12    10    1
     2    33    31    1
     3    11    10    1
     4    32    31    1
     5    10    13    1
     6    10     1    1
     7    31    34    1
     8    31    24    1
     9    25    23    1
    10     5     2    1
    11     1     2   ar
    12     1     3   ar
    13     2     4   ar
    14    24    23   ar
    15    24    21   ar
    16    23    20   ar
    17     9     3    1
    18     3     6   ar
    19     4    20    1
    20     4     7   ar
    21    21    26    1
    22    21    19   ar
    23    20    18   ar
    24     6     7   ar
    25     6     8    1
    26     7    14    1
    27    19    18   ar
    28    19    22    1
    29    18    27    1
    30    16    14    1
    31    29    27    1
    32    14    15    1
    33    14    17    1
    34    27    28    1
    35    27    30    1
