@<TRIPOS>MOLECULE
mol_data/opt/cam/geoms/mol2/4ii4ha-12hf-13ff-.out
 50 53 0 0 0
SMALL
GASTEIGER

@<TRIPOS>ATOM
      1 C          -0.0421    0.3383    1.1696 C.ar    1  LIG1       -0.0499
      2 C           1.3368    0.4080    0.9891 C.ar    1  LIG1       -0.0508
      3 C          -0.8481    1.0662    0.2975 C.ar    1  LIG1       -0.0586
      4 C           1.9213    1.1732   -0.0243 C.ar    1  LIG1       -0.0130
      5 H           1.9903   -0.1443    1.6588 H       1  LIG1        0.0626
      6 C          -0.2848    1.8217   -0.7211 C.ar    1  LIG1       -0.0580
      7 C           1.0954    1.8913   -0.9067 C.ar    1  LIG1       -0.0427
      8 H          -0.9337    2.3730   -1.3961 H       1  LIG1        0.0620
      9 H          -1.9282    1.0389    0.4128 H       1  LIG1        0.0620
     10 C          -0.6402   -0.5134    2.2585 C.3     1  LIG1       -0.0397
     11 H           0.0479   -0.6259    3.0996 H       1  LIG1        0.0278
     12 H          -0.8744   -1.5190    1.8923 H       1  LIG1        0.0278
     13 H          -1.5700   -0.0813    2.6370 H       1  LIG1        0.0278
     14 C           1.6602    2.7163   -2.0351 C.3     1  LIG1       -0.0391
     15 H           0.8843    2.9482   -2.7684 H       1  LIG1        0.0278
     16 H           2.4735    2.1951   -2.5454 H       1  LIG1        0.0278
     17 H           2.0717    3.6661   -1.6798 H       1  LIG1        0.0278
     18 C           4.1469    0.0593   -0.4561 C.ar    1  LIG1        0.0330
     19 C           5.5389    0.1342   -0.5497 C.ar    1  LIG1       -0.0297
     20 C           3.4084    1.2152   -0.1356 C.ar    1  LIG1        0.0031
     21 C           6.2209    1.3326   -0.3253 C.ar    1  LIG1        0.0210
     22 H           6.1008   -0.7722   -0.7524 H       1  LIG1        0.0643
     23 C           4.1073    2.3998    0.0975 C.ar    1  LIG1       -0.0516
     24 C           5.4861    2.4769    0.0096 C.ar    1  LIG1       -0.0503
     25 H           3.5400    3.2878    0.3608 H       1  LIG1        0.0624
     26 N           3.5122   -1.1656   -0.6326 N.pl3   1  LIG1       -0.3575
     27 H           2.5311   -1.1183   -0.8633 H       1  LIG1        0.1423
     28 H           4.0210   -1.8417   -1.1811 H       1  LIG1        0.1423
     29 H           5.9998    3.4127    0.1917 H       1  LIG1        0.0625
     30 C           7.6669    1.3837   -0.4366 C.ar    1  LIG1        0.1601
     31 C           8.5926    0.5711   -1.0347 C.ar    1  LIG1        0.1138
     32 C           9.8680    1.1683   -0.8049 C.ar    1  LIG1        0.1861
     33 C           9.6493    2.3123   -0.0937 C.ar    1  LIG1        0.1985
     34 O           8.3109    2.4602    0.1292 O.2     1  LIG1       -0.4475
     35 N           8.4163   -0.6257   -1.7320 N.pl3   1  LIG1       -0.3522
     36 H           7.6346   -0.6009   -2.3747 H       1  LIG1        0.1425
     37 H           9.2668   -0.8879   -2.2156 H       1  LIG1        0.1425
     38 O          11.0091    0.6100   -1.2675 O.3     1  LIG1       -0.5019
     39 H          11.7627    1.1938   -1.0648 H       1  LIG1        0.2924
     40 C          10.5283    3.3185    0.4357 C.ar    1  LIG1        0.1316
     41 C          11.8898    3.4763    0.2999 C.ar    1  LIG1        0.1873
     42 C          12.2771    4.6141    1.0385 C.ar    1  LIG1        0.1768
     43 C          11.1465    5.1424    1.6148 C.ar    1  LIG1        0.0480
     44 N          10.0928    4.3434    1.2367 N.ar    1  LIG1       -0.3521
     45 H           9.1328    4.4535    1.5149 H       1  LIG1        0.1656
     46 H          11.0114    6.0072    2.2442 H       1  LIG1        0.0845
     47 O          12.7127    2.6698   -0.4491 O.3     1  LIG1       -0.5018
     48 H          13.6279    2.8722   -0.2170 H       1  LIG1        0.2924
     49 O          13.5859    5.0126    1.0763 O.3     1  LIG1       -0.5023
     50 H          13.7239    5.6004    1.8265 H       1  LIG1        0.2923
@<TRIPOS>BOND
     1    15    14    1
     2    16    14    1
     3    36    35    1
     4    37    35    1
     5    14    17    1
     6    14     7    1
     7    35    31    1
     8     8     6    1
     9    38    39    1
    10    38    32    1
    11    28    26    1
    12    31    32   ar
    13    31    30   ar
    14     7     6   ar
    15     7     4   ar
    16    27    26    1
    17    32    33   ar
    18    22    19    1
    19     6     3   ar
    20    26    18    1
    21    19    18   ar
    22    19    21   ar
    23    18    20   ar
    24    47    48    1
    25    47    41    1
    26    30    21    1
    27    30    34   ar
    28    21    24   ar
    29    20     4    1
    30    20    23   ar
    31    33    34   ar
    32    33    40    1
    33     4     2   ar
    34    24    23   ar
    35    24    29    1
    36    23    25    1
    37     3     9    1
    38     3     1   ar
    39    41    40   ar
    40    41    42   ar
    41    40    44   ar
    42     2     1   ar
    43     2     5    1
    44    42    49    1
    45    42    43   ar
    46    49    50    1
    47     1    10    1
    48    44    45    1
    49    44    43   ar
    50    43    46    1
    51    12    10    1
    52    10    13    1
    53    10    11    1
