@<TRIPOS>MOLECULE
mol_data/opt/cam/geoms/mol2/4ii4ii4ii4ii.out
 66 69 0 0 0
SMALL
GASTEIGER

@<TRIPOS>ATOM
      1 C          -0.1920    1.9184   -0.9465 C.ar    1  LIG1       -0.0499
      2 C           1.2012    1.8855   -0.8938 C.ar    1  LIG1       -0.0509
      3 C          -0.8932    1.0591   -0.1063 C.ar    1  LIG1       -0.0586
      4 C           1.8897    1.0334   -0.0332 C.ar    1  LIG1       -0.0145
      5 H           1.7745    2.5434   -1.5420 H       1  LIG1        0.0626
      6 C          -0.2190    0.2065    0.7590 C.ar    1  LIG1       -0.0580
      7 C           1.1719    0.1752    0.8156 C.ar    1  LIG1       -0.0427
      8 H          -0.7879   -0.4539    1.4076 H       1  LIG1        0.0620
      9 H          -1.9794    1.0550   -0.1267 H       1  LIG1        0.0620
     10 C          -0.9081    2.8731   -1.8654 C.3     1  LIG1       -0.0397
     11 H          -0.3685    3.0019   -2.8073 H       1  LIG1        0.0278
     12 H          -1.0052    3.8642   -1.4092 H       1  LIG1        0.0278
     13 H          -1.9157    2.5209   -2.0986 H       1  LIG1        0.0278
     14 C           1.8808   -0.7530    1.7675 C.3     1  LIG1       -0.0391
     15 H           1.1645   -1.3420    2.3441 H       1  LIG1        0.0278
     16 H           2.5100   -0.1995    2.4705 H       1  LIG1        0.0278
     17 H           2.5411   -1.4475    1.2390 H       1  LIG1        0.0278
     18 C           4.1257    0.1927   -0.8478 C.ar    1  LIG1       -0.0421
     19 C           5.5157    0.2614   -0.7881 C.ar    1  LIG1       -0.0503
     20 C           3.3844    1.0499   -0.0234 C.ar    1  LIG1       -0.0144
     21 C           6.1877    1.1448    0.0547 C.ar    1  LIG1       -0.0144
     22 H           6.1031   -0.3955   -1.4242 H       1  LIG1        0.0627
     23 C           4.0562    1.9384    0.8142 C.ar    1  LIG1       -0.0503
     24 C           5.4461    2.0073    0.8735 C.ar    1  LIG1       -0.0421
     25 H           3.4687    2.6033    1.4416 H       1  LIG1        0.0627
     26 C           3.4472   -0.7730   -1.7843 C.3     1  LIG1       -0.0391
     27 H           4.1814   -1.3679   -2.3317 H       1  LIG1        0.0278
     28 H           2.8225   -0.2490   -2.5134 H       1  LIG1        0.0278
     29 H           2.7871   -1.4604   -1.2466 H       1  LIG1        0.0278
     30 C           6.1244    2.9923    1.7899 C.3     1  LIG1       -0.0391
     31 H           5.3899    3.5692    2.3560 H       1  LIG1        0.0278
     32 H           6.7489    3.6938    1.2293 H       1  LIG1        0.0278
     33 H           6.7842    2.4905    2.5043 H       1  LIG1        0.0278
     34 C           8.4099    0.3586    0.9535 C.ar    1  LIG1       -0.0421
     35 C           9.8006    0.4241    0.9118 C.ar    1  LIG1       -0.0503
     36 C           7.6819    1.1629    0.0660 C.ar    1  LIG1       -0.0144
     37 C          10.4862    1.2538    0.0265 C.ar    1  LIG1       -0.0144
     38 H          10.3776   -0.1962    1.5924 H       1  LIG1        0.0627
     39 C           8.3677    1.9872   -0.8242 C.ar    1  LIG1       -0.0503
     40 C           9.7585    2.0525   -0.8661 C.ar    1  LIG1       -0.0421
     41 H           7.7909    2.5989   -1.5128 H       1  LIG1        0.0627
     42 C           7.7165   -0.5621    1.9239 C.3     1  LIG1       -0.0391
     43 H           8.4415   -1.0986    2.5396 H       1  LIG1        0.0278
     44 H           7.1008   -1.3006    1.4024 H       1  LIG1        0.0278
     45 H           7.0455   -0.0133    2.5916 H       1  LIG1        0.0278
     46 C          10.4524    2.9525   -1.8553 C.3     1  LIG1       -0.0391
     47 H           9.7274    3.5081   -2.4538 H       1  LIG1        0.0278
     48 H          11.0886    2.3804   -2.5367 H       1  LIG1        0.0278
     49 H          11.1039    3.6755   -1.3552 H       1  LIG1        0.0278
     50 C          12.6853    2.1852    0.8391 C.ar    1  LIG1       -0.0427
     51 C          14.0770    2.1511    0.8070 C.ar    1  LIG1       -0.0580
     52 C          11.9808    1.2705    0.0395 C.ar    1  LIG1       -0.0145
     53 C          14.7645    1.2418    0.0127 C.ar    1  LIG1       -0.0586
     54 H          14.6357    2.8545    1.4179 H       1  LIG1        0.0620
     55 C          12.6826    0.3621   -0.7498 C.ar    1  LIG1       -0.0509
     56 C          14.0764    0.3267   -0.7779 C.ar    1  LIG1       -0.0499
     57 H          12.1194   -0.3389   -1.3605 H       1  LIG1        0.0626
     58 H          15.8509    1.2452    0.0094 H       1  LIG1        0.0620
     59 C          11.9617    3.1758    1.7139 C.3     1  LIG1       -0.0391
     60 H          12.6690    3.8029    2.2608 H       1  LIG1        0.0278
     61 H          11.3207    2.6712    2.4425 H       1  LIG1        0.0278
     62 H          11.3107    3.8325    1.1287 H       1  LIG1        0.0278
     63 C          14.8066   -0.6881   -1.6180 C.3     1  LIG1       -0.0397
     64 H          14.2831   -0.8797   -2.5582 H       1  LIG1        0.0278
     65 H          14.8942   -1.6464   -1.0945 H       1  LIG1        0.0278
     66 H          15.8187   -0.3529   -1.8569 H       1  LIG1        0.0278
@<TRIPOS>BOND
     1    11    10    1
     2    64    63    1
     3    48    46    1
     4    28    26    1
     5    47    46    1
     6    27    26    1
     7    13    10    1
     8    10    12    1
     9    10     1    1
    10    66    63    1
    11    46    49    1
    12    46    40    1
    13    26    29    1
    14    26    18    1
    15    63    65    1
    16    63    56    1
    17     5     2    1
    18    41    39    1
    19    22    19    1
    20    57    55    1
    21     1     2   ar
    22     1     3   ar
    23     2     4   ar
    24    40    39   ar
    25    40    37   ar
    26    18    19   ar
    27    18    20   ar
    28    39    36   ar
    29    19    21   ar
    30    56    55   ar
    31    56    53   ar
    32    55    52   ar
    33     9     3    1
    34     3     6   ar
    35     4    20    1
    36     4     7   ar
    37    20    23   ar
    38    58    53    1
    39    53    51   ar
    40    37    52    1
    41    37    35   ar
    42    52    50   ar
    43    21    36    1
    44    21    24   ar
    45    36    34   ar
    46     6     7   ar
    47     6     8    1
    48    51    50   ar
    49    51    54    1
    50    23    24   ar
    51    23    25    1
    52     7    14    1
    53    50    59    1
    54    24    30    1
    55    35    34   ar
    56    35    38    1
    57    34    42    1
    58    62    59    1
    59    32    30    1
    60    17    14    1
    61    44    42    1
    62    59    60    1
    63    59    61    1
    64    14    15    1
    65    14    16    1
    66    30    31    1
    67    30    33    1
    68    42    43    1
    69    42    45    1
