@<TRIPOS>MOLECULE
mol_data/opt/cam/geoms/mol2/4ii4fl12da-6ei-.out
 55 58 0 0 0
SMALL
GASTEIGER

@<TRIPOS>ATOM
      1 C          -0.0685   -0.0235   -0.5918 C.ar    1  LIG1       -0.0499
      2 C           1.3185    0.0650   -0.5557 C.ar    1  LIG1       -0.0507
      3 C          -0.7984    0.9310    0.1140 C.ar    1  LIG1       -0.0586
      4 C           1.9813    1.0750    0.1445 C.ar    1  LIG1       -0.0111
      5 H           1.9120   -0.6744   -1.0846 H       1  LIG1        0.0626
      6 C          -0.1527    1.9298    0.8265 C.ar    1  LIG1       -0.0580
      7 C           1.2383    2.0277    0.8588 C.ar    1  LIG1       -0.0426
      8 H          -0.7419    2.6516    1.3850 H       1  LIG1        0.0620
      9 H          -1.8839    0.8853    0.1156 H       1  LIG1        0.0620
     10 C          -0.7576   -1.1027   -1.3846 C.3     1  LIG1       -0.0397
     11 H          -0.1131   -1.9755   -1.5126 H       1  LIG1        0.0278
     12 H          -1.0303   -0.7473   -2.3842 H       1  LIG1        0.0278
     13 H          -1.6779   -1.4308   -0.8946 H       1  LIG1        0.0278
     14 C           1.8871    3.1215    1.6699 C.3     1  LIG1       -0.0391
     15 H           1.1923    3.5014    2.4222 H       1  LIG1        0.0278
     16 H           2.1873    3.9713    1.0479 H       1  LIG1        0.0278
     17 H           2.7841    2.7677    2.1827 H       1  LIG1        0.0278
     18 C           4.2550    0.0511    0.5505 C.ar    1  LIG1        0.1254
     19 C           5.6379    0.1128    0.4803 C.ar    1  LIG1       -0.0054
     20 C           3.4690    1.1221    0.0961 C.ar    1  LIG1        0.0273
     21 C           6.2998    1.2249   -0.0565 C.ar    1  LIG1        0.0636
     22 H           6.2156   -0.7232    0.8589 H       1  LIG1        0.0662
     23 C           4.1343    2.2217   -0.4346 C.ar    1  LIG1       -0.0080
     24 C           5.5200    2.2938   -0.5204 C.ar    1  LIG1        0.1316
     25 H           3.5605    3.0513   -0.8332 H       1  LIG1        0.0661
     26 O           3.6164   -1.0314    1.0711 O.3     1  LIG1       -0.5061
     27 H           4.2663   -1.7069    1.2992 H       1  LIG1        0.2922
     28 O           6.0914    3.3864   -1.1181 O.3     1  LIG1       -0.4944
     29 C           6.2102    4.5250   -0.2762 C.3     1  LIG1        0.0788
     30 H           6.6688    5.3093   -0.8771 H       1  LIG1        0.0660
     31 H           5.2281    4.8570    0.0809 H       1  LIG1        0.0660
     32 H           6.8552    4.3118    0.5821 H       1  LIG1        0.0660
     33 C           7.7580    1.2092   -0.1343 C.ar    1  LIG1        0.1566
     34 C           8.6755    0.1805   -0.1529 C.ar    1  LIG1        0.0981
     35 C           9.9726    0.7813   -0.1968 C.ar    1  LIG1        0.0023
     36 C           9.7681    2.1218   -0.2102 C.ar    1  LIG1        0.1396
     37 O           8.4289    2.3795   -0.1662 O.2     1  LIG1       -0.4533
     38 N           8.2060   -2.3544   -0.1355 N.1     1  LIG1       -0.1907
     39 C           8.4099   -1.2147   -0.1521 C.1     1  LIG1        0.1030
     40 H          10.9196    0.2670   -0.2481 H       1  LIG1        0.0668
     41 C          10.5465    4.3530   -1.1009 C.ar    1  LIG1        0.1238
     42 C          10.6995    3.2508   -0.2349 C.ar    1  LIG1        0.0513
     43 C          11.8105    3.2368    0.6039 C.ar    1  LIG1       -0.0441
     44 C          12.7232    4.2850    0.5890 C.ar    1  LIG1       -0.0316
     45 C          12.4483    5.3351   -0.2859 C.ar    1  LIG1        0.0319
     46 N          11.4060    5.3768   -1.1070 N.ar    1  LIG1       -0.2457
     47 H          11.9472    2.4023    1.2856 H       1  LIG1        0.0629
     48 H          13.1172    6.1930   -0.3248 H       1  LIG1        0.0832
     49 C           9.4720    4.4039   -2.0510 C.1     1  LIG1       -0.0491
     50 C           8.5762    4.4141   -2.8530 C.1     1  LIG1       -0.1124
     51 H           7.7638    4.4044   -3.5430 H       1  LIG1        0.1232
     52 C          13.9369    4.2955    1.4745 C.3     1  LIG1       -0.0383
     53 H          14.4560    5.2545    1.4199 H       1  LIG1        0.0278
     54 H          14.6465    3.5156    1.1814 H       1  LIG1        0.0278
     55 H          13.6685    4.1160    2.5193 H       1  LIG1        0.0278
@<TRIPOS>BOND
     1    51    50    1
     2    50    49    3
     3    12    10    1
     4    49    41    1
     5    11    10    1
     6    10    13    1
     7    10     1    1
     8    28    24    1
     9    28    29    1
    10    46    41   ar
    11    46    45   ar
    12    41    42   ar
    13     5     2    1
    14    30    29    1
    15    25    23    1
    16     1     2   ar
    17     1     3   ar
    18     2     4   ar
    19    24    23   ar
    20    24    21   ar
    21    23    20   ar
    22    48    45    1
    23    45    44   ar
    24    29    31    1
    25    29    32    1
    26    40    35    1
    27    42    36    1
    28    42    43   ar
    29    36    35   ar
    30    36    37   ar
    31    35    34   ar
    32    37    33   ar
    33    34    39    1
    34    34    33   ar
    35    39    38    3
    36    33    21    1
    37    21    19   ar
    38    20     4    1
    39    20    18   ar
    40     3     9    1
    41     3     6   ar
    42     4     7   ar
    43    19    18   ar
    44    19    22    1
    45    18    26    1
    46    44    43   ar
    47    44    52    1
    48    43    47    1
    49     6     7   ar
    50     6     8    1
    51     7    14    1
    52    16    14    1
    53    26    27    1
    54    54    52    1
    55    53    52    1
    56    52    55    1
    57    14    17    1
    58    14    15    1
