@<TRIPOS>MOLECULE
mol_data/opt/cam/geoms/mol2/4ii4de6dh-13ea-.out
 53 56 0 0 0
SMALL
GASTEIGER

@<TRIPOS>ATOM
      1 C          -0.2561    0.6878   -1.1554 C.ar    1  LIG1       -0.0499
      2 C           1.1384    0.6927   -1.0607 C.ar    1  LIG1       -0.0508
      3 C          -0.9799    1.2350   -0.0913 C.ar    1  LIG1       -0.0586
      4 C           1.8079    1.2319    0.0466 C.ar    1  LIG1       -0.0135
      5 H           1.7253    0.2731   -1.8735 H       1  LIG1        0.0626
      6 C          -0.3265    1.7639    1.0194 C.ar    1  LIG1       -0.0580
      7 C           1.0694    1.7796    1.1179 C.ar    1  LIG1       -0.0427
      8 H          -0.9142    2.1656    1.8409 H       1  LIG1        0.0620
      9 H          -2.0665    1.2388   -0.1257 H       1  LIG1        0.0620
     10 C          -0.9500    0.1300   -2.3750 C.3     1  LIG1       -0.0397
     11 H          -0.3648   -0.6707   -2.8361 H       1  LIG1        0.0278
     12 H          -1.0999    0.9056   -3.1364 H       1  LIG1        0.0278
     13 H          -1.9352   -0.2730   -2.1226 H       1  LIG1        0.0278
     14 C           1.7285    2.3420    2.3576 C.3     1  LIG1       -0.0391
     15 H           0.9994    2.4421    3.1659 H       1  LIG1        0.0278
     16 H           2.1590    3.3350    2.1837 H       1  LIG1        0.0278
     17 H           2.5407    1.7012    2.7141 H       1  LIG1        0.0278
     18 C           4.0375    0.0105    0.0306 C.ar    1  LIG1        0.0601
     19 C           5.4410    0.0332   -0.0116 C.ar    1  LIG1       -0.0348
     20 C           3.3003    1.2172    0.0502 C.ar    1  LIG1        0.0009
     21 C           6.1516    1.2318   -0.0337 C.ar    1  LIG1        0.0015
     22 H           5.9814   -0.9069   -0.0379 H       1  LIG1        0.0637
     23 C           4.0215    2.4127    0.0426 C.ar    1  LIG1       -0.0368
     24 C           5.4257    2.4486    0.0076 C.ar    1  LIG1        0.0331
     25 H           3.4824    3.3532    0.0520 H       1  LIG1        0.0636
     26 N           2.9042   -2.3253    0.1166 N.1     1  LIG1       -0.1908
     27 C           3.3853   -1.2668    0.0730 C.1     1  LIG1        0.0998
     28 C           6.0867    3.7138    0.0430 C.1     1  LIG1       -0.0690
     29 C           6.6174    4.7996    0.0927 C.1     1  LIG1       -0.1139
     30 H           7.0932    5.7530    0.1175 H       1  LIG1        0.1232
     31 C           8.3929    1.6480   -1.1738 C.ar    1  LIG1        0.1486
     32 C           7.6393    1.1944   -0.0702 C.ar    1  LIG1        0.0210
     33 C           8.3583    0.6663    0.9953 C.ar    1  LIG1       -0.0284
     34 C           9.7640    0.5984    0.9901 C.ar    1  LIG1        0.0530
     35 C          10.4267    1.0414   -0.1980 C.ar    1  LIG1        0.1103
     36 N           9.7257    1.5604   -1.2160 N.ar    1  LIG1       -0.2324
     37 H           7.8229    0.3291    1.8788 H       1  LIG1        0.0643
     38 N           7.2585    2.6176   -3.3062 N.1     1  LIG1       -0.1893
     39 C           7.7616    2.1906   -2.3484 C.1     1  LIG1        0.1197
     40 N          10.4225    0.2031    2.1206 N.pl3   1  LIG1       -0.3563
     41 H           9.8629   -0.2152    2.8487 H       1  LIG1        0.1424
     42 H          11.3688   -0.1520    2.0616 H       1  LIG1        0.1424
     43 C          11.8802    1.0631   -0.4268 C.ar    1  LIG1        0.0824
     44 C          13.0213    0.3924    0.0602 C.ar    1  LIG1        0.0514
     45 C          14.1490    0.8975   -0.6628 C.ar    1  LIG1       -0.0283
     46 C          13.6825    1.8289   -1.5592 C.ar    1  LIG1        0.0034
     47 N          12.3292    1.9166   -1.4036 N.ar    1  LIG1       -0.3584
     48 H          11.6718    2.4473   -1.9589 H       1  LIG1        0.1654
     49 H          14.2053    2.4333   -2.2849 H       1  LIG1        0.0807
     50 C          13.1204   -0.6612    1.0033 C.1     1  LIG1       -0.0675
     51 C          13.2606   -1.5658    1.7997 C.1     1  LIG1       -0.1138
     52 H          13.3840   -2.3828    2.4724 H       1  LIG1        0.1232
     53 H          15.1726    0.5837   -0.5242 H       1  LIG1        0.0645
@<TRIPOS>BOND
     1    38    39    3
     2    12    10    1
     3    11    10    1
     4    10    13    1
     5    10     1    1
     6    39    31    1
     7    49    46    1
     8    48    47    1
     9     5     2    1
    10    46    47   ar
    11    46    45   ar
    12    47    43   ar
    13    36    31   ar
    14    36    35   ar
    15    31    32   ar
    16     1     2   ar
    17     1     3   ar
    18     2     4   ar
    19    45    53    1
    20    45    44   ar
    21    43    35    1
    22    43    44   ar
    23    35    34   ar
    24     9     3    1
    25     3     6   ar
    26    32    21    1
    27    32    33   ar
    28    22    19    1
    29    21    19   ar
    30    21    24   ar
    31    19    18   ar
    32    24    23   ar
    33    24    28    1
    34    18    20   ar
    35    18    27    1
    36    23    20   ar
    37    23    25    1
    38    28    29    3
    39     4    20    1
    40     4     7   ar
    41    44    50    1
    42    27    26    3
    43    29    30    1
    44    34    33   ar
    45    34    40    1
    46    33    37    1
    47    50    51    3
    48     6     7   ar
    49     6     8    1
    50     7    14    1
    51    51    52    1
    52    42    40    1
    53    40    41    1
    54    16    14    1
    55    14    17    1
    56    14    15    1
