@<TRIPOS>MOLECULE
mol_data/opt/cam/geoms/mol2/4ii4ii4ii.out
 50 52 0 0 0
SMALL
GASTEIGER

@<TRIPOS>ATOM
      1 C          -0.0678    1.0004   -1.2854 C.ar    1  LIG1       -0.0499
      2 C           1.3238    1.0358   -1.2052 C.ar    1  LIG1       -0.0509
      3 C          -0.7853    0.9642   -0.0937 C.ar    1  LIG1       -0.0586
      4 C           1.9954    1.0413    0.0155 C.ar    1  LIG1       -0.0145
      5 H           1.9099    1.0602   -2.1204 H       1  LIG1        0.0626
      6 C          -0.1283    0.9722    1.1304 C.ar    1  LIG1       -0.0580
      7 C           1.2613    1.0115    1.2122 C.ar    1  LIG1       -0.0427
      8 H          -0.7098    0.9457    2.0478 H       1  LIG1        0.0620
      9 H          -1.8709    0.9296   -0.1207 H       1  LIG1        0.0620
     10 C          -0.7662    1.0273   -2.6196 C.3     1  LIG1       -0.0397
     11 H          -0.1931    0.4928   -3.3814 H       1  LIG1        0.0278
     12 H          -0.9005    2.0545   -2.9757 H       1  LIG1        0.0278
     13 H          -1.7572    0.5708   -2.5597 H       1  LIG1        0.0278
     14 C           1.9510    1.0269    2.5516 C.3     1  LIG1       -0.0391
     15 H           1.2236    0.9904    3.3654 H       1  LIG1        0.0278
     16 H           2.5571    1.9286    2.6782 H       1  LIG1        0.0278
     17 H           2.6298    0.1765    2.6670 H       1  LIG1        0.0278
     18 C           4.2495   -0.0937    0.0526 C.ar    1  LIG1       -0.0421
     19 C           5.6378    0.0194    0.0616 C.ar    1  LIG1       -0.0503
     20 C           3.4896    1.0836    0.0305 C.ar    1  LIG1       -0.0144
     21 C           6.2903    1.2508    0.0489 C.ar    1  LIG1       -0.0144
     22 H           6.2399   -0.8852    0.0751 H       1  LIG1        0.0627
     23 C           4.1421    2.3149    0.0116 C.ar    1  LIG1       -0.0503
     24 C           5.5304    2.4280    0.0200 C.ar    1  LIG1       -0.0421
     25 H           3.5402    3.2194   -0.0144 H       1  LIG1        0.0627
     26 C           3.5931   -1.4498    0.0552 C.3     1  LIG1       -0.0391
     27 H           4.3404   -2.2454    0.0883 H       1  LIG1        0.0278
     28 H           2.9788   -1.5973   -0.8378 H       1  LIG1        0.0278
     29 H           2.9274   -1.5747    0.9147 H       1  LIG1        0.0278
     30 C           6.1871    3.7836   -0.0129 C.3     1  LIG1       -0.0391
     31 H           5.4396    4.5797   -0.0183 H       1  LIG1        0.0278
     32 H           6.8152    3.9011   -0.9007 H       1  LIG1        0.0278
     33 H           6.8393    3.9376    0.8521 H       1  LIG1        0.0278
     34 C           8.5004    1.3631    1.2613 C.ar    1  LIG1       -0.0427
     35 C           9.8911    1.4000    1.1994 C.ar    1  LIG1       -0.0580
     36 C           7.7845    1.2930    0.0553 C.ar    1  LIG1       -0.0145
     37 C          10.5666    1.3671   -0.0141 C.ar    1  LIG1       -0.0586
     38 H          10.4585    1.4573    2.1241 H       1  LIG1        0.0620
     39 C           8.4746    1.2577   -1.1546 C.ar    1  LIG1       -0.0509
     40 C           9.8673    1.2907   -1.2147 C.ar    1  LIG1       -0.0499
     41 H           7.9025    1.2026   -2.0772 H       1  LIG1        0.0626
     42 H          11.6525    1.4010   -0.0258 H       1  LIG1        0.0620
     43 C           7.7904    1.3924    2.5899 C.3     1  LIG1       -0.0391
     44 H           8.5053    1.4570    3.4129 H       1  LIG1        0.0278
     45 H           7.1827    0.4949    2.7377 H       1  LIG1        0.0278
     46 H           7.1096    2.2456    2.6661 H       1  LIG1        0.0278
     47 C          10.5859    1.2192   -2.5365 C.3     1  LIG1       -0.0397
     48 H          10.0240    1.7267   -3.3247 H       1  LIG1        0.0278
     49 H          10.7265    0.1806   -2.8552 H       1  LIG1        0.0278
     50 H          11.5755    1.6788   -2.4772 H       1  LIG1        0.0278
@<TRIPOS>BOND
     1    11    10    1
     2    48    47    1
     3    12    10    1
     4    49    47    1
     5    10    13    1
     6    10     1    1
     7    47    50    1
     8    47    40    1
     9     5     2    1
    10    41    39    1
    11     1     2   ar
    12     1     3   ar
    13    40    39   ar
    14    40    37   ar
    15     2     4   ar
    16    39    36   ar
    17    32    30    1
    18    28    26    1
    19     9     3    1
    20     3     6   ar
    21    42    37    1
    22    31    30    1
    23    25    23    1
    24    37    35   ar
    25    30    24    1
    26    30    33    1
    27    23    24   ar
    28    23    20   ar
    29     4    20    1
    30     4     7   ar
    31    24    21   ar
    32    20    18   ar
    33    21    36    1
    34    21    19   ar
    35    18    26    1
    36    18    19   ar
    37    26    27    1
    38    26    29    1
    39    36    34   ar
    40    19    22    1
    41     6     7   ar
    42     6     8    1
    43    35    34   ar
    44    35    38    1
    45     7    14    1
    46    34    43    1
    47    14    17    1
    48    14    16    1
    49    14    15    1
    50    43    46    1
    51    43    45    1
    52    43    44    1
