@<TRIPOS>MOLECULE
mol_data/opt/cam/geoms/mol2/4il.out
 19 19 0 0 0
SMALL
GASTEIGER

@<TRIPOS>ATOM
      1 C           0.0597    0.0012   -0.0011 C.ar    1  LIG1       -0.0502
      2 C           1.4462   -0.0491    0.0529 C.ar    1  LIG1       -0.0554
      3 C          -0.5398    1.2645   -0.0664 C.ar    1  LIG1       -0.0554
      4 C           2.2278    1.1063    0.0433 C.ar    1  LIG1       -0.0197
      5 H           1.9423   -1.0143    0.1042 H       1  LIG1        0.0621
      6 C           0.2151    2.4219   -0.0771 C.ar    1  LIG1       -0.0197
      7 C           1.6094    2.3498   -0.0221 C.ar    1  LIG1        0.1201
      8 H          -0.2493    3.4004   -0.1277 H       1  LIG1        0.0654
      9 H           3.3060    1.0184    0.0869 H       1  LIG1        0.0654
     10 H          -1.6231    1.3392   -0.1098 H       1  LIG1        0.0621
     11 C          -0.7781   -1.2506    0.0095 C.3     1  LIG1       -0.0397
     12 H          -0.1538   -2.1453    0.0641 H       1  LIG1        0.0278
     13 H          -1.3924   -1.3294   -0.8931 H       1  LIG1        0.0278
     14 H          -1.4600   -1.2693    0.8656 H       1  LIG1        0.0278
     15 O           2.2656    3.5431   -0.0376 O.3     1  LIG1       -0.4951
     16 C           3.6742    3.5232    0.0159 C.3     1  LIG1        0.0788
     17 H           3.9956    4.5645   -0.0073 H       1  LIG1        0.0660
     18 H           4.0382    3.0559    0.9387 H       1  LIG1        0.0660
     19 H           4.1051    2.9955   -0.8434 H       1  LIG1        0.0660
@<TRIPOS>BOND
     1    13    11    1
     2    19    16    1
     3     8     6    1
     4    10     3    1
     5     6     3   ar
     6     6     7   ar
     7     3     1   ar
     8    15     7    1
     9    15    16    1
    10     7     4   ar
    11    17    16    1
    12     1    11    1
    13     1     2   ar
    14    11    12    1
    15    11    14    1
    16    16    18    1
    17     4     2   ar
    18     4     9    1
    19     2     5    1
