@<TRIPOS>MOLECULE
mol_data/opt/cam/geoms/mol2/4il12di6he-6hd.out
 55 58 0 0 0
SMALL
GASTEIGER

@<TRIPOS>ATOM
      1 C           0.4004   -0.4607   -0.9647 C.ar    1  LIG1       -0.0495
      2 C           1.7364   -0.2546   -0.6267 C.ar    1  LIG1       -0.0446
      3 C          -0.4657    0.6188   -0.8449 C.ar    1  LIG1       -0.0553
      4 C           2.2096    0.9759   -0.1750 C.ar    1  LIG1        0.0604
      5 H           2.4381   -1.0773   -0.7188 H       1  LIG1        0.0628
      6 C          -0.0267    1.8613   -0.3963 C.ar    1  LIG1       -0.0190
      7 C           1.3056    2.0512   -0.0540 C.ar    1  LIG1        0.1308
      8 H          -0.7373    2.6728   -0.3114 H       1  LIG1        0.0654
      9 H          -1.5130    0.4962   -1.1040 H       1  LIG1        0.0621
     10 C          -0.0685   -1.8041   -1.4567 C.3     1  LIG1       -0.0397
     11 H           0.2352   -2.6038   -0.7756 H       1  LIG1        0.0278
     12 H           0.3531   -2.0368   -2.4396 H       1  LIG1        0.0278
     13 H          -1.1563   -1.8346   -1.5472 H       1  LIG1        0.0278
     14 O           1.7961    3.2297    0.4275 O.3     1  LIG1       -0.4944
     15 C           0.8748    4.2535    0.7527 C.3     1  LIG1        0.0788
     16 H           1.4592    5.0467    1.2190 H       1  LIG1        0.0660
     17 H           0.3771    4.6477   -0.1401 H       1  LIG1        0.0660
     18 H           0.1200    3.8993    1.4622 H       1  LIG1        0.0660
     19 C           3.6155    1.1081    0.1942 C.ar    1  LIG1        0.1567
     20 C           4.5077    0.2619    0.8022 C.ar    1  LIG1        0.1010
     21 C           5.7616    0.9590    0.9210 C.ar    1  LIG1        0.0134
     22 C           5.5453    2.1832    0.3615 C.ar    1  LIG1        0.1432
     23 O           4.2508    2.2633   -0.0833 O.2     1  LIG1       -0.4530
     24 N           4.0551   -2.1189    1.6818 N.1     1  LIG1       -0.1907
     25 C           4.2435   -1.0477    1.2851 C.1     1  LIG1        0.1032
     26 C           6.9929    0.4208    1.5737 C.3     1  LIG1       -0.0349
     27 H           7.5899    1.2218    2.0144 H       1  LIG1        0.0279
     28 H           7.6266   -0.1180    0.8617 H       1  LIG1        0.0279
     29 H           6.7278   -0.2834    2.3654 H       1  LIG1        0.0279
     30 C           5.8413    4.6890    0.2066 C.ar    1  LIG1        0.1277
     31 C           6.3715    3.3690    0.1704 C.ar    1  LIG1        0.0582
     32 C           7.7364    3.2592   -0.0197 C.ar    1  LIG1       -0.0303
     33 C           8.5645    4.3801   -0.1577 C.ar    1  LIG1        0.0515
     34 C           7.9465    5.6438   -0.1239 C.ar    1  LIG1        0.0918
     35 N           6.6264    5.7592    0.0666 N.ar    1  LIG1       -0.2304
     36 H           8.1915    2.2775   -0.0708 H       1  LIG1        0.0638
     37 N           4.5215    4.9482    0.4160 N.pl3   1  LIG1       -0.3426
     38 H           4.2461    5.9005    0.2366 H       1  LIG1        0.1437
     39 H           3.8313    4.2228    0.2795 H       1  LIG1        0.1437
     40 C           9.9729    4.1690   -0.2837 C.1     1  LIG1       -0.0675
     41 C          11.1489    3.9265   -0.3771 C.1     1  LIG1       -0.1138
     42 H          12.1943    3.7356   -0.4608 H       1  LIG1        0.1232
     43 C           8.3740    8.0959    0.4311 C.ar    1  LIG1        0.1255
     44 C           8.6985    6.9115   -0.2973 C.ar    1  LIG1        0.0423
     45 C           9.7448    7.0008   -1.1973 C.ar    1  LIG1       -0.0304
     46 C          10.4660    8.1903   -1.3383 C.ar    1  LIG1        0.0706
     47 C          10.0935    9.2700   -0.5373 C.ar    1  LIG1        0.0471
     48 N           9.0823    9.2309    0.3116 N.ar    1  LIG1       -0.2388
     49 H          10.0135    6.1449   -1.8021 H       1  LIG1        0.0638
     50 H          10.6386   10.2086   -0.6019 H       1  LIG1        0.0843
     51 N           7.3530    8.1361    1.3178 N.pl3   1  LIG1       -0.3426
     52 H           7.1430    9.0469    1.6938 H       1  LIG1        0.1437
     53 H           6.6221    7.4473    1.2076 H       1  LIG1        0.1437
     54 N          12.4269    8.3935   -3.0124 N.1     1  LIG1       -0.1908
     55 C          11.5486    8.3010   -2.2639 C.1     1  LIG1        0.1007
@<TRIPOS>BOND
     1    54    55    3
     2    12    10    1
     3    55    46    1
     4    49    45    1
     5    13    10    1
     6    10     1    1
     7    10    11    1
     8    46    45   ar
     9    46    47   ar
    10    45    44   ar
    11     9     3    1
    12     1     3   ar
    13     1     2   ar
    14     3     6   ar
    15     5     2    1
    16     2     4   ar
    17    50    47    1
    18    47    48   ar
    19    42    41    1
    20     6     8    1
    21     6     7   ar
    22    41    40    3
    23    44    34    1
    24    44    43   ar
    25    40    33    1
    26     4     7   ar
    27     4    19    1
    28    33    34   ar
    29    33    32   ar
    30    17    15    1
    31    34    35   ar
    32    23    19   ar
    33    23    22   ar
    34    36    32    1
    35     7    14    1
    36    32    31   ar
    37    35    30   ar
    38    31    30   ar
    39    31    22    1
    40    19    20   ar
    41    30    37    1
    42    38    37    1
    43    39    37    1
    44    48    43   ar
    45    22    21   ar
    46    14    15    1
    47    43    51    1
    48    15    16    1
    49    15    18    1
    50    20    21   ar
    51    20    25    1
    52    28    26    1
    53    21    26    1
    54    53    51    1
    55    25    24    3
    56    51    52    1
    57    26    27    1
    58    26    29    1
