@<TRIPOS>MOLECULE
mol_data/opt/cam/geoms/mol2/4il12ih-12ah13la-.out
 52 55 0 0 0
SMALL
GASTEIGER

@<TRIPOS>ATOM
      1 C          -0.1445    0.0556   -0.5371 C.ar    1  LIG1       -0.0496
      2 C           1.2443    0.1341   -0.5180 C.ar    1  LIG1       -0.0446
      3 C          -0.8628    1.0193    0.1694 C.ar    1  LIG1       -0.0553
      4 C           1.9342    1.1219    0.1942 C.ar    1  LIG1        0.0594
      5 H           1.8204   -0.5752   -1.1037 H       1  LIG1        0.0628
      6 C          -0.2062    2.0098    0.8842 C.ar    1  LIG1       -0.0190
      7 C           1.1821    2.0679    0.9105 C.ar    1  LIG1        0.1307
      8 H          -0.7552    2.7635    1.4377 H       1  LIG1        0.0654
      9 H          -1.9488    0.9954    0.1598 H       1  LIG1        0.0621
     10 C          -0.8503   -1.0357   -1.2987 C.3     1  LIG1       -0.0397
     11 H          -0.1998   -1.4779   -2.0569 H       1  LIG1        0.0278
     12 H          -1.7437   -0.6568   -1.8019 H       1  LIG1        0.0278
     13 H          -1.1717   -1.8422   -0.6309 H       1  LIG1        0.0278
     14 O           1.7577    3.0929    1.6129 O.3     1  LIG1       -0.4944
     15 C           2.4711    2.7192    2.7810 C.3     1  LIG1        0.0788
     16 H           2.8432    3.6438    3.2231 H       1  LIG1        0.0660
     17 H           1.8113    2.2145    3.4971 H       1  LIG1        0.0660
     18 H           3.3206    2.0681    2.5545 H       1  LIG1        0.0660
     19 C           3.3980    1.1448    0.1552 C.ar    1  LIG1        0.1441
     20 C           4.3307    0.1436    0.2038 C.ar    1  LIG1        0.0168
     21 C           5.6034    0.7909    0.1033 C.ar    1  LIG1        0.0776
     22 C           5.3549    2.1336    0.0210 C.ar    1  LIG1        0.1914
     23 O           4.0066    2.3541    0.0504 O.2     1  LIG1       -0.4494
     24 C           4.1292   -1.3279    0.3752 C.3     1  LIG1       -0.0343
     25 H           4.8374   -1.7283    1.1076 H       1  LIG1        0.0279
     26 H           4.2803   -1.8795   -0.5604 H       1  LIG1        0.0279
     27 H           3.1208   -1.5515    0.7271 H       1  LIG1        0.0279
     28 N           6.8448    0.1567    0.1396 N.pl3   1  LIG1       -0.3547
     29 H           6.8240   -0.7744   -0.2554 H       1  LIG1        0.1424
     30 H           7.5771    0.7056   -0.2944 H       1  LIG1        0.1424
     31 C           6.2438    3.2558   -0.0772 C.ar    1  LIG1        0.1743
     32 C           7.5658    3.4033    0.2343 C.ar    1  LIG1        0.0087
     33 C           7.9322    4.7351   -0.1388 C.ar    1  LIG1        0.0733
     34 C           6.7967    5.3142   -0.6409 C.ar    1  LIG1        0.1760
     35 O           5.7607    4.4059   -0.6047 O.2     1  LIG1       -0.4482
     36 H           8.1912    2.6804    0.7376 H       1  LIG1        0.0675
     37 N           9.1778    5.3217    0.0571 N.pl3   1  LIG1       -0.3550
     38 H           9.9506    4.6914   -0.1035 H       1  LIG1        0.1424
     39 H           9.2831    6.1967   -0.4456 H       1  LIG1        0.1424
     40 C           6.4572    6.6100   -1.1723 C.ar    1  LIG1        0.1261
     41 C           7.1648    7.7893   -1.3235 C.ar    1  LIG1        0.1483
     42 C           6.3151    8.7481   -1.9322 C.ar    1  LIG1       -0.0018
     43 C           5.1074    8.1310   -2.1387 C.ar    1  LIG1        0.0058
     44 N           5.2043    6.8453   -1.6847 N.ar    1  LIG1       -0.3553
     45 H           4.4774    6.1483   -1.6920 H       1  LIG1        0.1655
     46 H           4.1939    8.5014   -2.5769 H       1  LIG1        0.0808
     47 O           8.4790    7.9808   -0.9593 O.3     1  LIG1       -0.4929
     48 C           8.6361    8.7691    0.2148 C.3     1  LIG1        0.0789
     49 H           9.7088    8.8870    0.3763 H       1  LIG1        0.0660
     50 H           8.1780    9.7558    0.0893 H       1  LIG1        0.0660
     51 H           8.1883    8.2726    1.0823 H       1  LIG1        0.0660
     52 H           6.5748    9.7631   -2.1935 H       1  LIG1        0.0669
@<TRIPOS>BOND
     1    46    43    1
     2    52    42    1
     3    43    42   ar
     4    43    44   ar
     5    11    10    1
     6    42    41   ar
     7    12    10    1
     8    45    44    1
     9    44    40   ar
    10    41    40   ar
    11    41    47    1
    12    10    13    1
    13    10     1    1
    14    40    34    1
    15     5     2    1
    16    47    48    1
    17    34    35   ar
    18    34    33   ar
    19    35    31   ar
    20    26    24    1
    21     1     2   ar
    22     1     3   ar
    23     2     4   ar
    24    39    37    1
    25    30    28    1
    26    29    28    1
    27    33    37    1
    28    33    32   ar
    29    38    37    1
    30    31    22    1
    31    31    32   ar
    32    22    23   ar
    33    22    21   ar
    34    23    19   ar
    35    50    48    1
    36    21    28    1
    37    21    20   ar
    38    19     4    1
    39    19    20   ar
    40     9     3    1
    41     3     6   ar
    42     4     7   ar
    43    20    24    1
    44    48    49    1
    45    48    51    1
    46    32    36    1
    47    24    27    1
    48    24    25    1
    49     6     7   ar
    50     6     8    1
    51     7    14    1
    52    14    15    1
    53    18    15    1
    54    15    16    1
    55    15    17    1
