@<TRIPOS>MOLECULE
mol_data/opt/cam/geoms/mol2/4la.out
 16 16 0 0 0
SMALL
GASTEIGER

@<TRIPOS>ATOM
      1 C           0.0481    0.1650    0.0002 C.ar    1  LIG1        0.1201
      2 C           1.4429    0.0867   -0.0001 C.ar    1  LIG1       -0.0200
      3 C          -0.5780    1.4093    0.0001 C.ar    1  LIG1       -0.0200
      4 C           2.2009    1.2445   -0.0004 C.ar    1  LIG1       -0.0583
      5 H           1.9031   -0.8950   -0.0000 H       1  LIG1        0.0654
      6 C           0.1999    2.5657   -0.0002 C.ar    1  LIG1       -0.0583
      7 C           1.5844    2.4949   -0.0004 C.ar    1  LIG1       -0.0615
      8 H          -0.2943    3.5322   -0.0002 H       1  LIG1        0.0619
      9 H           3.2840    1.1722   -0.0006 H       1  LIG1        0.0619
     10 H          -1.6575    1.4910    0.0003 H       1  LIG1        0.0654
     11 O          -0.6084   -1.0269    0.0005 O.3     1  LIG1       -0.4951
     12 C          -2.0187   -1.0088    0.0007 C.3     1  LIG1        0.0788
     13 H          -2.3368   -2.0513    0.0010 H       1  LIG1        0.0660
     14 H          -2.4174   -0.5120    0.8931 H       1  LIG1        0.0660
     15 H          -2.4177   -0.5122   -0.8916 H       1  LIG1        0.0660
     16 H           2.1806    3.4008   -0.0007 H       1  LIG1        0.0618
@<TRIPOS>BOND
     1    15    12    1
     2    16     7    1
     3     9     4    1
     4     7     4   ar
     5     7     6   ar
     6     4     2   ar
     7     8     6    1
     8     6     3   ar
     9     2     5    1
    10     2     1   ar
    11     3     1   ar
    12     3    10    1
    13     1    11    1
    14    11    12    1
    15    12    13    1
    16    12    14    1
