@<TRIPOS>MOLECULE
mol_data/opt/cam/geoms/mol2/4la13af-4ed13fi.out
 50 53 0 0 0
SMALL
GASTEIGER

@<TRIPOS>ATOM
      1 C          -0.1424    0.0466   -0.3089 C.ar    1  LIG1        0.1207
      2 C           1.2288    0.0211   -0.0590 C.ar    1  LIG1       -0.0108
      3 C          -0.8255    1.2611   -0.3444 C.ar    1  LIG1       -0.0199
      4 C           1.9310    1.1996    0.1737 C.ar    1  LIG1        0.0019
      5 H           1.7361   -0.9364   -0.0691 H       1  LIG1        0.0661
      6 C          -0.1182    2.4386   -0.1150 C.ar    1  LIG1       -0.0577
      7 C           1.2405    2.4202    0.1471 C.ar    1  LIG1       -0.0524
      8 H          -0.6494    3.3849   -0.1302 H       1  LIG1        0.0619
      9 H          -1.8884    1.3021   -0.5430 H       1  LIG1        0.0654
     10 O          -0.7205   -1.1654   -0.5190 O.3     1  LIG1       -0.4951
     11 C          -2.1042   -1.2056   -0.7916 C.3     1  LIG1        0.0788
     12 H          -2.3568   -2.2569   -0.9276 H       1  LIG1        0.0660
     13 H          -2.6925   -0.7997    0.0397 H       1  LIG1        0.0660
     14 H          -2.3524   -0.6553   -1.7068 H       1  LIG1        0.0660
     15 H           1.7619    3.3458    0.3668 H       1  LIG1        0.0624
     16 C           3.3691    1.1546    0.4413 C.ar    1  LIG1        0.0506
     17 C           4.1561    0.1505    0.9613 C.ar    1  LIG1        0.0058
     18 C           5.4917    0.6139    0.9696 C.ar    1  LIG1        0.1426
     19 C           5.5086    1.9056    0.4547 C.ar    1  LIG1        0.0901
     20 N           4.1851    2.2197    0.1706 N.ar    1  LIG1       -0.3512
     21 H           3.9214    2.9683   -0.4503 H       1  LIG1        0.1660
     22 H           3.8221   -0.8007    1.3466 H       1  LIG1        0.0675
     23 O           6.5016   -0.1072    1.5083 O.3     1  LIG1       -0.5046
     24 H           7.3332    0.1225    1.0678 H       1  LIG1        0.2922
     25 C           7.8792    2.6656   -0.0569 C.ar    1  LIG1        0.0346
     26 C           8.8167    3.6916   -0.1462 C.ar    1  LIG1       -0.0352
     27 C           6.5418    2.9247    0.3262 C.ar    1  LIG1        0.0185
     28 C           8.5032    5.0352    0.0997 C.ar    1  LIG1        0.0204
     29 H           9.8255    3.4372   -0.4376 H       1  LIG1        0.0637
     30 C           6.2233    4.2586    0.5735 C.ar    1  LIG1       -0.0333
     31 C           7.1571    5.2886    0.4583 C.ar    1  LIG1        0.0617
     32 H           5.2199    4.5103    0.8973 H       1  LIG1        0.0637
     33 C           8.3107    1.3462   -0.4079 C.1     1  LIG1       -0.0690
     34 C           8.6925    0.2419   -0.7059 C.1     1  LIG1       -0.1139
     35 H           9.0202   -0.7304   -0.9964 H       1  LIG1        0.1232
     36 N           6.2869    7.6762    0.9640 N.1     1  LIG1       -0.1908
     37 C           6.6744    6.6072    0.7409 C.1     1  LIG1        0.0998
     38 C           9.5414    6.0472   -0.0281 C.ar    1  LIG1        0.0900
     39 C          10.8812    5.9104   -0.3782 C.ar    1  LIG1        0.1449
     40 C          11.5068    7.1784   -0.3678 C.ar    1  LIG1        0.0089
     41 C          10.5251    8.0734   -0.0072 C.ar    1  LIG1        0.0087
     42 N           9.3638    7.4050    0.1929 N.ar    1  LIG1       -0.3574
     43 H           8.4970    7.8395    0.4667 H       1  LIG1        0.1655
     44 H          10.5814    9.1443    0.1193 H       1  LIG1        0.0811
     45 O          11.4893    4.7292   -0.6844 O.3     1  LIG1       -0.5044
     46 H          12.4164    4.9012   -0.8841 H       1  LIG1        0.2922
     47 C          12.9418    7.4563   -0.6873 C.3     1  LIG1       -0.0348
     48 H          13.1558    8.5242   -0.6114 H       1  LIG1        0.0279
     49 H          13.2048    7.1491   -1.7065 H       1  LIG1        0.0279
     50 H          13.6252    6.9434   -0.0001 H       1  LIG1        0.0279
@<TRIPOS>BOND
     1    14    11    1
     2    49    47    1
     3    35    34    1
     4    12    11    1
     5    46    45    1
     6    11    10    1
     7    11    13    1
     8    34    33    3
     9    47    48    1
    10    47    40    1
    11    47    50    1
    12    45    39    1
    13     9     3    1
    14    10     1    1
    15    21    20    1
    16    29    26    1
    17    33    25    1
    18    39    40   ar
    19    39    38   ar
    20    40    41   ar
    21     3     1   ar
    22     3     6   ar
    23     1     2   ar
    24    26    25   ar
    25    26    28   ar
    26     8     6    1
    27     6     7   ar
    28     5     2    1
    29     2     4   ar
    30    25    27   ar
    31    38    28    1
    32    38    42   ar
    33    41    44    1
    34    41    42   ar
    35    28    31   ar
    36     7     4   ar
    37     7    15    1
    38    20    16   ar
    39    20    19   ar
    40     4    16    1
    41    42    43    1
    42    27    19    1
    43    27    30   ar
    44    16    17   ar
    45    19    18   ar
    46    31    30   ar
    47    31    37    1
    48    30    32    1
    49    37    36    3
    50    17    18   ar
    51    17    22    1
    52    18    23    1
    53    24    23    1
