@<TRIPOS>MOLECULE
mol_data/opt/cam/geoms/mol2/4la4la-4la-4la-.out
 58 61 0 0 0
SMALL
GASTEIGER

@<TRIPOS>ATOM
      1 C          -0.1126    0.1455   -0.3650 C.ar    1  LIG1        0.1207
      2 C           1.2748    0.2020   -0.2281 C.ar    1  LIG1       -0.0121
      3 C          -0.8466    1.3177   -0.5126 C.ar    1  LIG1       -0.0199
      4 C           1.9486    1.4189   -0.2365 C.ar    1  LIG1       -0.0109
      5 H           1.8118   -0.7307   -0.0975 H       1  LIG1        0.0660
      6 C          -0.1699    2.5367   -0.5180 C.ar    1  LIG1       -0.0577
      7 C           1.2050    2.5989   -0.3805 C.ar    1  LIG1       -0.0537
      8 H          -0.7389    3.4537   -0.6359 H       1  LIG1        0.0619
      9 H          -1.9236    1.2983   -0.6187 H       1  LIG1        0.0654
     10 O          -0.6527   -1.1051   -0.3364 O.3     1  LIG1       -0.4951
     11 C          -2.0516   -1.2244   -0.4584 C.3     1  LIG1        0.0788
     12 H          -2.2730   -2.2905   -0.4076 H       1  LIG1        0.0660
     13 H          -2.5754   -0.7101    0.3564 H       1  LIG1        0.0660
     14 H          -2.4110   -0.8291   -1.4162 H       1  LIG1        0.0660
     15 H           1.7127    3.5545   -0.3837 H       1  LIG1        0.0624
     16 C           4.1381    2.3223    0.6852 C.ar    1  LIG1        0.1283
     17 C           5.5257    2.2865    0.7513 C.ar    1  LIG1       -0.0115
     18 C           3.4317    1.4293   -0.1440 C.ar    1  LIG1        0.0239
     19 C           6.2605    1.3662   -0.0033 C.ar    1  LIG1       -0.0109
     20 H           6.0591    2.9742    1.3902 H       1  LIG1        0.0660
     21 C           4.1814    0.5229   -0.8891 C.ar    1  LIG1       -0.0500
     22 C           5.5679    0.4829   -0.8286 C.ar    1  LIG1       -0.0531
     23 H           3.6569   -0.1552   -1.5542 H       1  LIG1        0.0625
     24 O           3.3869    3.1919    1.4178 O.3     1  LIG1       -0.4945
     25 C           4.0439    4.0724    2.3010 C.3     1  LIG1        0.0788
     26 H           3.2599    4.6571    2.7825 H       1  LIG1        0.0660
     27 H           4.6099    3.5299    3.0671 H       1  LIG1        0.0660
     28 H           4.7239    4.7489    1.7699 H       1  LIG1        0.0660
     29 H           6.1147   -0.2205   -1.4466 H       1  LIG1        0.0624
     30 C           8.5748    2.4200    0.0885 C.ar    1  LIG1        0.1283
     31 C           9.9563    2.2889    0.1589 C.ar    1  LIG1       -0.0115
     32 C           7.7401    1.2848    0.0954 C.ar    1  LIG1        0.0239
     33 C          10.5584    1.0297    0.2424 C.ar    1  LIG1       -0.0109
     34 H          10.5888    3.1640    0.1406 H       1  LIG1        0.0660
     35 C           8.3602    0.0403    0.1761 C.ar    1  LIG1       -0.0500
     36 C           9.7398   -0.0971    0.2491 C.ar    1  LIG1       -0.0531
     37 H           7.7350   -0.8462    0.1934 H       1  LIG1        0.0625
     38 O           7.9543    3.6312    0.0002 O.3     1  LIG1       -0.4945
     39 C           8.7502    4.7887   -0.1234 C.3     1  LIG1        0.0788
     40 H           8.0561    5.6211   -0.2411 H       1  LIG1        0.0660
     41 H           9.3655    4.9579    0.7682 H       1  LIG1        0.0660
     42 H           9.4039    4.7367   -1.0014 H       1  LIG1        0.0660
     43 H          10.1817   -1.0862    0.2978 H       1  LIG1        0.0624
     44 C          12.9447    1.5935   -0.4254 C.ar    1  LIG1        0.1278
     45 C          14.3156    1.3979   -0.2779 C.ar    1  LIG1       -0.0193
     46 C          12.0310    0.8789    0.3750 C.ar    1  LIG1        0.0239
     47 C          14.7970    0.4955    0.6654 C.ar    1  LIG1       -0.0583
     48 H          15.0167    1.9425   -0.8969 H       1  LIG1        0.0654
     49 C          12.5490   -0.0160    1.3096 C.ar    1  LIG1       -0.0505
     50 C          13.9164   -0.2153    1.4638 C.ar    1  LIG1       -0.0610
     51 H          11.8525   -0.5562    1.9423 H       1  LIG1        0.0625
     52 H          15.8683    0.3573    0.7698 H       1  LIG1        0.0619
     53 O          12.4121    2.4552   -1.3365 O.3     1  LIG1       -0.4945
     54 C          13.2828    3.1221   -2.2231 C.3     1  LIG1        0.0788
     55 H          12.6479    3.7152   -2.8814 H       1  LIG1        0.0660
     56 H          13.9720    3.7894   -1.6921 H       1  LIG1        0.0660
     57 H          13.8641    2.4153   -2.8262 H       1  LIG1        0.0660
     58 H          14.2843   -0.9155    2.2056 H       1  LIG1        0.0618
@<TRIPOS>BOND
     1    55    54    1
     2    57    54    1
     3    54    56    1
     4    54    53    1
     5    23    21    1
     6    29    22    1
     7    14    11    1
     8    53    44    1
     9    42    39    1
    10    48    45    1
    11    21    22   ar
    12    21    18   ar
    13    22    19   ar
    14     8     6    1
    15     9     3    1
    16     6     3   ar
    17     6     7   ar
    18     3     1   ar
    19    11    12    1
    20    11    10    1
    21    11    13    1
    22    44    45   ar
    23    44    46   ar
    24    15     7    1
    25     7     4   ar
    26     1    10    1
    27     1     2   ar
    28    45    47   ar
    29    40    39    1
    30     4     2   ar
    31     4    18    1
    32     2     5    1
    33    18    16   ar
    34    39    38    1
    35    39    41    1
    36    19    32    1
    37    19    17   ar
    38    38    30    1
    39    30    32   ar
    40    30    31   ar
    41    32    35   ar
    42    34    31    1
    43    31    33   ar
    44    35    37    1
    45    35    36   ar
    46    33    36   ar
    47    33    46    1
    48    36    43    1
    49    46    49   ar
    50    47    52    1
    51    47    50   ar
    52    16    17   ar
    53    16    24    1
    54    17    20    1
    55    49    50   ar
    56    49    51    1
    57    24    25    1
    58    50    58    1
    59    28    25    1
    60    25    26    1
    61    25    27    1
