@<TRIPOS>MOLECULE
mol_data/opt/cam/geoms/mol2/4la4la-.out
 30 31 0 0 0
SMALL
GASTEIGER

@<TRIPOS>ATOM
      1 C           0.0011    0.2680    0.1676 C.ar    1  LIG1        0.1207
      2 C           1.3949    0.2522    0.2358 C.ar    1  LIG1       -0.0121
      3 C          -0.6534    1.3229   -0.4599 C.ar    1  LIG1       -0.0199
      4 C           2.1518    1.2800   -0.3162 C.ar    1  LIG1       -0.0109
      5 H           1.8704   -0.5772    0.7470 H       1  LIG1        0.0660
      6 C           0.1073    2.3533   -1.0103 C.ar    1  LIG1       -0.0577
      7 C           1.4890    2.3440   -0.9435 C.ar    1  LIG1       -0.0537
      8 H          -0.4002    3.1765   -1.5035 H       1  LIG1        0.0619
      9 H          -1.7334    1.3570   -0.5241 H       1  LIG1        0.0654
     10 O          -0.6249   -0.7926    0.7490 O.3     1  LIG1       -0.4951
     11 C          -2.0337   -0.8273    0.7193 C.3     1  LIG1        0.0788
     12 H          -2.3276   -1.7426    1.2332 H       1  LIG1        0.0660
     13 H          -2.4717    0.0328    1.2399 H       1  LIG1        0.0660
     14 H          -2.4176   -0.8538   -0.3076 H       1  LIG1        0.0660
     15 H           2.0630    3.1542   -1.3740 H       1  LIG1        0.0624
     16 C           4.4445    2.2896    0.0947 C.ar    1  LIG1        0.1278
     17 C           5.8306    2.1596    0.1356 C.ar    1  LIG1       -0.0193
     18 C           3.6360    1.1955   -0.2720 C.ar    1  LIG1        0.0239
     19 C           6.4297    0.9459   -0.1876 C.ar    1  LIG1       -0.0583
     20 H           6.4516    2.9983    0.4223 H       1  LIG1        0.0654
     21 C           4.2693   -0.0046   -0.5875 C.ar    1  LIG1       -0.0505
     22 C           5.6527   -0.1418   -0.5500 C.ar    1  LIG1       -0.0610
     23 H           3.6529   -0.8462   -0.8860 H       1  LIG1        0.0625
     24 H           7.5112    0.8622   -0.1538 H       1  LIG1        0.0619
     25 O           3.7960    3.4436    0.4117 O.3     1  LIG1       -0.4945
     26 C           4.5569    4.5481    0.8463 C.3     1  LIG1        0.0788
     27 H           3.8410    5.3397    1.0670 H       1  LIG1        0.0660
     28 H           5.1262    4.3150    1.7537 H       1  LIG1        0.0660
     29 H           5.2489    4.8962    0.0704 H       1  LIG1        0.0660
     30 H           6.1133   -1.0890   -0.8082 H       1  LIG1        0.0618
@<TRIPOS>BOND
     1     8     6    1
     2    15     7    1
     3     6     7   ar
     4     6     3   ar
     5     7     4   ar
     6    23    21    1
     7    30    22    1
     8    21    22   ar
     9    21    18   ar
    10    22    19   ar
    11     9     3    1
    12     3     1   ar
    13     4    18    1
    14     4     2   ar
    15    14    11    1
    16    18    16   ar
    17    19    24    1
    18    19    17   ar
    19    29    26    1
    20    16    17   ar
    21    16    25    1
    22    17    20    1
    23     1     2   ar
    24     1    10    1
    25     2     5    1
    26    25    26    1
    27    11    10    1
    28    11    12    1
    29    11    13    1
    30    26    27    1
    31    26    28    1
