@<TRIPOS>MOLECULE
mol_data/opt/cam/geoms/mol2/4la6ie-6ld-12af-.out
 52 55 0 0 0
SMALL
GASTEIGER

@<TRIPOS>ATOM
      1 C          -0.1719    0.5358    0.4735 C.ar    1  LIG1        0.1207
      2 C           1.2204    0.6081    0.5490 C.ar    1  LIG1       -0.0122
      3 C          -0.8301    0.9766   -0.6715 C.ar    1  LIG1       -0.0199
      4 C           1.9653    1.1196   -0.5072 C.ar    1  LIG1       -0.0127
      5 H           1.7025    0.2687    1.4592 H       1  LIG1        0.0660
      6 C          -0.0796    1.4840   -1.7297 C.ar    1  LIG1       -0.0577
      7 C           1.3010    1.5598   -1.6589 C.ar    1  LIG1       -0.0537
      8 H          -0.5911    1.8190   -2.6263 H       1  LIG1        0.0619
      9 H          -1.9085    0.9300   -0.7515 H       1  LIG1        0.0654
     10 O          -0.7906    0.0241    1.5692 O.3     1  LIG1       -0.4951
     11 C          -2.1986   -0.0740    1.5547 C.3     1  LIG1        0.0788
     12 H          -2.4830   -0.5034    2.5149 H       1  LIG1        0.0660
     13 H          -2.6711    0.9093    1.4467 H       1  LIG1        0.0660
     14 H          -2.5496   -0.7299    0.7495 H       1  LIG1        0.0660
     15 H           1.8698    1.9395   -2.4999 H       1  LIG1        0.0624
     16 C           4.2135    2.3149   -0.6206 C.ar    1  LIG1        0.0467
     17 C           3.4489    1.1505   -0.4115 C.ar    1  LIG1        0.0045
     18 C           4.1349   -0.0108   -0.0835 C.ar    1  LIG1       -0.0348
     19 C           5.5274   -0.0221    0.0134 C.ar    1  LIG1        0.0514
     20 C           6.1989    1.1859   -0.2388 C.ar    1  LIG1        0.0917
     21 N           5.5434    2.3062   -0.5355 N.ar    1  LIG1       -0.2499
     22 H           3.5852   -0.9286    0.0947 H       1  LIG1        0.0637
     23 C           3.5994    3.6526   -0.9324 C.3     1  LIG1       -0.0217
     24 H           2.6243    3.7758   -0.4591 H       1  LIG1        0.0293
     25 H           3.4601    3.7803   -2.0108 H       1  LIG1        0.0293
     26 H           4.2780    4.4360   -0.5948 H       1  LIG1        0.0293
     27 C           6.2080   -1.2294    0.3683 C.1     1  LIG1       -0.0675
     28 C           6.7509   -2.2610    0.6689 C.1     1  LIG1       -0.1138
     29 H           7.2424   -3.1689    0.9341 H       1  LIG1        0.1232
     30 C           8.3580    2.2396    0.5842 C.ar    1  LIG1        0.2246
     31 C           7.6805    1.2820   -0.2077 C.ar    1  LIG1        0.0643
     32 C           8.4811    0.4608   -0.9685 C.ar    1  LIG1       -0.0278
     33 C           9.8774    0.5998   -0.9647 C.ar    1  LIG1        0.0816
     34 C          10.4427    1.6045   -0.1633 C.ar    1  LIG1        0.1272
     35 N           9.6668    2.3900    0.5933 N.ar    1  LIG1       -0.2079
     36 H           8.0326   -0.3054   -1.5900 H       1  LIG1        0.0639
     37 O           7.6190    3.0090    1.3847 O.3     1  LIG1       -0.4792
     38 C           8.3037    3.9706    2.1831 C.3     1  LIG1        0.0804
     39 H           7.5244    4.4830    2.7456 H       1  LIG1        0.0660
     40 H           9.0106    3.4858    2.8595 H       1  LIG1        0.0660
     41 H           8.8522    4.6769    1.5569 H       1  LIG1        0.0660
     42 N          11.2499   -1.0115   -2.4495 N.1     1  LIG1       -0.1908
     43 C          10.6481   -0.2829   -1.7805 C.1     1  LIG1        0.1014
     44 C          11.8771    1.8686   -0.0843 C.ar    1  LIG1        0.1579
     45 C          12.9817    1.3289   -0.6841 C.ar    1  LIG1        0.0273
     46 C          14.0944    2.0483   -0.1704 C.ar    1  LIG1        0.1551
     47 C          13.5981    2.9699    0.7002 C.ar    1  LIG1        0.1339
     48 O          12.2473    2.8666    0.7578 O.2     1  LIG1       -0.4576
     49 H          14.0517    3.7267    1.3199 H       1  LIG1        0.1068
     50 H          13.0224    0.5252   -1.4004 H       1  LIG1        0.0693
     51 O          15.3735    1.7928   -0.5380 O.3     1  LIG1       -0.5036
     52 H          15.9687    2.3938   -0.0760 H       1  LIG1        0.2923
@<TRIPOS>BOND
     1     8     6    1
     2    15     7    1
     3    42    43    3
     4    25    23    1
     5    43    33    1
     6     6     7   ar
     7     6     3   ar
     8     7     4   ar
     9    36    32    1
    10    50    45    1
    11    32    33   ar
    12    32    31   ar
    13    33    34   ar
    14    23    16    1
    15    23    26    1
    16    23    24    1
    17     9     3    1
    18    45    46   ar
    19    45    44   ar
    20     3     1   ar
    21    16    21   ar
    22    16    17   ar
    23    51    46    1
    24    51    52    1
    25    21    20   ar
    26     4    17    1
    27     4     2   ar
    28    17    18   ar
    29    20    31    1
    30    20    19   ar
    31    31    30   ar
    32    46    47   ar
    33    34    44    1
    34    34    35   ar
    35    44    48   ar
    36    18    19   ar
    37    18    22    1
    38    19    27    1
    39    27    28    3
    40     1     2   ar
    41     1    10    1
    42     2     5    1
    43    30    35   ar
    44    30    37    1
    45    28    29    1
    46    47    48   ar
    47    47    49    1
    48    14    11    1
    49    37    38    1
    50    13    11    1
    51    11    10    1
    52    11    12    1
    53    41    38    1
    54    38    39    1
    55    38    40    1
