@<TRIPOS>MOLECULE
mol_data/opt/cam/geoms/mol2/4ld13if13al-13al-.out
 53 56 0 0 0
SMALL
GASTEIGER

@<TRIPOS>ATOM
      1 C          -0.1407    0.2206   -0.2596 C.ar    1  LIG1        0.1208
      2 C           1.2470    0.0887   -0.2157 C.ar    1  LIG1       -0.0096
      3 C          -0.7336    1.4836   -0.1859 C.ar    1  LIG1       -0.0187
      4 C           2.0854    1.1908   -0.0798 C.ar    1  LIG1        0.0195
      5 H           1.6623   -0.9053   -0.3155 H       1  LIG1        0.0661
      6 C           0.0839    2.5932   -0.0603 C.ar    1  LIG1       -0.0403
      7 C           1.4730    2.4742    0.0019 C.ar    1  LIG1        0.0611
      8 H          -0.3600    3.5807    0.0027 H       1  LIG1        0.0632
      9 H          -1.8069    1.6093   -0.2262 H       1  LIG1        0.0654
     10 O          -0.8278   -0.9339   -0.3916 O.3     1  LIG1       -0.4951
     11 C          -2.2400   -0.8776   -0.4608 C.3     1  LIG1        0.0788
     12 H          -2.5771   -1.9081   -0.5650 H       1  LIG1        0.0660
     13 H          -2.6691   -0.4479    0.4508 H       1  LIG1        0.0660
     14 H          -2.5760   -0.2986   -1.3279 H       1  LIG1        0.0660
     15 N           2.8745    4.6383    0.2743 N.1     1  LIG1       -0.1908
     16 C           2.2373    3.6750    0.1690 C.1     1  LIG1        0.0998
     17 C           3.5294    1.0128   -0.0046 C.ar    1  LIG1        0.0548
     18 C           4.3088   -0.0149    0.5243 C.ar    1  LIG1        0.0170
     19 C           5.6513    0.4282    0.4545 C.ar    1  LIG1        0.1469
     20 C           5.6817    1.6895   -0.1098 C.ar    1  LIG1        0.1057
     21 N           4.3803    2.0209   -0.3789 N.ar    1  LIG1       -0.3498
     22 H           4.1232    2.8294   -0.9191 H       1  LIG1        0.1661
     23 C           3.8842   -1.2978    1.1643 C.3     1  LIG1       -0.0342
     24 H           4.6552   -1.6307    1.8626 H       1  LIG1        0.0279
     25 H           3.7450   -2.1010    0.4322 H       1  LIG1        0.0279
     26 H           2.9465   -1.1856    1.7144 H       1  LIG1        0.0279
     27 O           6.7039   -0.2774    0.9520 O.3     1  LIG1       -0.5043
     28 H           7.4423    0.3338    1.0788 H       1  LIG1        0.2922
     29 C           6.7077    2.6976   -0.2236 C.ar    1  LIG1        0.0706
     30 C           8.0612    2.6601   -0.5049 C.ar    1  LIG1        0.0076
     31 C           8.5276    4.0004   -0.4447 C.ar    1  LIG1        0.1473
     32 C           7.4624    4.8287   -0.1376 C.ar    1  LIG1        0.1057
     33 N           6.3604    4.0097   -0.0162 N.ar    1  LIG1       -0.3488
     34 H           5.4871    4.2836    0.4117 H       1  LIG1        0.1661
     35 H           8.6191    1.7834   -0.7973 H       1  LIG1        0.0676
     36 O           9.7810    4.4787   -0.6623 O.3     1  LIG1       -0.4929
     37 C          10.7457    3.5236   -1.0416 C.3     1  LIG1        0.0789
     38 H          11.6822    4.0639   -1.1806 H       1  LIG1        0.0660
     39 H          10.8836    2.7608   -0.2651 H       1  LIG1        0.0660
     40 H          10.4732    3.0279   -1.9814 H       1  LIG1        0.0660
     41 C           7.3842    6.2615    0.0201 C.ar    1  LIG1        0.0701
     42 C           8.3935    7.2002    0.1372 C.ar    1  LIG1        0.0069
     43 C           7.7642    8.4632    0.2811 C.ar    1  LIG1        0.1379
     44 C           6.4036    8.2746    0.2502 C.ar    1  LIG1        0.0444
     45 N           6.1864    6.9242    0.0961 N.ar    1  LIG1       -0.3564
     46 H           5.2759    6.5117   -0.0321 H       1  LIG1        0.1655
     47 H           5.5964    8.9838    0.3258 H       1  LIG1        0.0844
     48 H           9.4467    6.9724    0.1245 H       1  LIG1        0.0676
     49 O           8.3366    9.6891    0.4330 O.3     1  LIG1       -0.4936
     50 C           9.7447    9.7037    0.4419 C.3     1  LIG1        0.0789
     51 H          10.0459   10.7445    0.5662 H       1  LIG1        0.0660
     52 H          10.1501    9.1110    1.2716 H       1  LIG1        0.0660
     53 H          10.1591    9.3194   -0.4985 H       1  LIG1        0.0660
@<TRIPOS>BOND
     1    40    37    1
     2    14    11    1
     3    38    37    1
     4    37    36    1
     5    37    39    1
     6    22    21    1
     7    35    30    1
     8    36    31    1
     9    12    11    1
    10    30    31   ar
    11    30    29   ar
    12    53    50    1
    13    11    10    1
    14    11    13    1
    15    31    32   ar
    16    10     1    1
    17    21    20   ar
    18    21    17   ar
    19     5     2    1
    20     1     2   ar
    21     1     3   ar
    22     9     3    1
    23    29    20    1
    24    29    33   ar
    25     2     4   ar
    26     3     6   ar
    27    32    33   ar
    28    32    41    1
    29    20    19   ar
    30     4    17    1
    31     4     7   ar
    32     6     7   ar
    33     6     8    1
    34    46    45    1
    35    33    34    1
    36    17    18   ar
    37     7    16    1
    38    41    45   ar
    39    41    42   ar
    40    45    44   ar
    41    48    42    1
    42    42    43   ar
    43    16    15    3
    44    44    43   ar
    45    44    47    1
    46    43    49    1
    47    25    23    1
    48    49    50    1
    49    50    51    1
    50    50    52    1
    51    19    18   ar
    52    19    27    1
    53    18    23    1
    54    27    28    1
    55    23    26    1
    56    23    24    1
