@<TRIPOS>MOLECULE
mol_data/opt/cam/geoms/mol2/4ld13fd-12fl13eh.out
 51 54 0 0 0
SMALL
GASTEIGER

@<TRIPOS>ATOM
      1 C          -0.1404    0.2785   -0.0124 C.ar    1  LIG1        0.1208
      2 C           1.2377    0.1447    0.1331 C.ar    1  LIG1       -0.0095
      3 C          -0.7117    1.5260   -0.2840 C.ar    1  LIG1       -0.0187
      4 C           2.1012    1.2335    0.0116 C.ar    1  LIG1        0.0227
      5 H           1.6325   -0.8391    0.3465 H       1  LIG1        0.0661
      6 C           0.1258    2.6171   -0.4092 C.ar    1  LIG1       -0.0403
      7 C           1.5118    2.5001   -0.2716 C.ar    1  LIG1        0.0612
      8 H          -0.2946    3.5937   -0.6229 H       1  LIG1        0.0632
      9 H          -1.7797    1.6509   -0.3970 H       1  LIG1        0.0654
     10 O          -0.8490   -0.8614    0.1316 O.3     1  LIG1       -0.4951
     11 C          -2.2568   -0.8057    0.0054 C.3     1  LIG1        0.0788
     12 H          -2.6125   -1.8238    0.1578 H       1  LIG1        0.0660
     13 H          -2.7020   -0.1511    0.7626 H       1  LIG1        0.0660
     14 H          -2.5573   -0.4641   -0.9912 H       1  LIG1        0.0660
     15 N           2.9234    4.6506   -0.5693 N.1     1  LIG1       -0.1908
     16 C           2.2785    3.6947   -0.4406 C.1     1  LIG1        0.0998
     17 C           3.5298    1.0243    0.1732 C.ar    1  LIG1        0.0917
     18 C           4.2757   -0.1345    0.3266 C.ar    1  LIG1        0.1602
     19 C           5.6541    0.2136    0.4120 C.ar    1  LIG1        0.1220
     20 C           5.7222    1.6062    0.3092 C.ar    1  LIG1        0.1076
     21 N           4.4583    2.0536    0.1763 N.ar    1  LIG1       -0.3477
     22 H           4.2517    3.0356    0.0854 H       1  LIG1        0.1661
     23 O           3.7812   -1.3888    0.3787 O.3     1  LIG1       -0.5034
     24 H           4.5136   -2.0138    0.4770 H       1  LIG1        0.2923
     25 N           7.4127   -1.6386    0.6894 N.1     1  LIG1       -0.1907
     26 C           6.6747   -0.7529    0.5647 C.1     1  LIG1        0.1051
     27 C           6.7711    2.5804    0.2904 C.ar    1  LIG1        0.1982
     28 C           8.1344    2.6139    0.2868 C.ar    1  LIG1        0.2076
     29 C           8.5204    3.9821    0.1531 C.ar    1  LIG1        0.2099
     30 C           7.3700    4.7261    0.0957 C.ar    1  LIG1        0.1983
     31 O           6.3120    3.8740    0.1713 O.2     1  LIG1       -0.4442
     32 O           8.9851    1.5802    0.3719 O.3     1  LIG1       -0.5008
     33 H           9.8799    1.9501    0.4101 H       1  LIG1        0.2924
     34 O           9.8329    4.3313    0.0966 O.3     1  LIG1       -0.4884
     35 C          10.2714    4.7769   -1.1889 C.3     1  LIG1        0.0791
     36 H          11.3410    4.9661   -1.0991 H       1  LIG1        0.0660
     37 H          10.0922    4.0073   -1.9474 H       1  LIG1        0.0660
     38 H           9.7676    5.7029   -1.4729 H       1  LIG1        0.0660
     39 C           7.0058    6.1127   -0.0349 C.ar    1  LIG1        0.1033
     40 C           7.7297    7.2990    0.1152 C.ar    1  LIG1        0.0736
     41 C           6.8223    8.3760   -0.1246 C.ar    1  LIG1        0.0584
     42 C           5.5967    7.8188   -0.4043 C.ar    1  LIG1        0.0243
     43 N           5.7250    6.4540   -0.3511 N.ar    1  LIG1       -0.3555
     44 H           4.9605    5.8023   -0.4841 H       1  LIG1        0.1655
     45 H           4.6483    8.2829   -0.6231 H       1  LIG1        0.0826
     46 C           9.0859    7.4796    0.4842 C.1     1  LIG1       -0.0656
     47 C          10.2297    7.7133    0.7882 C.1     1  LIG1       -0.1138
     48 H          11.2349    7.8912    1.0930 H       1  LIG1        0.1232
     49 N           7.1509    9.7269   -0.0120 N.pl3   1  LIG1       -0.3559
     50 H           8.1498    9.8835   -0.0409 H       1  LIG1        0.1424
     51 H           6.6710   10.3249   -0.6696 H       1  LIG1        0.1424
@<TRIPOS>BOND
     1    37    35    1
     2    38    35    1
     3    35    36    1
     4    35    34    1
     5    14    11    1
     6    51    49    1
     7    45    42    1
     8     8     6    1
     9    15    16    3
    10    44    43    1
    11    16     7    1
    12     6     3   ar
    13     6     7   ar
    14    42    43   ar
    15    42    41   ar
    16     9     3    1
    17    43    39   ar
    18     3     1   ar
    19     7     4   ar
    20    41    49    1
    21    41    40   ar
    22    50    49    1
    23    39    30    1
    24    39    40   ar
    25     1    10    1
    26     1     2   ar
    27    11    10    1
    28    11    12    1
    29    11    13    1
    30     4     2   ar
    31     4    17    1
    32    22    21    1
    33    30    29   ar
    34    30    31   ar
    35    34    29    1
    36    40    46    1
    37     2     5    1
    38    29    28   ar
    39    31    27   ar
    40    17    21   ar
    41    17    18   ar
    42    21    20   ar
    43    28    27   ar
    44    28    32    1
    45    27    20    1
    46    20    19   ar
    47    18    23    1
    48    18    19   ar
    49    32    33    1
    50    23    24    1
    51    19    26    1
    52    46    47    3
    53    26    25    3
    54    47    48    1
