@<TRIPOS>MOLECULE
mol_data/opt/cam/geoms/mol2/4ld12ee12da6al-.out
 49 52 0 0 0
SMALL
GASTEIGER

@<TRIPOS>ATOM
      1 C          -0.1066   -0.0933    0.3040 C.ar    1  LIG1        0.1208
      2 C           1.2856   -0.0324    0.2302 C.ar    1  LIG1       -0.0080
      3 C          -0.8665    1.0623    0.1279 C.ar    1  LIG1       -0.0187
      4 C           1.9421    1.1636   -0.0289 C.ar    1  LIG1        0.0393
      5 H           1.8439   -0.9463    0.3843 H       1  LIG1        0.0661
      6 C          -0.2173    2.2597   -0.1295 C.ar    1  LIG1       -0.0402
      7 C           1.1719    2.3372   -0.2145 C.ar    1  LIG1        0.0627
      8 H          -0.7979    3.1634   -0.2756 H       1  LIG1        0.0632
      9 H          -1.9464    1.0427    0.1861 H       1  LIG1        0.0654
     10 O          -0.6201   -1.3153    0.5610 O.3     1  LIG1       -0.4951
     11 C          -2.0250   -1.4484    0.6656 C.3     1  LIG1        0.0788
     12 H          -2.2124   -2.5005    0.8760 H       1  LIG1        0.0660
     13 H          -2.4250   -0.8398    1.4839 H       1  LIG1        0.0660
     14 H          -2.5243   -1.1727   -0.2696 H       1  LIG1        0.0660
     15 N           2.1209    4.6757   -0.7918 N.1     1  LIG1       -0.1908
     16 C           1.7375    3.6175   -0.5256 C.1     1  LIG1        0.0999
     17 C           3.3997    1.1723   -0.0965 C.ar    1  LIG1        0.1537
     18 C           4.3419    0.2072   -0.3586 C.ar    1  LIG1        0.0865
     19 C           5.6239    0.8651   -0.2950 C.ar    1  LIG1        0.0895
     20 C           5.3560    2.1736    0.0157 C.ar    1  LIG1        0.1884
     21 O           4.0182    2.3525    0.1337 O.2     1  LIG1       -0.4491
     22 C           4.1431   -1.1602   -0.6791 C.1     1  LIG1       -0.0646
     23 C           4.0008   -2.3237   -0.9513 C.1     1  LIG1       -0.1138
     24 H           3.8788   -3.3533   -1.1988 H       1  LIG1        0.1232
     25 C           6.8817    0.2742   -0.5655 C.1     1  LIG1       -0.0645
     26 C           7.9478   -0.2279   -0.8048 C.1     1  LIG1       -0.1138
     27 H           8.9045   -0.6582   -0.9940 H       1  LIG1        0.1232
     28 C           6.1627    3.3505    0.2039 C.ar    1  LIG1        0.1891
     29 C           7.4469    3.5876    0.6341 C.ar    1  LIG1        0.1011
     30 C           7.6323    5.0038    0.5777 C.ar    1  LIG1        0.0024
     31 C           6.4595    5.5326    0.1337 C.ar    1  LIG1        0.1387
     32 O           5.5703    4.5275   -0.0936 O.2     1  LIG1       -0.4503
     33 N           9.1966    1.9349    1.5552 N.1     1  LIG1       -0.1907
     34 C           8.3977    2.6536    1.1267 C.1     1  LIG1        0.1031
     35 H           8.5288    5.5333    0.8588 H       1  LIG1        0.0668
     36 C           4.6903    7.1607   -0.4957 C.ar    1  LIG1        0.0385
     37 C           6.0075    6.8940   -0.1233 C.ar    1  LIG1        0.0388
     38 C           6.9034    7.9631    0.0058 C.ar    1  LIG1       -0.0063
     39 C           6.4405    9.2442   -0.2400 C.ar    1  LIG1        0.1388
     40 C           5.0986    9.4080   -0.6090 C.ar    1  LIG1        0.0692
     41 N           4.2520    8.4006   -0.7330 N.ar    1  LIG1       -0.2589
     42 H           7.9332    7.7820    0.2869 H       1  LIG1        0.0662
     43 H           4.7312   10.4124   -0.8050 H       1  LIG1        0.0867
     44 H           3.9658    6.3588   -0.6049 H       1  LIG1        0.0837
     45 O           7.1789   10.3773   -0.1582 O.3     1  LIG1       -0.4936
     46 C           8.5364   10.2576    0.2115 C.3     1  LIG1        0.0789
     47 H           8.9402   11.2693    0.2198 H       1  LIG1        0.0660
     48 H           8.6442    9.8192    1.2106 H       1  LIG1        0.0660
     49 H           9.0982    9.6522   -0.5096 H       1  LIG1        0.0660
@<TRIPOS>BOND
     1    24    23    1
     2    27    26    1
     3    23    22    3
     4    43    40    1
     5    26    25    3
     6    15    16    3
     7    41    40   ar
     8    41    36   ar
     9    22    18    1
    10    40    39   ar
    11    44    36    1
    12    25    19    1
    13    16     7    1
    14    49    46    1
    15    36    37   ar
    16    18    19   ar
    17    18    17   ar
    18    19    20   ar
    19     8     6    1
    20    14    11    1
    21    39    45    1
    22    39    38   ar
    23     7     6   ar
    24     7     4   ar
    25    45    46    1
    26     6     3   ar
    27    37    38   ar
    28    37    31    1
    29    17     4    1
    30    17    21   ar
    31    32    31   ar
    32    32    28   ar
    33     4     2   ar
    34    38    42    1
    35    20    21   ar
    36    20    28    1
    37     3     9    1
    38     3     1   ar
    39    31    30   ar
    40    28    29   ar
    41    46    47    1
    42    46    48    1
    43     2     1   ar
    44     2     5    1
    45     1    10    1
    46    10    11    1
    47    30    29   ar
    48    30    35    1
    49    29    34    1
    50    11    12    1
    51    11    13    1
    52    34    33    3
