@<TRIPOS>MOLECULE
mol_data/opt/cam/geoms/mol2/4le.out
 18 18 0 0 0
SMALL
GASTEIGER

@<TRIPOS>ATOM
      1 C           0.0167    0.1326    0.0002 C.ar    1  LIG1        0.1202
      2 C           1.4131    0.0670   -0.0001 C.ar    1  LIG1       -0.0188
      3 C          -0.6177    1.3737    0.0002 C.ar    1  LIG1       -0.0188
      4 C           2.1628    1.2255   -0.0004 C.ar    1  LIG1       -0.0429
      5 H           1.8831   -0.9097   -0.0000 H       1  LIG1        0.0654
      6 C           0.1458    2.5347   -0.0001 C.ar    1  LIG1       -0.0429
      7 C           1.5401    2.4832   -0.0004 C.ar    1  LIG1        0.0249
      8 H          -0.3480    3.5001   -0.0002 H       1  LIG1        0.0631
      9 H           3.2457    1.1706   -0.0006 H       1  LIG1        0.0631
     10 H          -1.6973    1.4495    0.0004 H       1  LIG1        0.0654
     11 O          -0.6288   -1.0607    0.0005 O.3     1  LIG1       -0.4951
     12 C          -2.0405   -1.0567    0.0007 C.3     1  LIG1        0.0788
     13 H          -2.3471   -2.1024    0.0009 H       1  LIG1        0.0660
     14 H          -2.4424   -0.5639    0.8935 H       1  LIG1        0.0660
     15 H          -2.4428   -0.5641   -0.8920 H       1  LIG1        0.0660
     16 C           2.3180    3.6846   -0.0007 C.1     1  LIG1       -0.0697
     17 C           2.9736    4.6949   -0.0011 C.1     1  LIG1       -0.1139
     18 H           3.5534    5.5886   -0.0026 H       1  LIG1        0.1232
@<TRIPOS>BOND
     1    15    12    1
     2    18    17    1
     3    17    16    3
     4    16     7    1
     5     9     4    1
     6     7     4   ar
     7     7     6   ar
     8     4     2   ar
     9     8     6    1
    10     6     3   ar
    11     2     5    1
    12     2     1   ar
    13     3     1   ar
    14     3    10    1
    15     1    11    1
    16    11    12    1
    17    12    13    1
    18    12    14    1
