@<TRIPOS>MOLECULE
mol_data/opt/cam/geoms/mol2/4le13ie12ha6lh.out
 55 58 0 0 0
SMALL
GASTEIGER

@<TRIPOS>ATOM
      1 C          -0.0667    0.2189   -0.5140 C.ar    1  LIG1        0.1208
      2 C           1.3270    0.2324   -0.5291 C.ar    1  LIG1       -0.0097
      3 C          -0.7651    1.1882    0.2026 C.ar    1  LIG1       -0.0188
      4 C           2.0618    1.1818    0.1753 C.ar    1  LIG1        0.0174
      5 H           1.8288   -0.5111   -1.1340 H       1  LIG1        0.0661
      6 C          -0.0450    2.1505    0.8942 C.ar    1  LIG1       -0.0422
      7 C           1.3505    2.1711    0.9036 C.ar    1  LIG1        0.0340
      8 H          -0.5751    2.9109    1.4570 H       1  LIG1        0.0631
      9 H          -1.8465    1.2073    0.2262 H       1  LIG1        0.0654
     10 O          -0.6489   -0.7664   -1.2418 O.3     1  LIG1       -0.4951
     11 C          -2.0593   -0.8209   -1.2845 C.3     1  LIG1        0.0788
     12 H          -2.3108   -1.6718   -1.9168 H       1  LIG1        0.0660
     13 H          -2.4875   -0.9748   -0.2874 H       1  LIG1        0.0660
     14 H          -2.4849    0.0901   -1.7209 H       1  LIG1        0.0660
     15 C           2.0018    3.1872    1.6746 C.1     1  LIG1       -0.0690
     16 C           2.5204    4.0574    2.3286 C.1     1  LIG1       -0.1139
     17 H           3.0041    4.8047    2.9148 H       1  LIG1        0.1232
     18 C           3.5257    1.1192    0.1326 C.ar    1  LIG1        0.0524
     19 C           4.3743    0.0304    0.0479 C.ar    1  LIG1       -0.0091
     20 C           5.7094    0.5416    0.0210 C.ar    1  LIG1        0.0565
     21 C           5.6310    1.9323    0.1024 C.ar    1  LIG1        0.1002
     22 N           4.3126    2.2504    0.1626 N.ar    1  LIG1       -0.3505
     23 H           3.9790    3.1957    0.2800 H       1  LIG1        0.1660
     24 C           4.0326   -1.4255    0.0173 C.3     1  LIG1       -0.0365
     25 H           4.8379   -2.0091    0.4693 H       1  LIG1        0.0279
     26 H           3.9039   -1.7985   -1.0052 H       1  LIG1        0.0279
     27 H           3.1096   -1.6338    0.5626 H       1  LIG1        0.0279
     28 C           6.8771   -0.2513   -0.1163 C.1     1  LIG1       -0.0672
     29 C           7.8496   -0.9570   -0.2391 C.1     1  LIG1       -0.1138
     30 H           8.6970   -1.5879   -0.3762 H       1  LIG1        0.1232
     31 C           6.6096    2.9878    0.1387 C.ar    1  LIG1        0.1735
     32 C           7.9319    3.1079    0.4955 C.ar    1  LIG1        0.0731
     33 C           8.2363    4.4993    0.3917 C.ar    1  LIG1        0.0058
     34 C           7.0943    5.1348   -0.0022 C.ar    1  LIG1        0.1427
     35 O           6.1039    4.2320   -0.1578 O.2     1  LIG1       -0.4512
     36 N           8.7938    2.1379    0.9774 N.pl3   1  LIG1       -0.3550
     37 H           8.5458    1.1856    0.7392 H       1  LIG1        0.1424
     38 H           9.7684    2.3309    0.7997 H       1  LIG1        0.1424
     39 H           9.1812    4.9636    0.6336 H       1  LIG1        0.0674
     40 C           5.5481    7.1369   -0.2004 C.ar    1  LIG1        0.2255
     41 C           6.8265    6.5381   -0.2954 C.ar    1  LIG1        0.0805
     42 C           7.8748    7.3679   -0.6717 C.ar    1  LIG1       -0.0238
     43 C           7.6673    8.7235   -0.9351 C.ar    1  LIG1        0.0438
     44 C           6.3632    9.1872   -0.8159 C.ar    1  LIG1        0.0520
     45 N           5.3388    8.4109   -0.4581 N.ar    1  LIG1       -0.2189
     46 H           8.8699    6.9462   -0.7765 H       1  LIG1        0.0645
     47 H           6.1311   10.2315   -1.0171 H       1  LIG1        0.0849
     48 O           4.5054    6.3664    0.1788 O.3     1  LIG1       -0.4792
     49 C           3.2324    6.9971    0.2273 C.3     1  LIG1        0.0804
     50 H           2.5370    6.2192    0.5411 H       1  LIG1        0.0660
     51 H           3.2280    7.8252    0.9409 H       1  LIG1        0.0660
     52 H           2.9501    7.3905   -0.7525 H       1  LIG1        0.0660
     53 N           8.7265    9.5756   -1.2600 N.pl3   1  LIG1       -0.3568
     54 H           9.4926    9.1249   -1.7399 H       1  LIG1        0.1424
     55 H           8.4459   10.4195   -1.7394 H       1  LIG1        0.1424
@<TRIPOS>BOND
     1    12    11    1
     2    54    53    1
     3    55    53    1
     4    14    11    1
     5    11    10    1
     6    11    13    1
     7    53    43    1
     8    10     1    1
     9     5     2    1
    10    47    44    1
    11    26    24    1
    12    43    44   ar
    13    43    42   ar
    14    44    45   ar
    15    46    42    1
    16    52    49    1
    17    42    41   ar
    18     2     1   ar
    19     2     4   ar
    20     1     3   ar
    21    45    40   ar
    22    30    29    1
    23    41    40   ar
    24    41    34    1
    25    29    28    3
    26    40    48    1
    27    35    34   ar
    28    35    31   ar
    29    28    20    1
    30    34    33   ar
    31    24    19    1
    32    24    25    1
    33    24    27    1
    34    20    19   ar
    35    20    21   ar
    36    19    18   ar
    37    21    31    1
    38    21    22   ar
    39    18    22   ar
    40    18     4    1
    41    31    32   ar
    42    22    23    1
    43     4     7   ar
    44    48    49    1
    45     3     9    1
    46     3     6   ar
    47    49    50    1
    48    49    51    1
    49    33    32   ar
    50    33    39    1
    51    32    36    1
    52    37    36    1
    53    38    36    1
    54     6     7   ar
    55     6     8    1
    56     7    15    1
    57    15    16    3
    58    16    17    1
