@<TRIPOS>MOLECULE
mol_data/opt/cam/geoms/mol2/4le13fl-13dd13fd-.out
 51 54 0 0 0
SMALL
GASTEIGER

@<TRIPOS>ATOM
      1 C          -0.2115    0.1835    0.0964 C.ar    1  LIG1        0.1208
      2 C           1.1708    0.1653   -0.0691 C.ar    1  LIG1       -0.0096
      3 C          -0.8554    1.3531    0.4992 C.ar    1  LIG1       -0.0188
      4 C           1.9536    1.2976    0.1520 C.ar    1  LIG1        0.0208
      5 H           1.6306   -0.7621   -0.3815 H       1  LIG1        0.0661
      6 C          -0.0889    2.4830    0.7265 C.ar    1  LIG1       -0.0422
      7 C           1.2992    2.4902    0.5639 C.ar    1  LIG1        0.0341
      8 H          -0.5726    3.4002    1.0436 H       1  LIG1        0.0631
      9 H          -1.9273    1.3945    0.6381 H       1  LIG1        0.0654
     10 O          -0.8422   -0.9872   -0.1570 O.3     1  LIG1       -0.4951
     11 C          -2.2454   -1.0417   -0.0010 C.3     1  LIG1        0.0788
     12 H          -2.5380   -2.0608   -0.2515 H       1  LIG1        0.0660
     13 H          -2.5447   -0.8247    1.0306 H       1  LIG1        0.0660
     14 H          -2.7533   -0.3449   -0.6775 H       1  LIG1        0.0660
     15 C           1.9636    3.7288    0.8428 C.1     1  LIG1       -0.0690
     16 C           2.4649    4.7962    1.1031 C.1     1  LIG1       -0.1139
     17 H           2.8790    5.7457    1.3561 H       1  LIG1        0.1232
     18 C           3.3959    1.1904   -0.0578 C.ar    1  LIG1        0.0940
     19 C           4.1662    0.1259   -0.5039 C.ar    1  LIG1        0.1851
     20 C           5.5230    0.5195   -0.5085 C.ar    1  LIG1        0.1888
     21 C           5.5755    1.8338   -0.0814 C.ar    1  LIG1        0.1106
     22 N           4.2823    2.2230    0.1693 N.ar    1  LIG1       -0.3471
     23 H           4.0214    3.0481    0.6901 H       1  LIG1        0.1662
     24 O           3.7254   -1.0926   -0.9176 O.3     1  LIG1       -0.5019
     25 H           4.4069   -1.4631   -1.4951 H       1  LIG1        0.2924
     26 O           6.5368   -0.2491   -0.9910 O.3     1  LIG1       -0.4895
     27 C           6.9123   -1.3382   -0.1365 C.3     1  LIG1        0.0791
     28 H           7.6729   -1.9002   -0.6777 H       1  LIG1        0.0660
     29 H           7.3373   -0.9698    0.7983 H       1  LIG1        0.0660
     30 H           6.0533   -1.9840    0.0740 H       1  LIG1        0.0660
     31 C           6.6462    2.8027   -0.0391 C.ar    1  LIG1        0.0860
     32 C           7.9875    2.7216    0.2937 C.ar    1  LIG1        0.0965
     33 C           8.5493    4.0328    0.1482 C.ar    1  LIG1        0.0965
     34 C           7.5354    4.8793   -0.2540 C.ar    1  LIG1        0.0859
     35 N           6.4009    4.1138   -0.3607 N.ar    1  LIG1       -0.3496
     36 H           5.4932    4.4607   -0.6319 H       1  LIG1        0.1661
     37 N           9.2401    0.6294    1.1221 N.1     1  LIG1       -0.1908
     38 C           8.6752    1.5649    0.7406 C.1     1  LIG1        0.1027
     39 N          11.0141    4.7020    0.4916 N.1     1  LIG1       -0.1908
     40 C           9.9065    4.4022    0.3450 C.1     1  LIG1        0.1027
     41 C           7.5491    6.2966   -0.5451 C.ar    1  LIG1        0.1075
     42 C           8.0841    7.3467    0.1648 C.ar    1  LIG1        0.1609
     43 C           7.8121    8.5452   -0.5619 C.ar    1  LIG1        0.1110
     44 C           7.1160    8.1835   -1.7002 C.ar    1  LIG1        0.0233
     45 N           6.9481    6.8438   -1.6749 N.ar    1  LIG1       -0.3554
     46 H           6.5967    6.2994   -2.4465 H       1  LIG1        0.1655
     47 H           6.7489    8.7962   -2.5082 H       1  LIG1        0.0821
     48 O           8.6998    7.2234    1.3531 O.3     1  LIG1       -0.5034
     49 H           9.1258    8.0563    1.5945 H       1  LIG1        0.2923
     50 N           8.5210   10.8828    0.2530 N.1     1  LIG1       -0.1907
     51 C           8.1877    9.8471   -0.1437 C.1     1  LIG1        0.1043
@<TRIPOS>BOND
     1    47    44    1
     2    46    45    1
     3    44    45   ar
     4    44    43   ar
     5    45    41   ar
     6    25    24    1
     7    26    20    1
     8    26    27    1
     9    24    19    1
    10    28    27    1
    11    14    11    1
    12    36    35    1
    13    43    51    1
    14    43    42   ar
    15    41    34    1
    16    41    42   ar
    17    20    19   ar
    18    20    21   ar
    19    19    18   ar
    20     5     2    1
    21    35    34   ar
    22    35    31   ar
    23    34    33   ar
    24    12    11    1
    25    10    11    1
    26    10     1    1
    27    51    50    3
    28    27    30    1
    29    27    29    1
    30    21    31    1
    31    21    22   ar
    32     2     1   ar
    33     2     4   ar
    34    18     4    1
    35    18    22   ar
    36    31    32   ar
    37    11    13    1
    38     1     3   ar
    39    33    32   ar
    40    33    40    1
    41     4     7   ar
    42    42    48    1
    43    22    23    1
    44    32    38    1
    45    40    39    3
    46     3     9    1
    47     3     6   ar
    48     7     6   ar
    49     7    15    1
    50     6     8    1
    51    38    37    3
    52    15    16    3
    53    16    17    1
    54    48    49    1
