@<TRIPOS>MOLECULE
mol_data/opt/cam/geoms/mol2/4le4le-.out
 34 35 0 0 0
SMALL
GASTEIGER

@<TRIPOS>ATOM
      1 C          -0.0019    0.3571    0.4675 C.ar    1  LIG1        0.1207
      2 C           1.3940    0.3295    0.5031 C.ar    1  LIG1       -0.0110
      3 C          -0.6552    1.3810   -0.2120 C.ar    1  LIG1       -0.0188
      4 C           2.1517    1.3047   -0.1255 C.ar    1  LIG1        0.0045
      5 H           1.8773   -0.4724    1.0494 H       1  LIG1        0.0660
      6 C           0.1003    2.3557   -0.8512 C.ar    1  LIG1       -0.0423
      7 C           1.4943    2.3406   -0.8263 C.ar    1  LIG1        0.0327
      8 H          -0.4014    3.1493   -1.3936 H       1  LIG1        0.0631
      9 H          -1.7355    1.4300   -0.2551 H       1  LIG1        0.0654
     10 O          -0.6252   -0.6522    1.1262 O.3     1  LIG1       -0.4951
     11 C          -2.0366   -0.6750    1.1277 C.3     1  LIG1        0.0788
     12 H          -2.3256   -1.5533    1.7043 H       1  LIG1        0.0660
     13 H          -2.4542    0.2204    1.6027 H       1  LIG1        0.0660
     14 H          -2.4401   -0.7627    0.1123 H       1  LIG1        0.0660
     15 C           2.2167    3.3485   -1.5419 C.1     1  LIG1       -0.0690
     16 C           2.7915    4.2006   -2.1695 C.1     1  LIG1       -0.1139
     17 H           3.3069    4.9468   -2.7283 H       1  LIG1        0.1232
     18 C           4.4166    2.2102    0.5179 C.ar    1  LIG1        0.1279
     19 C           5.8049    2.0975    0.5384 C.ar    1  LIG1       -0.0182
     20 C           3.6354    1.2052   -0.0819 C.ar    1  LIG1        0.0262
     21 C           6.4223    0.9847   -0.0158 C.ar    1  LIG1       -0.0428
     22 H           6.4125    2.8683    0.9945 H       1  LIG1        0.0655
     23 C           4.2731    0.0966   -0.6170 C.ar    1  LIG1       -0.0351
     24 C           5.6681   -0.0344   -0.5961 C.ar    1  LIG1        0.0255
     25 H           3.6751   -0.6813   -1.0787 H       1  LIG1        0.0637
     26 H           7.5032    0.9020    0.0050 H       1  LIG1        0.0631
     27 O           3.7345    3.2390    1.0725 O.3     1  LIG1       -0.4945
     28 C           4.4581    4.3555    1.5415 C.3     1  LIG1        0.0788
     29 H           3.7142    5.0813    1.8682 H       1  LIG1        0.0660
     30 H           5.1013    4.0945    2.3900 H       1  LIG1        0.0660
     31 H           5.0695    4.7972    0.7467 H       1  LIG1        0.0660
     32 C           6.3007   -1.1860   -1.1636 C.1     1  LIG1       -0.0696
     33 C           6.8330   -2.1555   -1.6401 C.1     1  LIG1       -0.1139
     34 H           7.3027   -3.0131   -2.0629 H       1  LIG1        0.1232
@<TRIPOS>BOND
     1    17    16    1
     2    16    15    3
     3    34    33    1
     4    33    32    3
     5    15     7    1
     6     8     6    1
     7    32    24    1
     8    25    23    1
     9     6     7   ar
    10     6     3   ar
    11     7     4   ar
    12    23    24   ar
    13    23    20   ar
    14    24    21   ar
    15     9     3    1
    16     3     1   ar
    17     4    20    1
    18     4     2   ar
    19    20    18   ar
    20    21    26    1
    21    21    19   ar
    22    14    11    1
    23     1     2   ar
    24     1    10    1
    25     2     5    1
    26    18    19   ar
    27    18    27    1
    28    19    22    1
    29    31    28    1
    30    27    28    1
    31    10    11    1
    32    11    13    1
    33    11    12    1
    34    28    29    1
    35    28    30    1
