@<TRIPOS>MOLECULE
mol_data/opt/cam/geoms/mol2/4le4le-4le-4le-.out
 66 69 0 0 0
SMALL
GASTEIGER

@<TRIPOS>ATOM
      1 C          -0.1633    0.2585    0.0084 C.ar    1  LIG1        0.1207
      2 C           1.2331    0.2486    0.0248 C.ar    1  LIG1       -0.0110
      3 C          -0.8447    1.4698   -0.0651 C.ar    1  LIG1       -0.0188
      4 C           1.9646    1.4246   -0.0300 C.ar    1  LIG1        0.0045
      5 H           1.7385   -0.7077    0.0955 H       1  LIG1        0.0660
      6 C          -0.1158    2.6505   -0.1297 C.ar    1  LIG1       -0.0423
      7 C           1.2784    2.6567   -0.1166 C.ar    1  LIG1        0.0327
      8 H          -0.6392    3.5975   -0.2007 H       1  LIG1        0.0631
      9 H          -1.9262    1.5092   -0.0773 H       1  LIG1        0.0654
     10 O          -0.7593   -0.9591    0.0718 O.3     1  LIG1       -0.4951
     11 C          -2.1697   -1.0113    0.0625 C.3     1  LIG1        0.0788
     12 H          -2.4350   -2.0666    0.1201 H       1  LIG1        0.0660
     13 H          -2.5988   -0.4851    0.9230 H       1  LIG1        0.0660
     14 H          -2.5834   -0.5863   -0.8594 H       1  LIG1        0.0660
     15 C           1.9707    3.9045   -0.2330 C.1     1  LIG1       -0.0690
     16 C           2.5177    4.9707   -0.3527 C.1     1  LIG1       -0.1139
     17 H           3.0100    5.9085   -0.4646 H       1  LIG1        0.1232
     18 C           4.2255    1.9424    0.9699 C.ar    1  LIG1        0.1285
     19 C           5.6111    1.8586    0.9272 C.ar    1  LIG1       -0.0104
     20 C           3.4496    1.3495   -0.0419 C.ar    1  LIG1        0.0263
     21 C           6.2690    1.1773   -0.0984 C.ar    1  LIG1        0.0045
     22 H           6.2092    2.3210    1.6997 H       1  LIG1        0.0661
     23 C           4.1067    0.6678   -1.0515 C.ar    1  LIG1       -0.0345
     24 C           5.5044    0.5686   -1.1066 C.ar    1  LIG1        0.0333
     25 H           3.5223    0.2111   -1.8424 H       1  LIG1        0.0637
     26 O           3.5390    2.5507    1.9661 O.3     1  LIG1       -0.4945
     27 C           4.2560    3.3127    2.9125 C.3     1  LIG1        0.0788
     28 H           3.5080    3.7763    3.5550 H       1  LIG1        0.0660
     29 H           4.9147    2.6848    3.5236 H       1  LIG1        0.0660
     30 H           4.8514    4.0934    2.4264 H       1  LIG1        0.0660
     31 C           6.0946   -0.1257   -2.2118 C.1     1  LIG1       -0.0690
     32 C           6.5474   -0.7155   -3.1591 C.1     1  LIG1       -0.1139
     33 H           6.9648   -1.2350   -3.9902 H       1  LIG1        0.1232
     34 C           8.5695    2.2221    0.0131 C.ar    1  LIG1        0.1285
     35 C           9.9525    2.0951    0.0492 C.ar    1  LIG1       -0.0104
     36 C           7.7526    1.0787   -0.0727 C.ar    1  LIG1        0.0263
     37 C          10.5722    0.8461    0.0079 C.ar    1  LIG1        0.0045
     38 H          10.5798    2.9735    0.1027 H       1  LIG1        0.0661
     39 C           8.3772   -0.1574   -0.1199 C.ar    1  LIG1       -0.0345
     40 C           9.7700   -0.3026   -0.0804 C.ar    1  LIG1        0.0333
     41 H           7.7682   -1.0501   -0.1942 H       1  LIG1        0.0637
     42 O           7.9317    3.4214    0.0543 O.3     1  LIG1       -0.4945
     43 C           8.7092    4.5993    0.0465 C.3     1  LIG1        0.0788
     44 H           8.0009    5.4274    0.0329 H       1  LIG1        0.0660
     45 H           9.3372    4.6772    0.9417 H       1  LIG1        0.0660
     46 H           9.3466    4.6541   -0.8430 H       1  LIG1        0.0660
     47 C          10.3209   -1.6231   -0.1537 C.1     1  LIG1       -0.0690
     48 C          10.7431   -2.7489   -0.2203 C.1     1  LIG1       -0.1139
     49 H          11.1300   -3.7398   -0.2777 H       1  LIG1        0.1232
     50 C          12.8848    1.4576   -0.8041 C.ar    1  LIG1        0.1279
     51 C          14.2712    1.3716   -0.6910 C.ar    1  LIG1       -0.0182
     52 C          12.0550    0.7629    0.0974 C.ar    1  LIG1        0.0262
     53 C          14.8439    0.6060    0.3142 C.ar    1  LIG1       -0.0428
     54 H          14.9137    1.8981   -1.3843 H       1  LIG1        0.0655
     55 C          12.6534    0.0015    1.0919 C.ar    1  LIG1       -0.0351
     56 C          14.0443   -0.0892    1.2206 C.ar    1  LIG1        0.0255
     57 H          12.0246   -0.5386    1.7893 H       1  LIG1        0.0637
     58 H          15.9232    0.5460    0.3982 H       1  LIG1        0.0631
     59 O          12.2580    2.1869   -1.7631 O.3     1  LIG1       -0.4945
     60 C          13.0426    2.8246   -2.7483 C.3     1  LIG1        0.0788
     61 H          12.3396    3.3041   -3.4291 H       1  LIG1        0.0660
     62 H          13.6996    3.5869   -2.3137 H       1  LIG1        0.0660
     63 H          13.6501    2.1039   -3.3070 H       1  LIG1        0.0660
     64 C          14.6299   -0.8768    2.2626 C.1     1  LIG1       -0.0696
     65 C          15.1244   -1.5379    3.1393 C.1     1  LIG1       -0.1139
     66 H          15.5592   -2.1242    3.9153 H       1  LIG1        0.1232
@<TRIPOS>BOND
     1    33    32    1
     2    61    60    1
     3    63    60    1
     4    32    31    3
     5    60    62    1
     6    60    59    1
     7    31    24    1
     8    25    23    1
     9    59    50    1
    10    54    51    1
    11    24    23   ar
    12    24    21   ar
    13    23    20   ar
    14    14    11    1
    15    46    43    1
    16    50    51   ar
    17    50    52   ar
    18    51    53   ar
    19    17    16    1
    20    16    15    3
    21    49    48    1
    22    15     7    1
    23    48    47    3
    24     8     6    1
    25    41    39    1
    26    47    40    1
    27     6     7   ar
    28     6     3   ar
    29    39    40   ar
    30    39    36   ar
    31     7     4   ar
    32    21    36    1
    33    21    19   ar
    34    40    37   ar
    35     9     3    1
    36    36    34   ar
    37     3     1   ar
    38    20     4    1
    39    20    18   ar
    40     4     2   ar
    41    37    35   ar
    42    37    52    1
    43     1     2   ar
    44     1    10    1
    45    34    35   ar
    46    34    42    1
    47     2     5    1
    48    44    43    1
    49    43    42    1
    50    43    45    1
    51    35    38    1
    52    11    10    1
    53    11    12    1
    54    11    13    1
    55    52    55   ar
    56    53    58    1
    57    53    56   ar
    58    19    18   ar
    59    19    22    1
    60    18    26    1
    61    55    56   ar
    62    55    57    1
    63    56    64    1
    64    26    27    1
    65    64    65    3
    66    30    27    1
    67    27    29    1
    68    27    28    1
    69    65    66    1
