@<TRIPOS>MOLECULE
mol_data/opt/cam/geoms/mol2/4le6le-13di-13al-.out
 57 60 0 0 0
SMALL
GASTEIGER

@<TRIPOS>ATOM
      1 C          -0.0434    0.6285   -1.0449 C.ar    1  LIG1        0.1207
      2 C           1.3477    0.5845   -0.9270 C.ar    1  LIG1       -0.0109
      3 C          -0.7917    1.3508   -0.1194 C.ar    1  LIG1       -0.0188
      4 C           2.0040    1.2483    0.0973 C.ar    1  LIG1        0.0061
      5 H           1.9073    0.0275   -1.6698 H       1  LIG1        0.0660
      6 C          -0.1372    2.0096    0.9134 C.ar    1  LIG1       -0.0423
      7 C           1.2502    1.9732    1.0467 C.ar    1  LIG1        0.0328
      8 H          -0.7156    2.5622    1.6453 H       1  LIG1        0.0631
      9 H          -1.8704    1.4050   -0.1868 H       1  LIG1        0.0654
     10 O          -0.5641   -0.0575   -2.0915 O.3     1  LIG1       -0.4951
     11 C          -1.9658   -0.0476   -2.2655 C.3     1  LIG1        0.0788
     12 H          -2.1657   -0.6509   -3.1504 H       1  LIG1        0.0660
     13 H          -2.4817   -0.4887   -1.4050 H       1  LIG1        0.0660
     14 H          -2.3441    0.9680   -2.4291 H       1  LIG1        0.0660
     15 C           1.8690    2.6294    2.1581 C.1     1  LIG1       -0.0690
     16 C           2.3625    3.1727    3.1128 C.1     1  LIG1       -0.1139
     17 H           2.8029    3.6450    3.9603 H       1  LIG1        0.1232
     18 C           4.3249    2.2770    0.1246 C.ar    1  LIG1        0.2231
     19 C           3.4809    1.1455    0.1943 C.ar    1  LIG1        0.0461
     20 C           4.1176   -0.0695    0.3110 C.ar    1  LIG1       -0.0314
     21 C           5.5183   -0.1675    0.4105 C.ar    1  LIG1        0.0529
     22 C           6.2418    1.0296    0.4297 C.ar    1  LIG1        0.1075
     23 N           5.6322    2.2201    0.2492 N.ar    1  LIG1       -0.2096
     24 H           3.5308   -0.9812    0.3296 H       1  LIG1        0.0638
     25 O           3.7328    3.4585   -0.0989 O.3     1  LIG1       -0.4792
     26 C           4.5439    4.6217   -0.0628 C.3     1  LIG1        0.0804
     27 H           3.8588    5.4591   -0.1878 H       1  LIG1        0.0660
     28 H           5.0702    4.7016    0.8912 H       1  LIG1        0.0660
     29 H           5.2781    4.6164   -0.8733 H       1  LIG1        0.0660
     30 C           6.1182   -1.4612    0.4197 C.1     1  LIG1       -0.0674
     31 C           6.5721   -2.5753    0.3934 C.1     1  LIG1       -0.1138
     32 H           7.0112   -3.5460    0.4144 H       1  LIG1        0.1232
     33 C           7.6966    1.1348    0.5666 C.ar    1  LIG1        0.0846
     34 C           8.7019    0.4115    1.2063 C.ar    1  LIG1        0.0820
     35 C           9.9457    1.0771    0.9825 C.ar    1  LIG1       -0.0057
     36 C           9.6643    2.1905    0.2174 C.ar    1  LIG1        0.0677
     37 N           8.3103    2.2064   -0.0074 N.ar    1  LIG1       -0.3505
     38 H           7.7960    2.8793   -0.5547 H       1  LIG1        0.1660
     39 N           8.5770   -1.5713    2.8467 N.1     1  LIG1       -0.1908
     40 C           8.5841   -0.6972    2.0871 C.1     1  LIG1        0.1016
     41 C          11.2740    0.6566    1.5210 C.3     1  LIG1       -0.0364
     42 H          11.9631    1.5031    1.5542 H       1  LIG1        0.0279
     43 H          11.7324   -0.1229    0.9033 H       1  LIG1        0.0279
     44 H          11.1729    0.2475    2.5293 H       1  LIG1        0.0279
     45 C          10.5270    3.2412   -0.2907 C.ar    1  LIG1        0.0667
     46 C          11.7973    3.1861   -0.8305 C.ar    1  LIG1        0.0068
     47 C          12.1621    4.5170   -1.1681 C.ar    1  LIG1        0.1379
     48 C          11.1186    5.3452   -0.8331 C.ar    1  LIG1        0.0444
     49 N          10.1214    4.5510   -0.3162 N.ar    1  LIG1       -0.3564
     50 H           9.3113    4.8997    0.1689 H       1  LIG1        0.1655
     51 H          11.0173    6.4134   -0.9300 H       1  LIG1        0.0844
     52 H          12.3630    2.2838   -1.0003 H       1  LIG1        0.0676
     53 O          13.3090    4.9688   -1.7378 O.3     1  LIG1       -0.4936
     54 C          14.2838    3.9883   -2.0147 C.3     1  LIG1        0.0789
     55 H          15.1362    4.5109   -2.4489 H       1  LIG1        0.0660
     56 H          14.6059    3.4711   -1.1025 H       1  LIG1        0.0660
     57 H          13.9156    3.2446   -2.7321 H       1  LIG1        0.0660
@<TRIPOS>BOND
     1    12    11    1
     2    57    54    1
     3    55    54    1
     4    14    11    1
     5    11    10    1
     6    11    13    1
     7    10     1    1
     8    54    53    1
     9    54    56    1
    10    53    47    1
    11     5     2    1
    12    47    48   ar
    13    47    46   ar
    14     1     2   ar
    15     1     3   ar
    16    52    46    1
    17    51    48    1
    18     2     4   ar
    19    29    26    1
    20    48    49   ar
    21    46    45   ar
    22    38    37    1
    23    49    45   ar
    24    49    50    1
    25    45    36    1
    26    27    26    1
    27     9     3    1
    28     3     6   ar
    29    25    26    1
    30    25    18    1
    31    26    28    1
    32    37    36   ar
    33    37    33   ar
    34     4    19    1
    35     4     7   ar
    36    18    19   ar
    37    18    23   ar
    38    19    20   ar
    39    36    35   ar
    40    23    22   ar
    41    20    24    1
    42    20    21   ar
    43    31    32    1
    44    31    30    3
    45    21    30    1
    46    21    22   ar
    47    22    33    1
    48    33    34   ar
    49    43    41    1
    50     6     7   ar
    51     6     8    1
    52    35    34   ar
    53    35    41    1
    54     7    15    1
    55    34    40    1
    56    41    42    1
    57    41    44    1
    58    40    39    3
    59    15    16    3
    60    16    17    1
