@<TRIPOS>MOLECULE
mol_data/opt/cam/geoms/mol2/4le6fi4hf6he-13hl-6ee-12ai-4fe-.out
 107 114 0 0 0
SMALL
GASTEIGER

@<TRIPOS>ATOM
      1 C          -0.5021    0.8388    0.6488 C.ar    1  LIG1        0.1207
      2 C           0.8936    0.8441    0.6453 C.ar    1  LIG1       -0.0109
      3 C          -1.1977    1.1139   -0.5278 C.ar    1  LIG1       -0.0188
      4 C           1.6158    1.1103   -0.5104 C.ar    1  LIG1        0.0060
      5 H           1.4090    0.6468    1.5783 H       1  LIG1        0.0660
      6 C          -0.4846    1.3782   -1.6872 C.ar    1  LIG1       -0.0423
      7 C           0.9124    1.3776   -1.7089 C.ar    1  LIG1        0.0328
      8 H          -1.0182    1.5812   -2.6090 H       1  LIG1        0.0631
      9 H          -2.2794    1.1222   -0.5533 H       1  LIG1        0.0654
     10 O          -1.0841    0.5652    1.8398 O.3     1  LIG1       -0.4951
     11 C          -2.4959    0.5568    1.9109 C.3     1  LIG1        0.0788
     12 H          -2.7449    0.3204    2.9447 H       1  LIG1        0.0660
     13 H          -2.9171    1.5351    1.6535 H       1  LIG1        0.0660
     14 H          -2.9272   -0.2059    1.2529 H       1  LIG1        0.0660
     15 C           1.5955    1.6210   -2.9441 C.1     1  LIG1       -0.0690
     16 C           2.1533    1.8422   -3.9880 C.1     1  LIG1       -0.1139
     17 H           2.6596    2.0429   -4.9041 H       1  LIG1        0.1232
     18 C           3.9042    2.1970   -0.7541 C.ar    1  LIG1        0.2208
     19 C           3.1007    1.0799   -0.4526 C.ar    1  LIG1        0.0451
     20 C           3.7693   -0.0528   -0.0108 C.ar    1  LIG1       -0.0440
     21 C           5.1586   -0.1019    0.0932 C.ar    1  LIG1       -0.0236
     22 C           5.8468    1.0591   -0.2862 C.ar    1  LIG1        0.0796
     23 N           5.2199    2.1771   -0.6738 N.ar    1  LIG1       -0.2122
     24 H           3.1848   -0.9257    0.2667 H       1  LIG1        0.0629
     25 O           3.3876    3.3890   -1.1181 O.3     1  LIG1       -0.4920
     26 H           2.4338    3.3064   -1.2414 H       1  LIG1        0.2937
     27 C           5.8462   -1.3240    0.6401 C.3     1  LIG1       -0.0377
     28 H           6.5576   -1.0542    1.4253 H       1  LIG1        0.0278
     29 H           6.4128   -1.8493   -0.1332 H       1  LIG1        0.0278
     30 H           5.1155   -2.0143    1.0675 H       1  LIG1        0.0278
     31 C           8.1878    0.3320   -0.9636 C.ar    1  LIG1        0.0346
     32 C           9.5664    0.5074   -0.8352 C.ar    1  LIG1       -0.0291
     33 C           7.3331    1.1611   -0.2222 C.ar    1  LIG1        0.0248
     34 C          10.1381    1.4848   -0.0215 C.ar    1  LIG1        0.0286
     35 H          10.2298   -0.1273   -1.4152 H       1  LIG1        0.0643
     36 C           7.8944    2.1661    0.5629 C.ar    1  LIG1       -0.0086
     37 C           9.2640    2.3265    0.6770 C.ar    1  LIG1        0.1254
     38 H           7.2239    2.8349    1.0957 H       1  LIG1        0.0661
     39 N           7.6900   -0.6652   -1.8119 N.pl3   1  LIG1       -0.3574
     40 H           6.7750   -0.4621   -2.1915 H       1  LIG1        0.1423
     41 H           8.3343   -0.9333   -2.5424 H       1  LIG1        0.1423
     42 O           9.8033    3.3109    1.4753 O.3     1  LIG1       -0.5061
     43 H           9.0877    3.7689    1.9315 H       1  LIG1        0.2922
     44 C          12.3991    2.7129   -0.1318 C.ar    1  LIG1        0.1248
     45 C          11.6177    1.5464    0.0883 C.ar    1  LIG1        0.0264
     46 C          12.3284    0.3923    0.3514 C.ar    1  LIG1       -0.0331
     47 C          13.7303    0.3499    0.3665 C.ar    1  LIG1        0.0528
     48 C          14.4117    1.5400    0.0428 C.ar    1  LIG1        0.1065
     49 N          13.7278    2.6785   -0.1594 N.ar    1  LIG1       -0.2291
     50 H          11.7858   -0.5197    0.5769 H       1  LIG1        0.0638
     51 N          11.8262    3.9265   -0.4028 N.pl3   1  LIG1       -0.3426
     52 H          12.4995    4.6778   -0.4389 H       1  LIG1        0.1437
     53 H          10.9671    4.1312    0.0898 H       1  LIG1        0.1437
     54 C          14.3591   -0.8569    0.7943 C.1     1  LIG1       -0.0674
     55 C          14.8286   -1.8974    1.1834 C.1     1  LIG1       -0.1138
     56 H          15.2708   -2.7934    1.5529 H       1  LIG1        0.1232
     57 C          15.8565    1.7063   -0.0819 C.ar    1  LIG1        0.0913
     58 C          16.9558    0.8890   -0.3621 C.ar    1  LIG1        0.0947
     59 C          18.0742    1.7456   -0.4608 C.ar    1  LIG1        0.1665
     60 C          17.6654    3.0618   -0.2569 C.ar    1  LIG1        0.0938
     61 N          16.3277    2.9990   -0.0271 N.ar    1  LIG1       -0.3484
     62 H          15.6951    3.7771    0.0843 H       1  LIG1        0.1661
     63 N          17.0860   -0.4832   -0.5501 N.pl3   1  LIG1       -0.3534
     64 H          16.2235   -1.0036   -0.5831 H       1  LIG1        0.1425
     65 H          17.7128   -0.7015   -1.3136 H       1  LIG1        0.1425
     66 O          19.3382    1.3034   -0.7570 O.3     1  LIG1       -0.4911
     67 C          19.9867    0.6708    0.3455 C.3     1  LIG1        0.0790
     68 H          20.9535    0.3197   -0.0189 H       1  LIG1        0.0660
     69 H          20.1419    1.3813    1.1647 H       1  LIG1        0.0660
     70 H          19.3966   -0.1766    0.7063 H       1  LIG1        0.0660
     71 C          18.0012    5.5561    0.1633 C.ar    1  LIG1        0.1232
     72 C          18.4453    4.2937   -0.2901 C.ar    1  LIG1        0.0370
     73 C          19.7401    4.2677   -0.8161 C.ar    1  LIG1       -0.0323
     74 C          20.5306    5.4089   -0.8746 C.ar    1  LIG1        0.0543
     75 C          19.9868    6.6195   -0.3825 C.ar    1  LIG1        0.1227
     76 N          18.7528    6.6567    0.1130 N.ar    1  LIG1       -0.2334
     77 H          20.1326    3.3324   -1.1935 H       1  LIG1        0.0638
     78 C          16.6980    5.7696    0.7369 C.1     1  LIG1       -0.0491
     79 C          15.6175    5.9880    1.2214 C.1     1  LIG1       -0.1124
     80 H          14.6715    6.1843    1.6712 H       1  LIG1        0.1232
     81 C          21.8350    5.2909   -1.4484 C.1     1  LIG1       -0.0674
     82 C          22.9194    5.1211   -1.9439 C.1     1  LIG1       -0.1138
     83 H          23.8783    4.9825   -2.3879 H       1  LIG1        0.1232
     84 C          20.7099    7.8883   -0.3760 C.ar    1  LIG1        0.1553
     85 C          22.0035    8.2635   -0.6015 C.ar    1  LIG1       -0.0108
     86 C          22.0803    9.6719   -0.4003 C.ar    1  LIG1       -0.0039
     87 C          20.8086   10.0646   -0.0763 C.ar    1  LIG1        0.1422
     88 O          19.9804    8.9867   -0.0519 O.2     1  LIG1       -0.4529
     89 H          22.8208    7.6106   -0.8589 H       1  LIG1        0.0659
     90 C          23.3294   10.4914   -0.4770 C.3     1  LIG1       -0.0361
     91 H          23.2950   11.3391    0.2093 H       1  LIG1        0.0279
     92 H          23.4837   10.8961   -1.4806 H       1  LIG1        0.0279
     93 H          24.1973    9.8792   -0.2193 H       1  LIG1        0.0279
     94 C          20.5072   12.5530   -0.2894 C.ar    1  LIG1        0.1276
     95 C          19.8812   13.7279    0.1207 C.ar    1  LIG1       -0.0183
     96 C          20.1798   11.3281    0.3121 C.ar    1  LIG1        0.0600
     97 C          18.9087   13.7021    1.1045 C.ar    1  LIG1       -0.0428
     98 H          20.1513   14.6686   -0.3524 H       1  LIG1        0.0655
     99 C          19.1834   11.3201    1.2888 C.ar    1  LIG1       -0.0321
    100 C          18.5405   12.4899    1.6971 C.ar    1  LIG1        0.0256
    101 H          18.9048   10.3731    1.7352 H       1  LIG1        0.0638
    102 H          18.4235   14.6201    1.4155 H       1  LIG1        0.0631
    103 O          21.4263   12.5525   -1.2906 O.3     1  LIG1       -0.5061
    104 H          21.5223   13.4485   -1.6340 H       1  LIG1        0.2922
    105 C          17.5289   12.4519    2.7097 C.1     1  LIG1       -0.0696
    106 C          16.6785   12.4269    3.5616 C.1     1  LIG1       -0.1139
    107 H          15.9268   12.3989    4.3160 H       1  LIG1        0.1232
@<TRIPOS>BOND
     1    17    16    1
     2    16    15    3
     3    15     7    1
     4     8     6    1
     5    41    39    1
     6    83    82    1
     7    40    39    1
     8    82    81    3
     9    39    31    1
    10     7     6   ar
    11     7     4   ar
    12     6     3   ar
    13   104   103    1
    14    92    90    1
    15    81    74    1
    16    35    32    1
    17    65    63    1
    18   103    94    1
    19    26    25    1
    20    77    73    1
    21    25    18    1
    22    31    32   ar
    23    31    33   ar
    24    74    73   ar
    25    74    75   ar
    26    89    85    1
    27    32    34   ar
    28    73    72   ar
    29    66    59    1
    30    66    67    1
    31    18    23   ar
    32    18    19   ar
    33    23    22   ar
    34    85    86   ar
    35    85    84   ar
    36    64    63    1
    37     9     3    1
    38    63    58    1
    39     3     1   ar
    40     4    19    1
    41     4     2   ar
    42    90    86    1
    43    90    93    1
    44    90    91    1
    45    59    58   ar
    46    59    60   ar
    47    19    20   ar
    48    52    51    1
    49    51    44    1
    50    51    53    1
    51    86    87   ar
    52    75    84    1
    53    75    76   ar
    54    84    88   ar
    55    58    57   ar
    56    98    95    1
    57    72    60    1
    58    72    71   ar
    59    94    95   ar
    60    94    96   ar
    61    22    33    1
    62    22    21   ar
    63    60    61   ar
    64    33    36   ar
    65    49    44   ar
    66    49    48   ar
    67    29    27    1
    68    44    45   ar
    69    57    61   ar
    70    57    48    1
    71    87    88   ar
    72    87    96    1
    73    61    62    1
    74    34    45    1
    75    34    37   ar
    76    68    67    1
    77    20    21   ar
    78    20    24    1
    79    48    47   ar
    80    45    46   ar
    81    21    27    1
    82    76    71   ar
    83    95    97   ar
    84    71    78    1
    85    96    99   ar
    86    67    70    1
    87    67    69    1
    88    46    47   ar
    89    46    50    1
    90    47    54    1
    91    36    37   ar
    92    36    38    1
    93    27    30    1
    94    27    28    1
    95     2     1   ar
    96     2     5    1
    97     1    10    1
    98    37    42    1
    99    78    79    3
   100    54    55    3
   101    97   102    1
   102    97   100   ar
   103    55    56    1
   104    79    80    1
   105    14    11    1
   106    99   100   ar
   107    99   101    1
   108    42    43    1
   109    13    11    1
   110   100   105    1
   111    10    11    1
   112    11    12    1
   113   105   106    3
   114   106   107    1
