@<TRIPOS>MOLECULE
mol_data/opt/cam/geoms/mol2/4lf.out
 17 17 0 0 0
SMALL
GASTEIGER

@<TRIPOS>ATOM
      1 C           0.0219    0.1436    0.0002 C.ar    1  LIG1        0.1203
      2 C           1.4181    0.0817   -0.0001 C.ar    1  LIG1       -0.0165
      3 C          -0.6052    1.3834    0.0001 C.ar    1  LIG1       -0.0165
      4 C           2.1739    1.2378   -0.0004 C.ar    1  LIG1       -0.0167
      5 H           1.8902   -0.8943    0.0000 H       1  LIG1        0.0655
      6 C           0.1612    2.5498   -0.0003 C.ar    1  LIG1       -0.0167
      7 C           1.5460    2.4843   -0.0005 C.ar    1  LIG1        0.1171
      8 H          -0.3379    3.5156   -0.0004 H       1  LIG1        0.0655
      9 H           3.2573    1.1981   -0.0006 H       1  LIG1        0.0655
     10 H          -1.6846    1.4653    0.0003 H       1  LIG1        0.0655
     11 O          -0.6263   -1.0575    0.0006 O.3     1  LIG1       -0.4951
     12 C          -2.0347   -1.0434    0.0008 C.3     1  LIG1        0.0788
     13 H          -2.3519   -2.0862    0.0010 H       1  LIG1        0.0660
     14 H          -2.4359   -0.5470    0.8931 H       1  LIG1        0.0660
     15 H          -2.4362   -0.5473   -0.8915 H       1  LIG1        0.0660
     16 O           2.3459    3.5916   -0.0009 O.3     1  LIG1       -0.5068
     17 H           1.7936    4.3816   -0.0009 H       1  LIG1        0.2921
@<TRIPOS>BOND
     1    15    12    1
     2    17    16    1
     3    16     7    1
     4     9     4    1
     5     7     4   ar
     6     7     6   ar
     7     4     2   ar
     8     8     6    1
     9     6     3   ar
    10     2     5    1
    11     2     1   ar
    12     3     1   ar
    13     3    10    1
    14     1    11    1
    15    11    12    1
    16    12    13    1
    17    12    14    1
