@<TRIPOS>MOLECULE
mol_data/opt/cam/geoms/mol2/4lf13lf-13eh-12aa-4eh-12ah-4ie-4hf-.out
 100 107 0 0 0
SMALL
GASTEIGER

@<TRIPOS>ATOM
      1 C           0.8802   -0.6564    2.5981 C.ar    1  LIG1        0.1209
      2 C           1.9556   -0.5144    1.7249 C.ar    1  LIG1       -0.0072
      3 C           0.6350    0.3141    3.5619 C.ar    1  LIG1       -0.0165
      4 C           2.8182    0.5809    1.7849 C.ar    1  LIG1        0.0469
      5 H           2.1208   -1.2790    0.9783 H       1  LIG1        0.0662
      6 C           1.4818    1.4175    3.6302 C.ar    1  LIG1       -0.0161
      7 C           2.5519    1.5585    2.7666 C.ar    1  LIG1        0.1263
      8 H           1.2981    2.1856    4.3778 H       1  LIG1        0.0655
      9 H          -0.1932    0.2355    4.2535 H       1  LIG1        0.0655
     10 O           0.1264   -1.7792    2.4234 O.3     1  LIG1       -0.4951
     11 C          -0.9833   -1.9645    3.2707 C.3     1  LIG1        0.0788
     12 H          -1.4471   -2.9029    2.9669 H       1  LIG1        0.0660
     13 H          -0.6835   -2.0381    4.3235 H       1  LIG1        0.0660
     14 H          -1.7145   -1.1535    3.1660 H       1  LIG1        0.0660
     15 O           3.3789    2.6591    2.8488 O.3     1  LIG1       -0.5061
     16 H           3.1060    3.2072    3.5927 H       1  LIG1        0.2922
     17 C           3.9434    0.6752    0.8549 C.ar    1  LIG1        0.0966
     18 C           4.4460   -0.2508   -0.0517 C.ar    1  LIG1        0.1875
     19 C           5.5732    0.3201   -0.6912 C.ar    1  LIG1        0.1865
     20 C           5.7493    1.5905   -0.1630 C.ar    1  LIG1        0.1104
     21 N           4.7337    1.7933    0.7471 N.ar    1  LIG1       -0.3470
     22 H           4.7173    2.5107    1.4561 H       1  LIG1        0.1662
     23 O           3.8993   -1.4684   -0.3299 O.3     1  LIG1       -0.4895
     24 C           4.7910   -2.5687   -0.1850 C.3     1  LIG1        0.0791
     25 H           4.2143   -3.4643   -0.4191 H       1  LIG1        0.0660
     26 H           5.6345   -2.4816   -0.8735 H       1  LIG1        0.0660
     27 H           5.1636   -2.6349    0.8437 H       1  LIG1        0.0660
     28 O           6.2458   -0.3032   -1.6892 O.3     1  LIG1       -0.5019
     29 H           7.1451    0.0553   -1.7596 H       1  LIG1        0.2924
     30 C           6.6633    2.6501   -0.5013 C.ar    1  LIG1        0.0845
     31 C           7.9633    2.6216   -1.0139 C.ar    1  LIG1        0.0728
     32 C           8.3935    3.9745   -1.1776 C.ar    1  LIG1        0.0695
     33 C           7.3630    4.7861   -0.7497 C.ar    1  LIG1        0.1047
     34 N           6.3265    3.9569   -0.3423 N.ar    1  LIG1       -0.3481
     35 H           5.4012    4.2891   -0.1244 H       1  LIG1        0.1661
     36 C           8.7426    1.4745   -1.2940 C.1     1  LIG1       -0.0656
     37 C           9.4143    0.5047   -1.5578 C.1     1  LIG1       -0.1138
     38 H          10.0252   -0.3485   -1.7445 H       1  LIG1        0.1232
     39 N           9.6409    4.3796   -1.6367 N.pl3   1  LIG1       -0.3553
     40 H          10.1464    3.6369   -2.1018 H       1  LIG1        0.1424
     41 H           9.6108    5.2143   -2.2085 H       1  LIG1        0.1424
     42 C           7.2672    6.2138   -0.6831 C.ar    1  LIG1        0.1536
     43 C           8.1779    7.2292   -0.7688 C.ar    1  LIG1       -0.0137
     44 C           7.4437    8.4388   -0.6270 C.ar    1  LIG1       -0.0152
     45 C           6.1319    8.1016   -0.4591 C.ar    1  LIG1        0.1370
     46 O           6.0225    6.7300   -0.4995 O.2     1  LIG1       -0.4533
     47 H           9.2470    7.1184   -0.8655 H       1  LIG1        0.0656
     48 H           7.8360    9.4411   -0.6425 H       1  LIG1        0.0656
     49 C           4.8339   10.2287   -0.0493 C.ar    1  LIG1        0.0361
     50 C           3.5855   10.8287    0.1017 C.ar    1  LIG1       -0.0332
     51 C           4.8860    8.8320   -0.2777 C.ar    1  LIG1        0.0344
     52 C           2.3832   10.1289    0.0561 C.ar    1  LIG1        0.0391
     53 H           3.5572   11.9020    0.2510 H       1  LIG1        0.0638
     54 C           3.6851    8.1303   -0.3374 C.ar    1  LIG1       -0.0285
     55 C           2.4345    8.7325   -0.1731 C.ar    1  LIG1        0.0361
     56 H           3.7184    7.0624   -0.5178 H       1  LIG1        0.0643
     57 C           5.9855   11.0714    0.0391 C.1     1  LIG1       -0.0689
     58 C           6.9101   11.8397    0.1279 C.1     1  LIG1       -0.1139
     59 H           7.7346   12.5095    0.2103 H       1  LIG1        0.1232
     60 N           1.3047    7.9486   -0.1886 N.pl3   1  LIG1       -0.3574
     61 H           0.4231    8.4051   -0.3581 H       1  LIG1        0.1423
     62 H           1.4018    7.0276   -0.5842 H       1  LIG1        0.1423
     63 C           1.1427   10.8674    0.2749 C.ar    1  LIG1        0.1393
     64 C           0.8841   12.0485    0.9043 C.ar    1  LIG1        0.0056
     65 C          -0.5178   12.2913    0.7762 C.ar    1  LIG1        0.0716
     66 C          -1.0443   11.2233    0.1040 C.ar    1  LIG1        0.1565
     67 O          -0.0161   10.3622   -0.2244 O.2     1  LIG1       -0.4529
     68 H           1.6004   12.6746    1.4152 H       1  LIG1        0.0674
     69 N          -1.1971   13.4088    1.2655 N.pl3   1  LIG1       -0.3550
     70 H          -0.5926   14.2076    1.3999 H       1  LIG1        0.1424
     71 H          -1.9954   13.6675    0.7002 H       1  LIG1        0.1424
     72 C          -3.5203   10.9168    0.4254 C.ar    1  LIG1       -0.0391
     73 C          -4.7508   10.6000   -0.1461 C.ar    1  LIG1       -0.0492
     74 C          -2.3764   10.8823   -0.3961 C.ar    1  LIG1        0.0232
     75 C          -4.9023   10.2138   -1.4783 C.ar    1  LIG1       -0.0004
     76 H          -5.6366   10.6240    0.4804 H       1  LIG1        0.0627
     77 C          -2.5106   10.4898   -1.7281 C.ar    1  LIG1       -0.0348
     78 C          -3.7460   10.1521   -2.2825 C.ar    1  LIG1        0.0331
     79 H          -1.6298   10.4590   -2.3596 H       1  LIG1        0.0637
     80 C          -3.4328   11.2003    1.9007 C.3     1  LIG1       -0.0390
     81 H          -4.4048   11.0595    2.3769 H       1  LIG1        0.0278
     82 H          -3.0828   12.2126    2.1193 H       1  LIG1        0.0278
     83 H          -2.7162   10.5239    2.3762 H       1  LIG1        0.0278
     84 C          -3.7925    9.7919   -3.6697 C.1     1  LIG1       -0.0690
     85 C          -3.7821    9.5027   -4.8384 C.1     1  LIG1       -0.1139
     86 H          -3.7891    9.2514   -5.8739 H       1  LIG1        0.1232
     87 C          -7.3363   10.7257   -1.8900 C.ar    1  LIG1        0.0326
     88 C          -8.5845   10.3050   -2.3597 C.ar    1  LIG1       -0.0370
     89 C          -6.2492    9.8412   -1.9887 C.ar    1  LIG1        0.0074
     90 C          -8.7679    9.0505   -2.9133 C.ar    1  LIG1       -0.0184
     91 H          -9.4293   10.9839   -2.2849 H       1  LIG1        0.0637
     92 C          -6.4464    8.5780   -2.5532 C.ar    1  LIG1       -0.0107
     93 C          -7.6903    8.1767   -3.0144 C.ar    1  LIG1        0.1176
     94 H          -5.5993    7.9021   -2.6280 H       1  LIG1        0.0661
     95 H          -9.7398    8.7343   -3.2749 H       1  LIG1        0.0655
     96 N          -7.2070   11.9925   -1.3018 N.pl3   1  LIG1       -0.3575
     97 H          -6.2757   12.3805   -1.3578 H       1  LIG1        0.1423
     98 H          -7.8979   12.6558   -1.6235 H       1  LIG1        0.1423
     99 O          -7.9157    6.9466   -3.5675 O.3     1  LIG1       -0.5067
    100 H          -7.0855    6.4576   -3.5937 H       1  LIG1        0.2921
@<TRIPOS>BOND
     1    86    85    1
     2    85    84    3
     3    84    78    1
     4   100    99    1
     5    99    93    1
     6    95    90    1
     7    93    90   ar
     8    93    92   ar
     9    90    88   ar
    10    94    92    1
    11    92    89   ar
    12    88    91    1
    13    88    87   ar
    14    79    77    1
    15    78    77   ar
    16    78    75   ar
    17    41    39    1
    18    40    39    1
    19    89    87   ar
    20    89    75    1
    21    87    96    1
    22    29    28    1
    23    38    37    1
    24    77    74   ar
    25    28    19    1
    26    39    32    1
    27    98    96    1
    28    37    36    3
    29    75    73   ar
    30    97    96    1
    31    36    31    1
    32    32    31   ar
    33    32    33   ar
    34    31    30   ar
    35    26    24    1
    36    47    43    1
    37    43    42   ar
    38    43    44   ar
    39    33    42    1
    40    33    34   ar
    41    19    20   ar
    42    19    18   ar
    43    42    46   ar
    44    48    44    1
    45    44    45   ar
    46    62    60    1
    47    56    54    1
    48    30    34   ar
    49    30    20    1
    50    46    45   ar
    51    45    51    1
    52    25    24    1
    53    74    66    1
    54    74    72   ar
    55    61    60    1
    56    34    35    1
    57    54    51   ar
    58    54    55   ar
    59    23    24    1
    60    23    18    1
    61    51    49   ar
    62    67    66   ar
    63    67    63   ar
    64    60    55    1
    65    24    27    1
    66    55    52   ar
    67    20    21   ar
    68    73    72   ar
    69    73    76    1
    70    18    17   ar
    71    49    57    1
    72    49    50   ar
    73    57    58    3
    74    52    50   ar
    75    52    63    1
    76    50    53    1
    77    66    65   ar
    78    58    59    1
    79    63    64   ar
    80    72    80    1
    81    71    69    1
    82    21    17   ar
    83    21    22    1
    84    65    64   ar
    85    65    69    1
    86    17     4    1
    87    64    68    1
    88     5     2    1
    89    69    70    1
    90     2     4   ar
    91     2     1   ar
    92     4     7   ar
    93    80    82    1
    94    80    83    1
    95    80    81    1
    96    10     1    1
    97    10    11    1
    98     1     3   ar
    99     7    15    1
   100     7     6   ar
   101    15    16    1
   102    12    11    1
   103    14    11    1
   104    11    13    1
   105     3     6   ar
   106     3     9    1
   107     6     8    1
