@<TRIPOS>MOLECULE
mol_data/opt/cam/geoms/mol2/4lf13ea13hf13hl-4fd13fl-13ld-4hd.out
 103 110 0 0 0
SMALL
GASTEIGER

@<TRIPOS>ATOM
      1 C          -0.8111    0.2277    0.0645 C.ar    1  LIG1        0.1209
      2 C           0.5577    0.2494    0.3057 C.ar    1  LIG1       -0.0073
      3 C          -1.4620    1.3934   -0.3178 C.ar    1  LIG1       -0.0165
      4 C           1.3174    1.4147    0.1877 C.ar    1  LIG1        0.0443
      5 H           1.0297   -0.6786    0.5961 H       1  LIG1        0.0662
      6 C          -0.7211    2.5631   -0.4540 C.ar    1  LIG1       -0.0161
      7 C           0.6437    2.5917   -0.2100 C.ar    1  LIG1        0.1262
      8 H          -1.2155    3.4794   -0.7557 H       1  LIG1        0.0655
      9 H          -2.5260    1.4131   -0.5156 H       1  LIG1        0.0655
     10 O          -1.4200   -0.9855    0.2244 O.3     1  LIG1       -0.4951
     11 C          -2.8044   -1.0579   -0.0134 C.3     1  LIG1        0.0788
     12 H          -3.0933   -2.0940    0.1655 H       1  LIG1        0.0660
     13 H          -3.3698   -0.4073    0.6658 H       1  LIG1        0.0660
     14 H          -3.0556   -0.7908   -1.0478 H       1  LIG1        0.0660
     15 O           1.3521    3.7563   -0.3560 O.3     1  LIG1       -0.5061
     16 H           0.7432    4.4917   -0.5554 H       1  LIG1        0.2922
     17 C           2.7564    1.3694    0.4659 C.ar    1  LIG1        0.0662
     18 C           3.5571    0.3666    1.0209 C.ar    1  LIG1        0.0506
     19 C           4.8938    0.8434    1.0279 C.ar    1  LIG1       -0.0189
     20 C           4.8971    2.1124    0.4880 C.ar    1  LIG1        0.0665
     21 N           3.5974    2.4089    0.1560 N.ar    1  LIG1       -0.3519
     22 H           3.2257    3.2700   -0.2194 H       1  LIG1        0.1660
     23 C           3.1821   -0.9054    1.5332 C.1     1  LIG1       -0.0675
     24 C           2.9257   -1.9940    1.9836 C.1     1  LIG1       -0.1138
     25 H           2.6843   -2.9505    2.3848 H       1  LIG1        0.1232
     26 H           5.7459    0.3287    1.4429 H       1  LIG1        0.0652
     27 C           6.0264    2.9861    0.2678 C.ar    1  LIG1        0.0880
     28 C           7.3634    2.6464    0.2584 C.ar    1  LIG1        0.0944
     29 C           8.1041    3.8314   -0.0029 C.ar    1  LIG1        0.1650
     30 C           7.2135    4.8731   -0.1449 C.ar    1  LIG1        0.1092
     31 N           5.9284    4.3635    0.0683 N.ar    1  LIG1       -0.3474
     32 H           5.1573    4.7396   -0.4656 H       1  LIG1        0.1662
     33 N           7.9518    1.4048    0.5082 N.pl3   1  LIG1       -0.3534
     34 H           7.4583    0.6382    0.0661 H       1  LIG1        0.1425
     35 H           8.9272    1.4095    0.2356 H       1  LIG1        0.1425
     36 O           9.4493    3.8415   -0.0543 O.3     1  LIG1       -0.5030
     37 H           9.7319    4.6911   -0.4798 H       1  LIG1        0.2923
     38 C           7.4523    6.2736   -0.3548 C.ar    1  LIG1        0.0916
     39 C           8.5766    6.9631   -0.7737 C.ar    1  LIG1        0.0947
     40 C           8.2488    8.3503   -0.7865 C.ar    1  LIG1        0.1666
     41 C           6.9385    8.4922   -0.3789 C.ar    1  LIG1        0.0946
     42 N           6.4653    7.2028   -0.1554 N.ar    1  LIG1       -0.3484
     43 H           5.6653    7.0090    0.4270 H       1  LIG1        0.1661
     44 N           9.7944    6.3395   -1.1912 N.pl3   1  LIG1       -0.3534
     45 H           9.8863    6.3489   -2.2042 H       1  LIG1        0.1425
     46 H          10.6044    6.8230   -0.8167 H       1  LIG1        0.1425
     47 O           9.0553    9.3415   -1.2638 O.3     1  LIG1       -0.4911
     48 C          10.1026    9.7284   -0.3881 C.3     1  LIG1        0.0790
     49 H          10.6196   10.5604   -0.8686 H       1  LIG1        0.0660
     50 H           9.7048   10.0509    0.5769 H       1  LIG1        0.0660
     51 H          10.8233    8.9167   -0.2270 H       1  LIG1        0.0660
     52 C           6.2751   10.9048    0.1043 C.ar    1  LIG1        0.1268
     53 C           5.2793   11.8709    0.2007 C.ar    1  LIG1       -0.0091
     54 C           5.9857    9.5950   -0.3339 C.ar    1  LIG1        0.0446
     55 C           3.9486   11.5972   -0.1183 C.ar    1  LIG1        0.0228
     56 H           5.5308   12.8624    0.5658 H       1  LIG1        0.0661
     57 C           4.6684    9.3413   -0.6969 C.ar    1  LIG1       -0.0310
     58 C           3.6599   10.2989   -0.6009 C.ar    1  LIG1        0.0618
     59 H           4.4168    8.3643   -1.0920 H       1  LIG1        0.0638
     60 O           7.5459   11.1781    0.4732 O.3     1  LIG1       -0.5061
     61 H           7.6099   12.1003    0.7504 H       1  LIG1        0.2922
     62 N           1.2865    9.6040   -1.3685 N.1     1  LIG1       -0.1908
     63 C           2.3552    9.9132   -1.0419 C.1     1  LIG1        0.0998
     64 C           2.9063   12.5957    0.0459 C.ar    1  LIG1        0.0941
     65 C           2.8863   13.9751   -0.0472 C.ar    1  LIG1        0.1851
     66 C           1.5367   14.4082    0.0127 C.ar    1  LIG1        0.1889
     67 C           0.7347   13.2884    0.1715 C.ar    1  LIG1        0.1130
     68 N           1.5896   12.2177    0.1888 N.ar    1  LIG1       -0.3470
     69 H           1.3019   11.3071    0.5028 H       1  LIG1        0.1662
     70 O           3.9512   14.7889   -0.2404 O.3     1  LIG1       -0.5019
     71 H           3.6012   15.6847   -0.3526 H       1  LIG1        0.2924
     72 O           1.2368   15.7345   -0.1021 O.3     1  LIG1       -0.4895
     73 C           0.1752   16.0619   -0.9987 C.3     1  LIG1        0.0791
     74 H           0.2029   17.1445   -1.1243 H       1  LIG1        0.0660
     75 H           0.3217   15.5734   -1.9671 H       1  LIG1        0.0660
     76 H          -0.7944   15.7727   -0.5843 H       1  LIG1        0.0660
     77 C          -0.6794   12.9596    0.1591 C.ar    1  LIG1        0.1106
     78 C          -1.8472   13.4938    0.6619 C.ar    1  LIG1        0.1647
     79 C          -2.9048   12.5737    0.3778 C.ar    1  LIG1        0.1192
     80 C          -2.3564   11.4816   -0.2954 C.ar    1  LIG1        0.0700
     81 N          -1.0299   11.7424   -0.4114 N.ar    1  LIG1       -0.3489
     82 H          -0.3981   11.1803   -0.9722 H       1  LIG1        0.1661
     83 O          -2.0732   14.6555    1.3129 O.3     1  LIG1       -0.4916
     84 C          -1.1169   15.0431    2.2981 C.3     1  LIG1        0.0789
     85 H          -1.5821   15.8494    2.8647 H       1  LIG1        0.0660
     86 H          -0.8935   14.2071    2.9679 H       1  LIG1        0.0660
     87 H          -0.1931   15.4070    1.8411 H       1  LIG1        0.0660
     88 N          -5.3623   12.8386    1.0968 N.1     1  LIG1       -0.1907
     89 C          -4.2469   12.7312    0.8004 C.1     1  LIG1        0.1050
     90 C          -4.0920    9.9888   -1.4473 C.ar    1  LIG1        0.0339
     91 C          -4.3915    8.7010   -1.9372 C.ar    1  LIG1       -0.0392
     92 C          -2.8572   10.1832   -0.7766 C.ar    1  LIG1        0.0215
     93 C          -3.5201    7.6449   -1.8022 C.ar    1  LIG1       -0.0426
     94 H          -5.3353    8.5533   -2.4524 H       1  LIG1        0.0636
     95 C          -1.9997    9.0934   -0.6309 C.ar    1  LIG1       -0.0334
     96 C          -2.2999    7.8340   -1.1412 C.ar    1  LIG1        0.0525
     97 H          -1.0565    9.2252   -0.1174 H       1  LIG1        0.0637
     98 H          -3.7781    6.6714   -2.2032 H       1  LIG1        0.0631
     99 N          -4.9662   11.0080   -1.6985 N.pl3   1  LIG1       -0.3575
    100 H          -4.9794   11.8187   -1.1002 H       1  LIG1        0.1423
    101 H          -5.8771   10.7452   -2.0405 H       1  LIG1        0.1423
    102 N          -0.5592    5.9407   -0.8706 N.1     1  LIG1       -0.1909
    103 C          -1.3491    6.7766   -0.9938 C.1     1  LIG1        0.0992
@<TRIPOS>BOND
     1    94    91    1
     2    45    44    1
     3    98    93    1
     4   101    99    1
     5    75    73    1
     6    91    93   ar
     7    91    90   ar
     8    93    96   ar
     9    99    90    1
    10    99   100    1
    11    90    92   ar
    12    62    63    3
    13    47    40    1
    14    47    48    1
    15    44    46    1
    16    44    39    1
    17    96   103    1
    18    96    95   ar
    19    74    73    1
    20    59    57    1
    21    14    11    1
    22    63    58    1
    23    73    76    1
    24    73    72    1
    25   103   102    3
    26    82    81    1
    27    49    48    1
    28    40    39   ar
    29    40    41   ar
    30    92    95   ar
    31    92    80    1
    32    39    38   ar
    33     8     6    1
    34    57    58   ar
    35    57    54   ar
    36    95    97    1
    37    58    55   ar
    38    16    15    1
    39     9     3    1
    40    37    36    1
    41    32    31    1
    42     6     3   ar
    43     6     7   ar
    44    81    80   ar
    45    81    77   ar
    46    48    51    1
    47    48    50    1
    48    41    54    1
    49    41    42   ar
    50    15     7    1
    51    38    42   ar
    52    38    30    1
    53    71    70    1
    54    54    52   ar
    55     3     1   ar
    56    80    79   ar
    57    70    65    1
    58    22    21    1
    59     7     4   ar
    60    42    43    1
    61    30    29   ar
    62    30    31   ar
    63    55    64    1
    64    55    53   ar
    65    72    66    1
    66    36    29    1
    67    65    66   ar
    68    65    64   ar
    69    11    12    1
    70    11    10    1
    71    11    13    1
    72    29    28   ar
    73    66    67   ar
    74    64    68   ar
    75     1    10    1
    76     1     2   ar
    77    34    33    1
    78    31    27   ar
    79    52    53   ar
    80    52    60    1
    81    21    17   ar
    82    21    20   ar
    83    77    67    1
    84    77    78   ar
    85    67    68   ar
    86     4     2   ar
    87     4    17    1
    88    68    69    1
    89    53    56    1
    90    35    33    1
    91    28    27   ar
    92    28    33    1
    93    27    20    1
    94     2     5    1
    95    79    78   ar
    96    79    89    1
    97    17    18   ar
    98    60    61    1
    99    20    19   ar
   100    78    83    1
   101    89    88    3
   102    18    19   ar
   103    18    23    1
   104    19    26    1
   105    83    84    1
   106    23    24    3
   107    87    84    1
   108    24    25    1
   109    84    85    1
   110    84    86    1
