@<TRIPOS>MOLECULE
mol_data/opt/cam/geoms/mol2/4lf4lf-.out
 32 33 0 0 0
SMALL
GASTEIGER

@<TRIPOS>ATOM
      1 C           0.0152    0.3311    0.3810 C.ar    1  LIG1        0.1209
      2 C           1.4111    0.3122    0.3714 C.ar    1  LIG1       -0.0086
      3 C          -0.6567    1.3436   -0.2891 C.ar    1  LIG1       -0.0165
      4 C           2.1494    1.2829   -0.2892 C.ar    1  LIG1        0.0306
      5 H           1.9186   -0.4804    0.9098 H       1  LIG1        0.0661
      6 C           0.0765    2.3184   -0.9659 C.ar    1  LIG1       -0.0161
      7 C           1.4615    2.2969   -0.9765 C.ar    1  LIG1        0.1249
      8 H          -0.4510    3.1036   -1.5022 H       1  LIG1        0.0655
      9 H          -1.7379    1.3921   -0.3021 H       1  LIG1        0.0655
     10 O          -0.5867   -0.6790    1.0752 O.3     1  LIG1       -0.4951
     11 C          -1.9938   -0.6976    1.1140 C.3     1  LIG1        0.0788
     12 H          -2.2734   -1.5676    1.7085 H       1  LIG1        0.0660
     13 H          -2.3995    0.2050    1.5878 H       1  LIG1        0.0660
     14 H          -2.4273   -0.7956    0.1108 H       1  LIG1        0.0660
     15 O           2.1996    3.2168   -1.6617 O.3     1  LIG1       -0.5062
     16 H           1.6025    3.8489   -2.0772 H       1  LIG1        0.2922
     17 C           4.4169    2.2424    0.2515 C.ar    1  LIG1        0.1281
     18 C           5.8015    2.1428    0.2298 C.ar    1  LIG1       -0.0159
     19 C           3.6341    1.2107   -0.2990 C.ar    1  LIG1        0.0308
     20 C           6.4209    1.0208   -0.3202 C.ar    1  LIG1       -0.0167
     21 H           6.4185    2.9282    0.6469 H       1  LIG1        0.0655
     22 C           4.2663    0.0960   -0.8305 C.ar    1  LIG1       -0.0089
     23 C           5.6563   -0.0072   -0.8456 C.ar    1  LIG1        0.1177
     24 H           3.6781   -0.7069   -1.2603 H       1  LIG1        0.0661
     25 H           7.5061    0.9577   -0.3302 H       1  LIG1        0.0655
     26 O           3.7351    3.2821    0.8074 O.3     1  LIG1       -0.4945
     27 C           4.4746    4.3813    1.2799 C.3     1  LIG1        0.0788
     28 H           3.7459    5.1095    1.6366 H       1  LIG1        0.0660
     29 H           5.1349    4.1031    2.1110 H       1  LIG1        0.0660
     30 H           5.0777    4.8359    0.4843 H       1  LIG1        0.0660
     31 O           6.1961   -1.1357   -1.3956 O.3     1  LIG1       -0.5067
     32 H           7.1572   -1.0785   -1.3515 H       1  LIG1        0.2921
@<TRIPOS>BOND
     1    16    15    1
     2    15     7    1
     3     8     6    1
     4    31    32    1
     5    31    23    1
     6    24    22    1
     7     7     6   ar
     8     7     4   ar
     9     6     3   ar
    10    23    22   ar
    11    23    20   ar
    12    22    19   ar
    13    25    20    1
    14    20    18   ar
    15     9     3    1
    16    19     4    1
    17    19    17   ar
    18     4     2   ar
    19     3     1   ar
    20    14    11    1
    21    18    17   ar
    22    18    21    1
    23    17    26    1
    24     2     1   ar
    25     2     5    1
    26     1    10    1
    27    30    27    1
    28    26    27    1
    29    10    11    1
    30    11    13    1
    31    11    12    1
    32    27    28    1
    33    27    29    1
