@<TRIPOS>MOLECULE
mol_data/opt/cam/geoms/mol2/4lf4lf-4lf-4lf-.out
 62 65 0 0 0
SMALL
GASTEIGER

@<TRIPOS>ATOM
      1 C          -0.1322    0.2072   -0.1893 C.ar    1  LIG1        0.1209
      2 C           1.2611    0.2363   -0.1069 C.ar    1  LIG1       -0.0086
      3 C          -0.8285    1.3925   -0.3773 C.ar    1  LIG1       -0.0165
      4 C           1.9743    1.4219   -0.2057 C.ar    1  LIG1        0.0306
      5 H           1.7870   -0.6983    0.0525 H       1  LIG1        0.0661
      6 C          -0.1202    2.5891   -0.4903 C.ar    1  LIG1       -0.0161
      7 C           1.2625    2.6160   -0.4120 C.ar    1  LIG1        0.1249
      8 H          -0.6652    3.5159   -0.6528 H       1  LIG1        0.0655
      9 H          -1.9088    1.4095   -0.4427 H       1  LIG1        0.0655
     10 O          -0.7077   -1.0258   -0.0686 O.3     1  LIG1       -0.4951
     11 C          -2.1110   -1.1017   -0.1433 C.3     1  LIG1        0.0788
     12 H          -2.3686   -2.1546   -0.0265 H       1  LIG1        0.0660
     13 H          -2.5931   -0.5247    0.6558 H       1  LIG1        0.0660
     14 H          -2.4871   -0.7468   -1.1112 H       1  LIG1        0.0660
     15 O           1.9772    3.7683   -0.5603 O.3     1  LIG1       -0.5062
     16 H           1.3636    4.5009   -0.6845 H       1  LIG1        0.2922
     17 C           4.1568    2.1045    0.8605 C.ar    1  LIG1        0.1287
     18 C           5.5408    2.0570    0.8976 C.ar    1  LIG1       -0.0080
     19 C           3.4585    1.4030   -0.1383 C.ar    1  LIG1        0.0309
     20 C           6.2720    1.3041   -0.0300 C.ar    1  LIG1        0.0306
     21 H           6.0901    2.6003    1.6538 H       1  LIG1        0.0661
     22 C           4.1839    0.6577   -1.0550 C.ar    1  LIG1       -0.0082
     23 C           5.5754    0.6002   -1.0140 C.ar    1  LIG1        0.1255
     24 H           3.6703    0.1174   -1.8421 H       1  LIG1        0.0661
     25 O           3.3941    2.7778    1.7686 O.3     1  LIG1       -0.4945
     26 C           4.0516    3.5862    2.7125 C.3     1  LIG1        0.0788
     27 H           3.2695    4.0741    3.2951 H       1  LIG1        0.0660
     28 H           4.6824    2.9957    3.3891 H       1  LIG1        0.0660
     29 H           4.6719    4.3508    2.2289 H       1  LIG1        0.0660
     30 O           6.1874   -0.1486   -1.9766 O.3     1  LIG1       -0.5061
     31 H           7.1442   -0.0413   -1.8923 H       1  LIG1        0.2922
     32 C           8.5585    2.3906    0.0522 C.ar    1  LIG1        0.1287
     33 C           9.9385    2.2766    0.1134 C.ar    1  LIG1       -0.0080
     34 C           7.7550    1.2325    0.0469 C.ar    1  LIG1        0.0309
     35 C          10.5721    1.0300    0.1750 C.ar    1  LIG1        0.0306
     36 H          10.5624    3.1594    0.1038 H       1  LIG1        0.0661
     37 C           8.3919   -0.0040    0.1014 C.ar    1  LIG1       -0.0082
     38 C           9.7797   -0.1188    0.1643 C.ar    1  LIG1        0.1255
     39 H           7.8054   -0.9165    0.1200 H       1  LIG1        0.0661
     40 O           7.9027    3.5859   -0.0085 O.3     1  LIG1       -0.4945
     41 C           8.6725    4.7624   -0.0872 C.3     1  LIG1        0.0788
     42 H           7.9619    5.5849   -0.1697 H       1  LIG1        0.0660
     43 H           9.2878    4.9085    0.8093 H       1  LIG1        0.0660
     44 H           9.3257    4.7608   -0.9682 H       1  LIG1        0.0660
     45 O          10.2880   -1.3817    0.2077 O.3     1  LIG1       -0.5061
     46 H          11.2530   -1.3324    0.1827 H       1  LIG1        0.2922
     47 C          12.8995    1.5364   -0.6766 C.ar    1  LIG1        0.1281
     48 C          14.2775    1.4092   -0.5549 C.ar    1  LIG1       -0.0159
     49 C          12.0528    0.9292    0.2736 C.ar    1  LIG1        0.0308
     50 C          14.8353    0.6841    0.4964 C.ar    1  LIG1       -0.0167
     51 H          14.9383    1.8681   -1.2787 H       1  LIG1        0.0655
     52 C          12.6310    0.2120    1.3187 C.ar    1  LIG1       -0.0089
     53 C          14.0144    0.0842    1.4373 C.ar    1  LIG1        0.1177
     54 H          12.0035   -0.2401    2.0796 H       1  LIG1        0.0661
     55 H          15.9156    0.5956    0.5734 H       1  LIG1        0.0655
     56 O          12.2877    2.2244   -1.6816 O.3     1  LIG1       -0.4945
     57 C          13.0945    2.7877   -2.6911 C.3     1  LIG1        0.0788
     58 H          12.4112    3.2537   -3.4007 H       1  LIG1        0.0660
     59 H          13.7727    3.5515   -2.2915 H       1  LIG1        0.0660
     60 H          13.6849    2.0234   -3.2103 H       1  LIG1        0.0660
     61 O          14.4862   -0.6340    2.4953 O.3     1  LIG1       -0.5067
     62 H          15.4500   -0.6403    2.4743 H       1  LIG1        0.2921
@<TRIPOS>BOND
     1    58    57    1
     2    60    57    1
     3    57    59    1
     4    57    56    1
     5    30    31    1
     6    30    23    1
     7    24    22    1
     8    56    47    1
     9    51    48    1
    10    14    11    1
    11    22    23   ar
    12    22    19   ar
    13    23    20   ar
    14    44    41    1
    15    16    15    1
    16    47    48   ar
    17    47    49   ar
    18     8     6    1
    19    15     7    1
    20    48    50   ar
    21     6     7   ar
    22     6     3   ar
    23     9     3    1
    24     7     4   ar
    25     3     1   ar
    26     4    19    1
    27     4     2   ar
    28     1     2   ar
    29     1    10    1
    30    42    41    1
    31    11    10    1
    32    11    12    1
    33    11    13    1
    34    19    17   ar
    35     2     5    1
    36    41    40    1
    37    41    43    1
    38    20    34    1
    39    20    18   ar
    40    40    32    1
    41    34    32   ar
    42    34    37   ar
    43    32    33   ar
    44    37    39    1
    45    37    38   ar
    46    36    33    1
    47    33    35   ar
    48    38    35   ar
    49    38    45    1
    50    35    49    1
    51    46    45    1
    52    49    52   ar
    53    50    55    1
    54    50    53   ar
    55    17    18   ar
    56    17    25    1
    57    18    21    1
    58    52    53   ar
    59    52    54    1
    60    53    61    1
    61    25    26    1
    62    29    26    1
    63    62    61    1
    64    26    27    1
    65    26    28    1
