@<TRIPOS>MOLECULE
mol_data/opt/cam/geoms/mol2/4lf6aa-12lh12af-6fd4ih12hl6ei.out
 100 107 0 0 0
SMALL
GASTEIGER

@<TRIPOS>ATOM
      1 C          -0.0398   -1.5683    0.4334 C.ar    1  LIG1        0.1209
      2 C           1.3178   -1.2829    0.2955 C.ar    1  LIG1       -0.0087
      3 C          -0.8492   -0.6959    1.1496 C.ar    1  LIG1       -0.0165
      4 C           1.8946   -0.1480    0.8554 C.ar    1  LIG1        0.0285
      5 H           1.9221   -1.9685   -0.2877 H       1  LIG1        0.0661
      6 C          -0.2858    0.4456    1.7156 C.ar    1  LIG1       -0.0161
      7 C           1.0640    0.7278    1.5784 C.ar    1  LIG1        0.1248
      8 H          -0.9177    1.1259    2.2809 H       1  LIG1        0.0655
      9 H          -1.9081   -0.8809    1.2753 H       1  LIG1        0.0655
     10 O          -0.4693   -2.7118   -0.1719 O.3     1  LIG1       -0.4951
     11 C          -1.8380   -3.0334   -0.0718 C.3     1  LIG1        0.0788
     12 H          -1.9736   -3.9670   -0.6175 H       1  LIG1        0.0660
     13 H          -2.1450   -3.1802    0.9709 H       1  LIG1        0.0660
     14 H          -2.4703   -2.2593   -0.5233 H       1  LIG1        0.0660
     15 O           1.6317    1.8343    2.1421 O.3     1  LIG1       -0.5062
     16 H           0.9608    2.3220    2.6334 H       1  LIG1        0.2922
     17 C           3.8728    1.3599    0.4121 C.ar    1  LIG1        0.0362
     18 C           3.3479    0.0926    0.6957 C.ar    1  LIG1        0.0039
     19 C           4.2650   -0.9549    0.7906 C.ar    1  LIG1       -0.0503
     20 C           5.6144   -0.7144    0.5999 C.ar    1  LIG1       -0.0320
     21 C           6.0229    0.5894    0.3073 C.ar    1  LIG1        0.1097
     22 N           5.1609    1.6091    0.2174 N.ar    1  LIG1       -0.2512
     23 H           3.9206   -1.9537    1.0387 H       1  LIG1        0.0625
     24 H           3.2067    2.2127    0.3374 H       1  LIG1        0.0836
     25 H           6.3487   -1.5049    0.6995 H       1  LIG1        0.0640
     26 C           7.4340    0.8939    0.0957 C.ar    1  LIG1        0.1972
     27 C           8.5351    0.1072   -0.1237 C.ar    1  LIG1        0.1887
     28 C           9.6662    0.9674   -0.2345 C.ar    1  LIG1        0.1171
     29 C           9.1692    2.2342   -0.0747 C.ar    1  LIG1        0.1950
     30 O           7.8177    2.1914    0.1120 O.2     1  LIG1       -0.4445
     31 O           8.6069   -1.2524   -0.2374 O.3     1  LIG1       -0.4896
     32 C           8.2431   -1.7416   -1.5277 C.3     1  LIG1        0.0791
     33 H           8.4035   -2.8201   -1.5086 H       1  LIG1        0.0660
     34 H           7.1912   -1.5324   -1.7458 H       1  LIG1        0.0660
     35 H           8.8659   -1.2922   -2.3087 H       1  LIG1        0.0660
     36 N          10.9785    0.5606   -0.4188 N.pl3   1  LIG1       -0.3521
     37 H          11.0549   -0.4274   -0.6186 H       1  LIG1        0.1425
     38 H          11.5125    1.1244   -1.0668 H       1  LIG1        0.1425
     39 C           9.8120    3.5121   -0.0604 C.ar    1  LIG1        0.1762
     40 C          11.1195    3.8907    0.0453 C.ar    1  LIG1        0.0296
     41 C          11.1198    5.3125    0.0012 C.ar    1  LIG1        0.1635
     42 C           9.8242    5.7278   -0.1436 C.ar    1  LIG1        0.1821
     43 O           9.0179    4.6091   -0.1771 O.2     1  LIG1       -0.4477
     44 H          11.9728    3.2493    0.1998 H       1  LIG1        0.0693
     45 O          12.2460    6.0578    0.1072 O.3     1  LIG1       -0.5032
     46 H          12.0196    6.9430    0.4193 H       1  LIG1        0.2923
     47 C           7.8405    7.2664    0.1390 C.ar    1  LIG1        0.2240
     48 C           9.1947    7.0307   -0.2317 C.ar    1  LIG1        0.0834
     49 C           9.9020    8.1359   -0.6802 C.ar    1  LIG1       -0.0263
     50 C           9.3215    9.4076   -0.6799 C.ar    1  LIG1        0.0786
     51 C           8.0045    9.5432   -0.2099 C.ar    1  LIG1        0.0924
     52 N           7.2992    8.4705    0.1534 N.ar    1  LIG1       -0.2111
     53 H          10.9056    8.0143   -1.0743 H       1  LIG1        0.0640
     54 O           7.0141    6.2834    0.5023 O.3     1  LIG1       -0.4919
     55 H           7.4304    5.4142    0.3836 H       1  LIG1        0.2938
     56 N          10.7017   11.3598   -1.6690 N.1     1  LIG1       -0.1908
     57 C          10.0650   10.5030   -1.2214 C.1     1  LIG1        0.1013
     58 C           7.7820   11.9687    0.5308 C.ar    1  LIG1       -0.0405
     59 C           7.0076   13.1226    0.4865 C.ar    1  LIG1       -0.0457
     60 C           7.2924   10.8476   -0.1582 C.ar    1  LIG1        0.0064
     61 C           5.7990   13.2229   -0.2098 C.ar    1  LIG1        0.0401
     62 H           7.3403   13.9857    1.0558 H       1  LIG1        0.0628
     63 C           6.0585   10.9076   -0.8004 C.ar    1  LIG1       -0.0309
     64 C           5.2914   12.0708   -0.8545 C.ar    1  LIG1        0.0360
     65 H           5.6847   10.0097   -1.2823 H       1  LIG1        0.0643
     66 C           9.0436   11.9649    1.3580 C.3     1  LIG1       -0.0391
     67 H           8.9438   12.6571    2.1975 H       1  LIG1        0.0278
     68 H           9.9154   12.2751    0.7750 H       1  LIG1        0.0278
     69 H           9.2590   10.9770    1.7712 H       1  LIG1        0.0278
     70 N           4.1097   12.0850   -1.5737 N.pl3   1  LIG1       -0.3574
     71 H           3.3985   12.7366   -1.2763 H       1  LIG1        0.1423
     72 H           3.7485   11.1754   -1.8160 H       1  LIG1        0.1423
     73 C           5.1320   14.5155   -0.2544 C.ar    1  LIG1        0.1617
     74 C           5.6116   15.7975   -0.2121 C.ar    1  LIG1        0.1140
     75 C           4.4688   16.6472   -0.2793 C.ar    1  LIG1        0.1871
     76 C           3.3565   15.8524   -0.3736 C.ar    1  LIG1        0.1816
     77 O           3.7645   14.5583   -0.3565 O.2     1  LIG1       -0.4490
     78 N           6.9210   16.2691   -0.1069 N.pl3   1  LIG1       -0.3522
     79 H           7.6084   15.6004   -0.4323 H       1  LIG1        0.1425
     80 H           7.0312   17.1510   -0.5942 H       1  LIG1        0.1425
     81 O           4.5293   18.0112   -0.2883 O.3     1  LIG1       -0.4896
     82 C           4.8042   18.5730    0.9965 C.3     1  LIG1        0.0791
     83 H           4.8900   19.6506    0.8531 H       1  LIG1        0.0660
     84 H           3.9887   18.3583    1.6947 H       1  LIG1        0.0660
     85 H           5.7405   18.1785    1.4030 H       1  LIG1        0.0660
     86 C           0.8996   15.2155   -0.3642 C.ar    1  LIG1        0.1239
     87 C           1.9414   16.1579   -0.5162 C.ar    1  LIG1        0.0550
     88 C           1.5681   17.4698   -0.8325 C.ar    1  LIG1       -0.0439
     89 C           0.2354   17.8169   -0.9836 C.ar    1  LIG1       -0.0316
     90 C          -0.7024   16.7964   -0.8208 C.ar    1  LIG1        0.0319
     91 N          -0.3897   15.5449   -0.5231 N.ar    1  LIG1       -0.2457
     92 H           2.3459   18.2136   -0.9654 H       1  LIG1        0.0629
     93 H          -1.7633   17.0083   -0.9414 H       1  LIG1        0.0832
     94 C           1.1188   13.8382   -0.0128 C.1     1  LIG1       -0.0491
     95 C           1.2336   12.6792    0.2911 C.1     1  LIG1       -0.1124
     96 H           1.3425   11.6603    0.5841 H       1  LIG1        0.1232
     97 C          -0.1851   19.2233   -1.3067 C.3     1  LIG1       -0.0383
     98 H          -1.2324   19.2617   -1.6142 H       1  LIG1        0.0278
     99 H           0.4209   19.6436   -2.1136 H       1  LIG1        0.0278
    100 H          -0.0707   19.8789   -0.4375 H       1  LIG1        0.0278
@<TRIPOS>BOND
     1    35    32    1
     2    99    97    1
     3    72    70    1
     4    34    32    1
     5    56    57    3
     6    98    97    1
     7    70    71    1
     8    70    64    1
     9    32    33    1
    10    32    31    1
    11    97    89    1
    12    97   100    1
    13    65    63    1
    14    57    50    1
    15    53    49    1
    16    38    36    1
    17    89    88   ar
    18    89    90   ar
    19    92    88    1
    20    93    90    1
    21    64    63   ar
    22    64    61   ar
    23    88    87   ar
    24    90    91   ar
    25    63    60   ar
    26    49    50   ar
    27    49    48   ar
    28    50    51   ar
    29    37    36    1
    30    12    11    1
    31    80    78    1
    32    14    11    1
    33    91    86   ar
    34    87    76    1
    35    87    86   ar
    36    79    78    1
    37    36    28    1
    38    76    77   ar
    39    76    75   ar
    40    86    94    1
    41    77    73   ar
    42    81    75    1
    43    81    82    1
    44     5     2    1
    45    75    74   ar
    46    73    74   ar
    47    73    61    1
    48    31    27    1
    49    28    27   ar
    50    28    29   ar
    51    48    42    1
    52    48    47   ar
    53    74    78    1
    54    51    60    1
    55    51    52   ar
    56    61    59   ar
    57    43    42   ar
    58    43    39   ar
    59    10    11    1
    60    10     1    1
    61    60    58   ar
    62    42    41   ar
    63    27    26   ar
    64    29    39    1
    65    29    30   ar
    66    11    13    1
    67    39    40   ar
    68    94    95    3
    69    41    40   ar
    70    41    45    1
    71    40    44    1
    72    26    30   ar
    73    26    21    1
    74    45    46    1
    75    47    52   ar
    76    47    54    1
    77    22    21   ar
    78    22    17   ar
    79    95    96    1
    80     2     1   ar
    81     2     4   ar
    82    21    20   ar
    83    24    17    1
    84    55    54    1
    85    17    18   ar
    86     1     3   ar
    87    59    58   ar
    88    59    62    1
    89    58    66    1
    90    20    25    1
    91    20    19   ar
    92    18    19   ar
    93    18     4    1
    94    68    66    1
    95    19    23    1
    96    83    82    1
    97     4     7   ar
    98    82    85    1
    99    82    84    1
   100     3     9    1
   101     3     6   ar
   102    66    69    1
   103    66    67    1
   104     7     6   ar
   105     7    15    1
   106     6     8    1
   107    15    16    1
