@<TRIPOS>MOLECULE
mol_data/opt/cam/geoms/mol2/4lg.out
 17 17 0 0 0
SMALL
GASTEIGER

@<TRIPOS>ATOM
      1 C           0.0061    0.1124    0.0002 C.ar    1  LIG1        0.1202
      2 C           1.4011    0.0470   -0.0000 C.ar    1  LIG1       -0.0189
      3 C          -0.6190    1.3550    0.0001 C.ar    1  LIG1       -0.0189
      4 C           2.1558    1.2044   -0.0004 C.ar    1  LIG1       -0.0451
      5 H           1.8728   -0.9291    0.0001 H       1  LIG1        0.0654
      6 C           0.1491    2.5177   -0.0003 C.ar    1  LIG1       -0.0451
      7 C           1.5361    2.4575   -0.0005 C.ar    1  LIG1        0.0050
      8 H          -0.3570    3.4779   -0.0004 H       1  LIG1        0.0630
      9 H           3.2390    1.1351   -0.0006 H       1  LIG1        0.0630
     10 H          -1.6982    1.4393    0.0003 H       1  LIG1        0.0654
     11 O          -0.6442   -1.0824    0.0006 O.3     1  LIG1       -0.4951
     12 C          -2.0546   -1.0685    0.0008 C.3     1  LIG1        0.0788
     13 H          -2.3699   -2.1117    0.0011 H       1  LIG1        0.0660
     14 H          -2.4541   -0.5726    0.8934 H       1  LIG1        0.0660
     15 H          -2.4545   -0.5729   -0.8918 H       1  LIG1        0.0660
     16 S           2.5760    3.9048   -0.0010 S.3     1  LIG1       -0.1426
     17 H           1.5884    4.8135   -0.0010 H       1  LIG1        0.1071
@<TRIPOS>BOND
     1    15    12    1
     2    16    17    1
     3    16     7    1
     4     9     4    1
     5     7     4   ar
     6     7     6   ar
     7     4     2   ar
     8     8     6    1
     9     6     3   ar
    10     2     5    1
    11     2     1   ar
    12     3     1   ar
    13     3    10    1
    14     1    11    1
    15    11    12    1
    16    12    13    1
    17    12    14    1
