@<TRIPOS>MOLECULE
mol_data/opt/cam/geoms/mol2/4lh12ee-6hd-13ai.out
 52 55 0 0 0
SMALL
GASTEIGER

@<TRIPOS>ATOM
      1 C          -0.1439    0.0260   -0.3528 C.ar    1  LIG1        0.1209
      2 C           1.2408    0.1125   -0.3734 C.ar    1  LIG1       -0.0075
      3 C          -0.8753    1.0592    0.2261 C.ar    1  LIG1       -0.0182
      4 C           1.9175    1.1999    0.1823 C.ar    1  LIG1        0.0426
      5 H           1.7974   -0.6927   -0.8361 H       1  LIG1        0.0662
      6 C          -0.2120    2.1487    0.7732 C.ar    1  LIG1       -0.0369
      7 C           1.1800    2.2540    0.7765 C.ar    1  LIG1        0.0356
      8 H          -0.7938    2.9453    1.2282 H       1  LIG1        0.0637
      9 H          -1.9573    1.0336    0.2561 H       1  LIG1        0.0655
     10 O          -0.6847   -1.0872   -0.9291 O.3     1  LIG1       -0.4951
     11 C          -2.0879   -1.2083   -0.9299 C.3     1  LIG1        0.0788
     12 H          -2.3135   -2.1524   -1.4257 H       1  LIG1        0.0660
     13 H          -2.4950   -1.2332    0.0885 H       1  LIG1        0.0660
     14 H          -2.5669   -0.3909   -1.4833 H       1  LIG1        0.0660
     15 N           1.7808    3.3293    1.4180 N.pl3   1  LIG1       -0.3574
     16 H           2.6997    3.6087    1.1164 H       1  LIG1        0.1423
     17 H           1.1683    4.1025    1.6236 H       1  LIG1        0.1423
     18 C           3.3759    1.1942    0.1398 C.ar    1  LIG1        0.1541
     19 C           4.3245    0.2077    0.1449 C.ar    1  LIG1        0.0864
     20 C           5.6103    0.8633    0.0468 C.ar    1  LIG1        0.0865
     21 C           5.3619    2.2109    0.0008 C.ar    1  LIG1        0.1555
     22 O           4.0100    2.4018    0.0488 O.2     1  LIG1       -0.4521
     23 C           4.1288   -1.1938    0.2449 C.1     1  LIG1       -0.0646
     24 C           3.9872   -2.3859    0.3272 C.1     1  LIG1       -0.1138
     25 H           3.8586   -3.4408    0.4066 H       1  LIG1        0.1232
     26 C           6.8612    0.1965    0.0043 C.1     1  LIG1       -0.0646
     27 C           7.9129   -0.3885   -0.0306 C.1     1  LIG1       -0.1138
     28 H           8.8436   -0.9073   -0.0652 H       1  LIG1        0.1232
     29 C           5.7352    4.6912   -0.4121 C.ar    1  LIG1        0.1277
     30 C           6.2076    3.3928   -0.0608 C.ar    1  LIG1        0.0593
     31 C           7.5616    3.2971    0.2266 C.ar    1  LIG1       -0.0282
     32 C           8.4027    4.4063    0.1706 C.ar    1  LIG1        0.0799
     33 C           7.8453    5.6520   -0.1837 C.ar    1  LIG1        0.1065
     34 N           6.5392    5.7506   -0.4636 N.ar    1  LIG1       -0.2290
     35 H           7.9807    2.3381    0.5034 H       1  LIG1        0.0639
     36 N           4.4245    4.9506   -0.6949 N.pl3   1  LIG1       -0.3426
     37 H           4.2575    5.8509   -1.1162 H       1  LIG1        0.1437
     38 H           3.8133    4.1912   -0.9437 H       1  LIG1        0.1437
     39 N          10.9007    4.0518    0.7358 N.1     1  LIG1       -0.1908
     40 C           9.7851    4.2277    0.4807 C.1     1  LIG1        0.1014
     41 C           8.5885    6.8946   -0.2794 C.ar    1  LIG1        0.0665
     42 C           9.9163    7.2529   -0.0993 C.ar    1  LIG1       -0.0320
     43 C          10.0281    8.6420   -0.3395 C.ar    1  LIG1       -0.0325
     44 C           8.7612    9.0894   -0.6594 C.ar    1  LIG1        0.0051
     45 N           7.9069    8.0362   -0.6211 N.ar    1  LIG1       -0.3592
     46 H           6.9157    8.0248   -0.8017 H       1  LIG1        0.1654
     47 H           8.4201   10.0836   -0.9087 H       1  LIG1        0.0809
     48 H          10.7228    6.5910    0.1748 H       1  LIG1        0.0642
     49 C          11.2732    9.4705   -0.2638 C.3     1  LIG1       -0.0383
     50 H          11.0630   10.5182   -0.4924 H       1  LIG1        0.0278
     51 H          12.0314    9.1228   -0.9720 H       1  LIG1        0.0278
     52 H          11.7209    9.4326    0.7339 H       1  LIG1        0.0278
@<TRIPOS>BOND
     1    14    11    1
     2    12    11    1
     3    37    36    1
     4    51    49    1
     5    38    36    1
     6    11    10    1
     7    11    13    1
     8    10     1    1
     9    47    44    1
    10     5     2    1
    11    46    45    1
    12    36    29    1
    13    44    45   ar
    14    44    43   ar
    15    45    41   ar
    16    50    49    1
    17    34    29   ar
    18    34    33   ar
    19    29    30   ar
    20     2     1   ar
    21     2     4   ar
    22     1     3   ar
    23    43    49    1
    24    43    42   ar
    25    41    33    1
    26    41    42   ar
    27    49    52    1
    28    33    32   ar
    29    42    48    1
    30    28    27    1
    31    30    21    1
    32    30    31   ar
    33    27    26    3
    34    21    20   ar
    35    21    22   ar
    36    26    20    1
    37    20    19   ar
    38    22    18   ar
    39    18    19   ar
    40    18     4    1
    41    19    23    1
    42    32    31   ar
    43    32    40    1
    44     4     7   ar
    45     3     9    1
    46     3     6   ar
    47    31    35    1
    48    23    24    3
    49    24    25    1
    50    40    39    3
    51     6     7   ar
    52     6     8    1
    53     7    15    1
    54    16    15    1
    55    15    17    1
