@<TRIPOS>MOLECULE
mol_data/opt/cam/geoms/mol2/4li.out
 19 19 0 0 0
SMALL
GASTEIGER

@<TRIPOS>ATOM
      1 C          -0.0076    0.1048   -0.0213 C.ar    1  LIG1        0.1201
      2 C           1.3871    0.0398   -0.0767 C.ar    1  LIG1       -0.0197
      3 C          -0.6323    1.3451    0.0435 C.ar    1  LIG1       -0.0197
      4 C           2.1360    1.2010   -0.0668 C.ar    1  LIG1       -0.0554
      5 H           1.8565   -0.9364   -0.1269 H       1  LIG1        0.0654
      6 C           0.1432    2.5045    0.0523 C.ar    1  LIG1       -0.0554
      7 C           1.5300    2.4613   -0.0020 C.ar    1  LIG1       -0.0502
      8 H          -0.3578    3.4672    0.1033 H       1  LIG1        0.0621
      9 H           3.2197    1.1319   -0.1104 H       1  LIG1        0.0621
     10 H          -1.7109    1.4274    0.0874 H       1  LIG1        0.0654
     11 O          -0.6576   -1.0920   -0.0362 O.3     1  LIG1       -0.4951
     12 C          -2.0663   -1.0794    0.0180 C.3     1  LIG1        0.0788
     13 H          -2.3823   -2.1223   -0.0044 H       1  LIG1        0.0660
     14 H          -2.4323   -0.6134    0.9407 H       1  LIG1        0.0660
     15 H          -2.5003   -0.5544   -0.8414 H       1  LIG1        0.0660
     16 C           2.3613    3.7174    0.0078 C.3     1  LIG1       -0.0397
     17 H           1.7325    4.6089    0.0628 H       1  LIG1        0.0278
     18 H           2.9744    3.7993   -0.8954 H       1  LIG1        0.0278
     19 H           3.0439    3.7397    0.8632 H       1  LIG1        0.0278
@<TRIPOS>BOND
     1    18    16    1
     2    15    12    1
     3     5     2    1
     4     9     4    1
     5     2     4   ar
     6     2     1   ar
     7     4     7   ar
     8    11     1    1
     9    11    12    1
    10     1     3   ar
    11    13    12    1
    12     7    16    1
    13     7     6   ar
    14    16    17    1
    15    16    19    1
    16    12    14    1
    17     3     6   ar
    18     3    10    1
    19     6     8    1
