@<TRIPOS>MOLECULE
mol_data/opt/cam/geoms/mol2/4li12ll12fl13ia.out
 57 60 0 0 0
SMALL
GASTEIGER

@<TRIPOS>ATOM
      1 C          -0.3519   -0.0597   -0.5847 C.ar    1  LIG1        0.1208
      2 C           1.0194    0.0136   -0.3620 C.ar    1  LIG1       -0.0089
      3 C          -1.1104    1.1046   -0.5929 C.ar    1  LIG1       -0.0197
      4 C           1.6538    1.2355   -0.1349 C.ar    1  LIG1        0.0274
      5 H           1.5912   -0.9053   -0.3644 H       1  LIG1        0.0661
      6 C          -0.4705    2.3197   -0.3669 C.ar    1  LIG1       -0.0547
      7 C           0.8945    2.4298   -0.1335 C.ar    1  LIG1       -0.0395
      8 H          -1.0686    3.2265   -0.3669 H       1  LIG1        0.0622
      9 H          -2.1786    1.0859   -0.7664 H       1  LIG1        0.0654
     10 O          -0.8499   -1.3112   -0.7893 O.3     1  LIG1       -0.4951
     11 C          -2.2319   -1.4386   -1.0330 C.3     1  LIG1        0.0788
     12 H          -2.4213   -2.5032   -1.1708 H       1  LIG1        0.0660
     13 H          -2.8288   -1.0752   -0.1876 H       1  LIG1        0.0660
     14 H          -2.5360   -0.9004   -1.9390 H       1  LIG1        0.0660
     15 C           1.4804    3.7964    0.1207 C.3     1  LIG1       -0.0390
     16 H           0.6784    4.5334    0.2062 H       1  LIG1        0.0278
     17 H           2.1492    4.1087   -0.6855 H       1  LIG1        0.0278
     18 H           2.0696    3.8243    1.0405 H       1  LIG1        0.0278
     19 C           3.0947    1.2025    0.1063 C.ar    1  LIG1        0.1814
     20 C           3.9529    0.2029    0.4811 C.ar    1  LIG1        0.2086
     21 C           5.2618    0.7735    0.5585 C.ar    1  LIG1        0.2118
     22 C           5.1306    2.0853    0.2064 C.ar    1  LIG1        0.2195
     23 O           3.8239    2.3468   -0.0697 O.2     1  LIG1       -0.4440
     24 O           3.6433   -1.1004    0.7208 O.3     1  LIG1       -0.4884
     25 C           3.8590   -1.5063    2.0719 C.3     1  LIG1        0.0791
     26 H           3.6321   -2.5718    2.1143 H       1  LIG1        0.0660
     27 H           4.8968   -1.3343    2.3700 H       1  LIG1        0.0660
     28 H           3.1905   -0.9631    2.7482 H       1  LIG1        0.0660
     29 O           6.3926    0.1468    0.9747 O.3     1  LIG1       -0.4883
     30 C           6.9256   -0.7742    0.0244 C.3     1  LIG1        0.0791
     31 H           7.7670   -1.2676    0.5121 H       1  LIG1        0.0660
     32 H           6.1763   -1.5202   -0.2593 H       1  LIG1        0.0660
     33 H           7.2811   -0.2412   -0.8618 H       1  LIG1        0.0660
     34 C           6.0733    3.1572    0.0641 C.ar    1  LIG1        0.2194
     35 C           7.4035    3.2047   -0.2274 C.ar    1  LIG1        0.2093
     36 C           7.7762    4.5795   -0.2420 C.ar    1  LIG1        0.2099
     37 C           6.6582    5.3074    0.0556 C.ar    1  LIG1        0.1973
     38 O           5.6178    4.4432    0.2348 O.2     1  LIG1       -0.4425
     39 O           8.2368    2.1787   -0.5050 O.3     1  LIG1       -0.5007
     40 H           9.1157    2.5646   -0.6319 H       1  LIG1        0.2924
     41 O           9.0533    4.9640   -0.5393 O.3     1  LIG1       -0.4884
     42 C           9.1743    5.7060   -1.7534 C.3     1  LIG1        0.0791
     43 H          10.2373    5.9077   -1.8883 H       1  LIG1        0.0660
     44 H           8.7968    5.1255   -2.6017 H       1  LIG1        0.0660
     45 H           8.6273    6.6505   -1.6910 H       1  LIG1        0.0660
     46 C           6.3355    6.7102    0.1767 C.ar    1  LIG1        0.0889
     47 C           7.0839    7.8269    0.5119 C.ar    1  LIG1       -0.0221
     48 C           6.1926    8.9338    0.4738 C.ar    1  LIG1       -0.0408
     49 C           4.9470    8.4676    0.1371 C.ar    1  LIG1        0.0025
     50 N           5.0399    7.1205   -0.0446 N.ar    1  LIG1       -0.3580
     51 H           4.2875    6.4897   -0.2682 H       1  LIG1        0.1654
     52 H           4.0083    8.9860    0.0154 H       1  LIG1        0.0807
     53 C           8.5279    7.8748    0.9089 C.3     1  LIG1       -0.0376
     54 H           8.6393    8.2886    1.9160 H       1  LIG1        0.0278
     55 H           9.1086    8.5150    0.2359 H       1  LIG1        0.0278
     56 H           8.9841    6.8842    0.9021 H       1  LIG1        0.0278
     57 H           6.4477    9.9620    0.6881 H       1  LIG1        0.0635
@<TRIPOS>BOND
     1    44    42    1
     2    14    11    1
     3    43    42    1
     4    42    45    1
     5    42    41    1
     6    12    11    1
     7    11    10    1
     8    11    13    1
     9    33    30    1
    10    10     1    1
    11     9     3    1
    12    17    15    1
    13    40    39    1
    14     3     1   ar
    15     3     6   ar
    16     1     2   ar
    17    41    36    1
    18    39    35    1
    19     6     8    1
    20     6     7   ar
    21     5     2    1
    22     2     4   ar
    23    51    50    1
    24    32    30    1
    25    36    35   ar
    26    36    37   ar
    27    35    34   ar
    28     4     7   ar
    29     4    19    1
    30     7    15    1
    31    23    19   ar
    32    23    22   ar
    33    50    49   ar
    34    50    46   ar
    35    52    49    1
    36    30    31    1
    37    30    29    1
    38    37    46    1
    39    37    38   ar
    40    34    22    1
    41    34    38   ar
    42    19    20   ar
    43    15    16    1
    44    15    18    1
    45    49    48   ar
    46    46    47   ar
    47    22    21   ar
    48    55    53    1
    49    48    47   ar
    50    48    57    1
    51    20    21   ar
    52    20    24    1
    53    47    53    1
    54    21    29    1
    55    24    25    1
    56    56    53    1
    57    53    54    1
    58    25    26    1
    59    25    27    1
    60    25    28    1
