@<TRIPOS>MOLECULE
mol_data/opt/cam/geoms/mol2/4li4li-4li-4li-.out
 70 73 0 0 0
SMALL
GASTEIGER

@<TRIPOS>ATOM
      1 C          -0.1482    0.2343    0.1229 C.ar    1  LIG1        0.1207
      2 C           1.2458    0.2648    0.0845 C.ar    1  LIG1       -0.0119
      3 C          -0.8575    1.4281    0.1242 C.ar    1  LIG1       -0.0197
      4 C           1.9407    1.4665    0.0410 C.ar    1  LIG1       -0.0080
      5 H           1.7808   -0.6783    0.0785 H       1  LIG1        0.0660
      6 C          -0.1535    2.6304    0.0923 C.ar    1  LIG1       -0.0548
      7 C           1.2333    2.6854    0.0512 C.ar    1  LIG1       -0.0424
      8 H          -0.7138    3.5610    0.1082 H       1  LIG1        0.0622
      9 H          -1.9396    1.4428    0.1559 H       1  LIG1        0.0654
     10 O          -0.7128   -1.0064    0.1579 O.3     1  LIG1       -0.4951
     11 C          -2.1187   -1.0873    0.1945 C.3     1  LIG1        0.0788
     12 H          -2.3642   -2.1492    0.2150 H       1  LIG1        0.0660
     13 H          -2.5302   -0.6071    1.0908 H       1  LIG1        0.0660
     14 H          -2.5751   -0.6309   -0.6923 H       1  LIG1        0.0660
     15 C           1.9422    4.0131    0.0388 C.3     1  LIG1       -0.0391
     16 H           1.2456    4.8270    0.2525 H       1  LIG1        0.0278
     17 H           2.4019    4.2009   -0.9350 H       1  LIG1        0.0278
     18 H           2.7422    4.0462    0.7839 H       1  LIG1        0.0278
     19 C           4.1965    1.8596   -1.0463 C.ar    1  LIG1        0.1284
     20 C           5.5812    1.7706   -1.0037 C.ar    1  LIG1       -0.0113
     21 C           3.4308    1.4168    0.0430 C.ar    1  LIG1        0.0244
     22 C           6.2398    1.2357    0.1070 C.ar    1  LIG1       -0.0080
     23 H           6.1806    2.1145   -1.8363 H       1  LIG1        0.0660
     24 C           4.1066    0.8891    1.1369 C.ar    1  LIG1       -0.0470
     25 C           5.4973    0.7871    1.2040 C.ar    1  LIG1       -0.0418
     26 H           3.5146    0.5534    1.9837 H       1  LIG1        0.0628
     27 O           3.5039    2.3512   -2.1139 O.3     1  LIG1       -0.4945
     28 C           4.2312    2.7590   -3.2507 C.3     1  LIG1        0.0788
     29 H           3.4923    3.0900   -3.9807 H       1  LIG1        0.0660
     30 H           4.9100    3.5895   -3.0233 H       1  LIG1        0.0660
     31 H           4.8120    1.9322   -3.6762 H       1  LIG1        0.0660
     32 C           6.1463    0.2251    2.4439 C.3     1  LIG1       -0.0391
     33 H           7.0328    0.7970    2.7277 H       1  LIG1        0.0278
     34 H           6.4688   -0.8120    2.3064 H       1  LIG1        0.0278
     35 H           5.4465    0.2404    3.2826 H       1  LIG1        0.0278
     36 C           8.5390    2.2786    0.0424 C.ar    1  LIG1        0.1284
     37 C           9.9216    2.1475    0.0032 C.ar    1  LIG1       -0.0113
     38 C           7.7270    1.1340    0.0748 C.ar    1  LIG1        0.0244
     39 C          10.5287    0.8898   -0.0125 C.ar    1  LIG1       -0.0080
     40 H          10.5575    3.0230   -0.0104 H       1  LIG1        0.0660
     41 C           8.3538   -0.1061    0.0666 C.ar    1  LIG1       -0.0470
     42 C           9.7396   -0.2644    0.0226 C.ar    1  LIG1       -0.0418
     43 H           7.7272   -0.9932    0.0902 H       1  LIG1        0.0628
     44 O           7.8938    3.4791    0.0565 O.3     1  LIG1       -0.4945
     45 C           8.6715    4.6541    0.0784 C.3     1  LIG1        0.0788
     46 H           7.9658    5.4843    0.1116 H       1  LIG1        0.0660
     47 H           9.3180    4.6958    0.9629 H       1  LIG1        0.0660
     48 H           9.2938    4.7479   -0.8199 H       1  LIG1        0.0660
     49 C          10.3386   -1.6483    0.0283 C.3     1  LIG1       -0.0391
     50 H          11.1798   -1.7184    0.7223 H       1  LIG1        0.0278
     51 H          10.7163   -1.9381   -0.9573 H       1  LIG1        0.0278
     52 H           9.5916   -2.3888    0.3232 H       1  LIG1        0.0278
     53 C          12.8249    1.2374    0.9769 C.ar    1  LIG1        0.1278
     54 C          14.2095    1.1668    0.8714 C.ar    1  LIG1       -0.0191
     55 C          12.0166    0.8146   -0.0940 C.ar    1  LIG1        0.0244
     56 C          14.7957    0.6809   -0.2951 C.ar    1  LIG1       -0.0553
     57 H          14.8434    1.4847    1.6893 H       1  LIG1        0.0654
     58 C          12.6375    0.3366   -1.2407 C.ar    1  LIG1       -0.0476
     59 C          14.0267    0.2592   -1.3705 C.ar    1  LIG1       -0.0496
     60 H          12.0082    0.0213   -2.0690 H       1  LIG1        0.0627
     61 H          15.8791    0.6343   -0.3588 H       1  LIG1        0.0621
     62 O          12.1691    1.6959    2.0789 O.3     1  LIG1       -0.4945
     63 C          12.9354    2.0994    3.1908 C.3     1  LIG1        0.0788
     64 H          12.2222    2.4106    3.9541 H       1  LIG1        0.0660
     65 H          13.5449    1.2766    3.5832 H       1  LIG1        0.0660
     66 H          13.5923    2.9433    2.9477 H       1  LIG1        0.0660
     67 C          14.6536   -0.2575   -2.6389 C.3     1  LIG1       -0.0397
     68 H          15.7422   -0.2934   -2.5562 H       1  LIG1        0.0278
     69 H          14.4070    0.3782   -3.4953 H       1  LIG1        0.0278
     70 H          14.3046   -1.2672   -2.8763 H       1  LIG1        0.0278
@<TRIPOS>BOND
     1    29    28    1
     2    31    28    1
     3    69    67    1
     4    28    30    1
     5    28    27    1
     6    70    67    1
     7    67    68    1
     8    67    59    1
     9    27    19    1
    10    60    58    1
    11    23    20    1
    12    59    58   ar
    13    59    56   ar
    14    58    55   ar
    15    19    20   ar
    16    19    21   ar
    17    20    22   ar
    18    51    49    1
    19    17    15    1
    20    48    45    1
    21    14    11    1
    22    61    56    1
    23    56    54   ar
    24    55    39    1
    25    55    53   ar
    26    39    37   ar
    27    39    42   ar
    28    40    37    1
    29    37    36   ar
    30    42    49    1
    31    42    41   ar
    32    49    52    1
    33    49    50    1
    34    15     7    1
    35    15    16    1
    36    15    18    1
    37     4    21    1
    38     4     7   ar
    39     4     2   ar
    40    36    44    1
    41    36    38   ar
    42    21    24   ar
    43     7     6   ar
    44    44    45    1
    45    41    38   ar
    46    41    43    1
    47    38    22    1
    48    45    46    1
    49    45    47    1
    50     5     2    1
    51     2     1   ar
    52     6     8    1
    53     6     3   ar
    54    22    25   ar
    55     1     3   ar
    56     1    10    1
    57     3     9    1
    58    10    11    1
    59    11    12    1
    60    11    13    1
    61    54    53   ar
    62    54    57    1
    63    53    62    1
    64    24    25   ar
    65    24    26    1
    66    25    32    1
    67    62    63    1
    68    34    32    1
    69    32    33    1
    70    32    35    1
    71    66    63    1
    72    63    65    1
    73    63    64    1
