@<TRIPOS>MOLECULE
mol_data/opt/cam/geoms/mol2/4li4li-.out
 36 37 0 0 0
SMALL
GASTEIGER

@<TRIPOS>ATOM
      1 C          -0.0037    0.3759   -0.5192 C.ar    1  LIG1        0.1207
      2 C           1.3908    0.3888   -0.5569 C.ar    1  LIG1       -0.0119
      3 C          -0.6744    1.3211    0.2460 C.ar    1  LIG1       -0.0197
      4 C           2.1226    1.3334    0.1505 C.ar    1  LIG1       -0.0080
      5 H           1.8953   -0.3541   -1.1647 H       1  LIG1        0.0660
      6 C           0.0671    2.2585    0.9623 C.ar    1  LIG1       -0.0548
      7 C           1.4548    2.2929    0.9373 C.ar    1  LIG1       -0.0424
      8 H          -0.4637    2.9862    1.5698 H       1  LIG1        0.0622
      9 H          -1.7555    1.3394    0.3012 H       1  LIG1        0.0654
     10 O          -0.6070   -0.5958   -1.2603 O.3     1  LIG1       -0.4951
     11 C          -2.0151   -0.6450   -1.2587 C.3     1  LIG1        0.0788
     12 H          -2.2933   -1.4768   -1.9061 H       1  LIG1        0.0660
     13 H          -2.4142   -0.8246   -0.2530 H       1  LIG1        0.0660
     14 H          -2.4540    0.2792   -1.6539 H       1  LIG1        0.0660
     15 C           2.2060    3.3176    1.7444 C.3     1  LIG1       -0.0391
     16 H           1.5366    3.8341    2.4361 H       1  LIG1        0.0278
     17 H           2.6688    4.0641    1.0935 H       1  LIG1        0.0278
     18 H           3.0080    2.8577    2.3288 H       1  LIG1        0.0278
     19 C           4.3829    2.2687   -0.5091 C.ar    1  LIG1        0.1278
     20 C           5.7662    2.1471   -0.5644 C.ar    1  LIG1       -0.0191
     21 C           3.6112    1.2581    0.0921 C.ar    1  LIG1        0.0244
     22 C           6.3894    1.0216   -0.0296 C.ar    1  LIG1       -0.0553
     23 H           6.3709    2.9166   -1.0270 H       1  LIG1        0.0654
     24 C           4.2678    0.1464    0.6055 C.ar    1  LIG1       -0.0476
     25 C           5.6573    0.0027    0.5621 C.ar    1  LIG1       -0.0496
     26 H           3.6651   -0.6340    1.0623 H       1  LIG1        0.0627
     27 H           7.4717    0.9450   -0.0828 H       1  LIG1        0.0621
     28 O           3.6937    3.3258   -1.0241 O.3     1  LIG1       -0.4945
     29 C           4.4183    4.3319   -1.6953 C.3     1  LIG1        0.0788
     30 H           3.6809    5.0530   -2.0478 H       1  LIG1        0.0660
     31 H           5.1252    4.8387   -1.0274 H       1  LIG1        0.0660
     32 H           4.9667    3.9286   -2.5546 H       1  LIG1        0.0660
     33 C           6.3230   -1.2158    1.1459 C.3     1  LIG1       -0.0397
     34 H           7.4001   -1.2040    0.9641 H       1  LIG1        0.0278
     35 H           5.9219   -2.1372    0.7127 H       1  LIG1        0.0278
     36 H           6.1701   -1.2758    2.2283 H       1  LIG1        0.0278
@<TRIPOS>BOND
     1    32    29    1
     2    30    29    1
     3    12    11    1
     4    29    31    1
     5    29    28    1
     6    14    11    1
     7    10    11    1
     8    10     1    1
     9    11    13    1
    10     5     2    1
    11    23    20    1
    12    28    19    1
    13    20    19   ar
    14    20    22   ar
    15     2     1   ar
    16     2     4   ar
    17     1     3   ar
    18    19    21   ar
    19    27    22    1
    20    22    25   ar
    21    21     4    1
    22    21    24   ar
    23     4     7   ar
    24     3     9    1
    25     3     6   ar
    26    25    24   ar
    27    25    33    1
    28    24    26    1
    29    35    33    1
    30     7     6   ar
    31     7    15    1
    32     6     8    1
    33    34    33    1
    34    17    15    1
    35    33    36    1
    36    15    18    1
    37    15    16    1
