@<TRIPOS>MOLECULE
mol_data/opt/cam/geoms/mol2/4li4dd-13hi-12ed-.out
 54 57 0 0 0
SMALL
GASTEIGER

@<TRIPOS>ATOM
      1 C          -0.1292    0.1906   -0.6994 C.ar    1  LIG1        0.1207
      2 C           1.2611    0.2428   -0.6053 C.ar    1  LIG1       -0.0120
      3 C          -0.8887    1.2013   -0.1211 C.ar    1  LIG1       -0.0197
      4 C           1.8948    1.2893    0.0520 C.ar    1  LIG1       -0.0103
      5 H           1.8345   -0.5544   -1.0650 H       1  LIG1        0.0660
      6 C          -0.2436    2.2401    0.5437 C.ar    1  LIG1       -0.0548
      7 C           1.1399    2.3178    0.6483 C.ar    1  LIG1       -0.0425
      8 H          -0.8472    3.0159    1.0055 H       1  LIG1        0.0622
      9 H          -1.9699    1.1905   -0.1715 H       1  LIG1        0.0654
     10 O          -0.6352   -0.8742   -1.3725 O.3     1  LIG1       -0.4951
     11 C          -2.0384   -0.9902   -1.4718 C.3     1  LIG1        0.0788
     12 H          -2.2289   -1.9076   -2.0280 H       1  LIG1        0.0660
     13 H          -2.5075   -1.0646   -0.4839 H       1  LIG1        0.0660
     14 H          -2.4765   -0.1438   -2.0139 H       1  LIG1        0.0660
     15 C           1.7797    3.4558    1.4029 C.3     1  LIG1       -0.0391
     16 H           1.0307    3.9918    1.9891 H       1  LIG1        0.0278
     17 H           2.2523    4.1846    0.7366 H       1  LIG1        0.0278
     18 H           2.5526    3.1031    2.0910 H       1  LIG1        0.0278
     19 C           4.1211    0.3048    0.7711 C.ar    1  LIG1        0.0602
     20 C           5.5129    0.3106    0.7794 C.ar    1  LIG1       -0.0333
     21 C           3.3830    1.2965    0.1000 C.ar    1  LIG1        0.0011
     22 C           6.2562    1.2928    0.1110 C.ar    1  LIG1        0.0187
     23 H           6.0343   -0.4464    1.3518 H       1  LIG1        0.0637
     24 C           4.1117    2.2873   -0.5422 C.ar    1  LIG1       -0.0347
     25 C           5.5084    2.2968   -0.5478 C.ar    1  LIG1        0.0616
     26 H           3.5850    3.0698   -1.0763 H       1  LIG1        0.0637
     27 N           2.9587   -1.5942    2.1028 N.1     1  LIG1       -0.1908
     28 C           3.4541   -0.7391    1.5026 C.1     1  LIG1        0.0998
     29 N           6.6609    4.2486   -1.8033 N.1     1  LIG1       -0.1908
     30 C           6.1458    3.3686   -1.2545 C.1     1  LIG1        0.0998
     31 C           7.7093    1.2311    0.1458 C.ar    1  LIG1        0.0695
     32 C           8.5434    0.1392    0.3918 C.ar    1  LIG1        0.0539
     33 C           9.8857    0.5894    0.3924 C.ar    1  LIG1       -0.0009
     34 C           9.8406    1.9478    0.1147 C.ar    1  LIG1        0.0885
     35 N           8.5372    2.3209   -0.0263 N.ar    1  LIG1       -0.3500
     36 H           8.2455    3.2522   -0.2786 H       1  LIG1        0.1661
     37 N           8.1565   -1.1803    0.6509 N.pl3   1  LIG1       -0.3561
     38 H           7.3934   -1.5047    0.0701 H       1  LIG1        0.1424
     39 H           8.9313   -1.8268    0.5827 H       1  LIG1        0.1424
     40 C          11.0747   -0.2605    0.7085 C.3     1  LIG1       -0.0358
     41 H          11.9354    0.3472    0.9872 H       1  LIG1        0.0279
     42 H          11.3844   -0.8776   -0.1419 H       1  LIG1        0.0279
     43 H          10.8580   -0.9281    1.5487 H       1  LIG1        0.0279
     44 C          10.8807    2.9399   -0.0204 C.ar    1  LIG1        0.1678
     45 C          12.1725    2.9375   -0.4798 C.ar    1  LIG1        0.0892
     46 C          12.6309    4.3041   -0.3553 C.ar    1  LIG1        0.1054
     47 C          11.5881    5.0177    0.1386 C.ar    1  LIG1        0.1112
     48 O          10.5315    4.2099    0.3469 O.2     1  LIG1       -0.4589
     49 H          11.4631    6.0608    0.3802 H       1  LIG1        0.1043
     50 C          12.9133    1.8707   -1.0476 C.1     1  LIG1       -0.0645
     51 C          13.5685    0.9953   -1.5498 C.1     1  LIG1       -0.1138
     52 H          14.1520    0.2260   -2.0015 H       1  LIG1        0.1232
     53 N          14.9578    5.2213   -0.9802 N.1     1  LIG1       -0.1907
     54 C          13.9140    4.8093   -0.7013 C.1     1  LIG1        0.1036
@<TRIPOS>BOND
     1    12    11    1
     2    14    11    1
     3    52    51    1
     4    29    30    3
     5    51    50    3
     6    11    10    1
     7    11    13    1
     8    10     1    1
     9    30    25    1
    10    26    24    1
    11     5     2    1
    12    50    45    1
    13    53    54    3
    14    54    46    1
    15     1     2   ar
    16     1     3   ar
    17     2     4   ar
    18    25    24   ar
    19    25    22   ar
    20    24    21   ar
    21    45    46   ar
    22    45    44   ar
    23    46    47   ar
    24    36    35    1
    25     9     3    1
    26    42    40    1
    27     3     6   ar
    28    35    34   ar
    29    35    31   ar
    30    44    34    1
    31    44    48   ar
    32     4    21    1
    33     4     7   ar
    34    38    37    1
    35    21    19   ar
    36    22    31    1
    37    22    20   ar
    38    34    33   ar
    39    47    48   ar
    40    47    49    1
    41    31    32   ar
    42    32    33   ar
    43    32    37    1
    44    33    40    1
    45     6     7   ar
    46     6     8    1
    47    39    37    1
    48     7    15    1
    49    40    41    1
    50    40    43    1
    51    17    15    1
    52    19    20   ar
    53    19    28    1
    54    20    23    1
    55    15    16    1
    56    15    18    1
    57    28    27    3
