@<TRIPOS>MOLECULE
mol_data/opt/cam/geoms/mol2/4li6dd-4hi-6le-.out
 60 63 0 0 0
SMALL
GASTEIGER

@<TRIPOS>ATOM
      1 C          -0.1685    0.2365   -0.6384 C.ar    1  LIG1        0.1207
      2 C           1.2232    0.3131   -0.6183 C.ar    1  LIG1       -0.0119
      3 C          -0.9089    1.1419    0.1142 C.ar    1  LIG1       -0.0197
      4 C           1.8753    1.2851    0.1314 C.ar    1  LIG1       -0.0088
      5 H           1.7842   -0.3975   -1.2153 H       1  LIG1        0.0660
      6 C          -0.2440    2.0999    0.8727 C.ar    1  LIG1       -0.0548
      7 C           1.1420    2.2033    0.9059 C.ar    1  LIG1       -0.0424
      8 H          -0.8325    2.7919    1.4676 H       1  LIG1        0.0622
      9 H          -1.9908    1.1101    0.1258 H       1  LIG1        0.0654
     10 O          -0.6954   -0.7470   -1.4121 O.3     1  LIG1       -0.4951
     11 C          -2.1017   -0.8567   -1.4787 C.3     1  LIG1        0.0788
     12 H          -2.3099   -1.6890   -2.1503 H       1  LIG1        0.0660
     13 H          -2.5368   -1.0707   -0.4956 H       1  LIG1        0.0660
     14 H          -2.5582    0.0544   -1.8823 H       1  LIG1        0.0660
     15 C           1.8012    3.2565    1.7588 C.3     1  LIG1       -0.0391
     16 H           1.1111    3.6116    2.5268 H       1  LIG1        0.0278
     17 H           2.1044    4.1235    1.1645 H       1  LIG1        0.0278
     18 H           2.6922    2.8749    2.2641 H       1  LIG1        0.0278
     19 C           4.1324    2.3044   -0.4652 C.ar    1  LIG1        0.1485
     20 C           3.3639    1.2848    0.1111 C.ar    1  LIG1        0.0196
     21 C           4.0826    0.2272    0.6595 C.ar    1  LIG1       -0.0318
     22 C           5.4741    0.2217    0.6197 C.ar    1  LIG1        0.0784
     23 C           6.1509    1.2919   -0.0053 C.ar    1  LIG1        0.0916
     24 N           5.4655    2.3092   -0.5237 N.ar    1  LIG1       -0.2344
     25 H           3.5542   -0.5872    1.1424 H       1  LIG1        0.0638
     26 N           2.9781    4.3581   -1.5693 N.1     1  LIG1       -0.1893
     27 C           3.4897    3.4444   -1.0807 C.1     1  LIG1        0.1197
     28 N           6.6773   -1.7011    1.8692 N.1     1  LIG1       -0.1908
     29 C           6.1737   -0.8400    1.2852 C.1     1  LIG1        0.1013
     30 C           8.4063    0.3722   -0.6743 C.ar    1  LIG1        0.0345
     31 C           9.7957    0.5104   -0.6420 C.ar    1  LIG1       -0.0323
     32 C           7.6308    1.3725   -0.0704 C.ar    1  LIG1        0.0226
     33 C          10.4157    1.6121   -0.0638 C.ar    1  LIG1       -0.0081
     34 H          10.4100   -0.2563   -1.1055 H       1  LIG1        0.0642
     35 C           8.2624    2.4901    0.4755 C.ar    1  LIG1       -0.0473
     36 C           9.6416    2.6386    0.5054 C.ar    1  LIG1       -0.0418
     37 H           7.6381    3.2631    0.9126 H       1  LIG1        0.0627
     38 N           7.8213   -0.7398   -1.2731 N.pl3   1  LIG1       -0.3574
     39 H           6.9480   -0.5738   -1.7512 H       1  LIG1        0.1423
     40 H           8.4512   -1.3033   -1.8243 H       1  LIG1        0.1423
     41 C          10.2630    3.8495    1.1477 C.3     1  LIG1       -0.0391
     42 H           9.5169    4.4163    1.7082 H       1  LIG1        0.0278
     43 H          10.6995    4.5117    0.3954 H       1  LIG1        0.0278
     44 H          11.0630    3.5710    1.8398 H       1  LIG1        0.0278
     45 C          12.6591    2.5997   -0.7545 C.ar    1  LIG1        0.2224
     46 C          11.9036    1.6422   -0.0418 C.ar    1  LIG1        0.0451
     47 C          12.6235    0.6886    0.6519 C.ar    1  LIG1       -0.0320
     48 C          14.0281    0.7059    0.6508 C.ar    1  LIG1        0.0436
     49 C          14.6487    1.7134   -0.0792 C.ar    1  LIG1        0.0468
     50 N          13.9794    2.6365   -0.7695 N.ar    1  LIG1       -0.2196
     51 H          12.0957   -0.0768    1.2107 H       1  LIG1        0.0638
     52 H          15.7329    1.7750   -0.1099 H       1  LIG1        0.0843
     53 O          11.9755    3.5111   -1.4669 O.3     1  LIG1       -0.4792
     54 C          12.7344    4.4581   -2.2123 C.3     1  LIG1        0.0804
     55 H          11.9996    5.0844   -2.7165 H       1  LIG1        0.0660
     56 H          13.3646    5.0614   -1.5553 H       1  LIG1        0.0660
     57 H          13.3747    3.9579   -2.9421 H       1  LIG1        0.0660
     58 C          14.7917   -0.2655    1.3686 C.1     1  LIG1       -0.0681
     59 C          15.4347   -1.0842    1.9731 C.1     1  LIG1       -0.1139
     60 H          16.0037   -1.8084    2.5091 H       1  LIG1        0.1232
@<TRIPOS>BOND
     1    57    54    1
     2    55    54    1
     3    54    56    1
     4    54    53    1
     5    12    11    1
     6    14    11    1
     7    40    38    1
     8    39    38    1
     9    26    27    3
    10    11    10    1
    11    11    13    1
    12    53    45    1
    13    10     1    1
    14    38    30    1
    15     5     2    1
    16    34    31    1
    17    27    19    1
    18    50    45   ar
    19    50    49   ar
    20    45    46   ar
    21    30    31   ar
    22    30    32   ar
    23    31    33   ar
    24     1     2   ar
    25     1     3   ar
    26     2     4   ar
    27    24    19   ar
    28    24    23   ar
    29    19    20   ar
    30    52    49    1
    31    49    48   ar
    32    32    23    1
    33    32    35   ar
    34    33    46    1
    35    33    36   ar
    36    46    47   ar
    37    23    22   ar
    38    20     4    1
    39    20    21   ar
    40     3     9    1
    41     3     6   ar
    42     4     7   ar
    43    43    41    1
    44    35    36   ar
    45    35    37    1
    46    36    41    1
    47    22    21   ar
    48    22    29    1
    49    48    47   ar
    50    48    58    1
    51    47    51    1
    52    21    25    1
    53     6     7   ar
    54     6     8    1
    55     7    15    1
    56    41    42    1
    57    41    44    1
    58    17    15    1
    59    29    28    3
    60    58    59    3
    61    15    18    1
    62    15    16    1
    63    59    60    1
