@<TRIPOS>MOLECULE
mol_data/opt/cam/geoms/mol2/4ll.out
 20 20 0 0 0
SMALL
GASTEIGER

@<TRIPOS>ATOM
      1 C          -0.0108    0.0792    0.0002 C.ar    1  LIG1        0.1203
      2 C           1.3759   -0.0343   -0.0000 C.ar    1  LIG1       -0.0165
      3 C          -0.5908    1.3475    0.0001 C.ar    1  LIG1       -0.0165
      4 C           2.1833    1.0951   -0.0005 C.ar    1  LIG1       -0.0165
      5 H           1.8122   -1.0269    0.0001 H       1  LIG1        0.0655
      6 C           0.2166    2.4769   -0.0003 C.ar    1  LIG1       -0.0165
      7 C           1.6033    2.3635   -0.0006 C.ar    1  LIG1        0.1203
      8 H          -0.2197    3.4695   -0.0004 H       1  LIG1        0.0655
      9 H           3.2590    0.9724   -0.0007 H       1  LIG1        0.0655
     10 H          -1.6665    1.4702    0.0003 H       1  LIG1        0.0655
     11 O          -0.7091   -1.0938    0.0006 O.3     1  LIG1       -0.4951
     12 C          -2.1161   -1.0222    0.0009 C.3     1  LIG1        0.0788
     13 H          -2.4749   -2.0515    0.0012 H       1  LIG1        0.0660
     14 H          -2.4974   -0.5105    0.8931 H       1  LIG1        0.0660
     15 H          -2.4977   -0.5109   -0.8914 H       1  LIG1        0.0660
     16 O           2.3016    3.5364   -0.0010 O.3     1  LIG1       -0.4951
     17 C           3.7085    3.4649   -0.0013 C.3     1  LIG1        0.0788
     18 H           4.0674    4.4942   -0.0016 H       1  LIG1        0.0660
     19 H           4.0903    2.9536    0.8909 H       1  LIG1        0.0660
     20 H           4.0899    2.9532   -0.8935 H       1  LIG1        0.0660
@<TRIPOS>BOND
     1    20    17    1
     2    15    12    1
     3    18    17    1
     4    17    16    1
     5    17    19    1
     6    16     7    1
     7     9     4    1
     8     7     4   ar
     9     7     6   ar
    10     4     2   ar
    11     8     6    1
    12     6     3   ar
    13     2     5    1
    14     2     1   ar
    15     3     1   ar
    16     3    10    1
    17     1    11    1
    18    11    12    1
    19    12    13    1
    20    12    14    1
