@<TRIPOS>MOLECULE
mol_data/opt/cam/geoms/mol2/4ll12lf-12ae4dd-12fe-12hf-4ai13ii-.out
 100 107 0 0 0
SMALL
GASTEIGER

@<TRIPOS>ATOM
      1 C           1.1302   -1.5220    2.0584 C.ar    1  LIG1        0.1210
      2 C           2.1621   -1.0987    1.2258 C.ar    1  LIG1       -0.0056
      3 C           0.7252   -0.7257    3.1253 C.ar    1  LIG1       -0.0165
      4 C           2.8226    0.1129    1.4403 C.ar    1  LIG1        0.0661
      5 H           2.4428   -1.7310    0.3944 H       1  LIG1        0.0662
      6 C           1.3779    0.4826    3.3436 C.ar    1  LIG1       -0.0158
      7 C           2.4129    0.9112    2.5291 C.ar    1  LIG1        0.1311
      8 H           1.0804    1.1299    4.1614 H       1  LIG1        0.0655
      9 H          -0.0828   -1.0241    3.7807 H       1  LIG1        0.0655
     10 O           0.5754   -2.7242    1.7375 O.3     1  LIG1       -0.4951
     11 C          -0.4903   -3.1922    2.5323 C.3     1  LIG1        0.0788
     12 H          -0.7880   -4.1517    2.1095 H       1  LIG1        0.0660
     13 H          -0.1848   -3.3397    3.5753 H       1  LIG1        0.0660
     14 H          -1.3470   -2.5080    2.5064 H       1  LIG1        0.0660
     15 O           2.9770    2.1340    2.7966 O.3     1  LIG1       -0.4944
     16 C           4.1706    2.0833    3.5584 C.3     1  LIG1        0.0788
     17 H           4.4885    3.1152    3.7116 H       1  LIG1        0.0660
     18 H           3.9979    1.6077    4.5318 H       1  LIG1        0.0660
     19 H           4.9639    1.5425    3.0311 H       1  LIG1        0.0660
     20 C           3.8974    0.4917    0.5262 C.ar    1  LIG1        0.1847
     21 C           4.5797   -0.2218   -0.4305 C.ar    1  LIG1        0.2085
     22 C           5.5047    0.6796   -1.0337 C.ar    1  LIG1        0.2092
     23 C           5.3425    1.8779   -0.4009 C.ar    1  LIG1        0.2156
     24 O           4.3576    1.7737    0.5315 O.2     1  LIG1       -0.4440
     25 O           4.3653   -1.5141   -0.7809 O.3     1  LIG1       -0.4884
     26 C           5.5203   -2.3491   -0.7426 C.3     1  LIG1        0.0791
     27 H           5.1867   -3.3437   -1.0382 H       1  LIG1        0.0660
     28 H           6.2853   -1.9959   -1.4385 H       1  LIG1        0.0660
     29 H           5.9357   -2.3898    0.2701 H       1  LIG1        0.0660
     30 O           6.3450    0.3547   -2.0460 O.3     1  LIG1       -0.5007
     31 H           6.6477    1.1670   -2.4745 H       1  LIG1        0.2924
     32 C           6.0188    3.1285   -0.6012 C.ar    1  LIG1        0.1756
     33 C           7.2504    3.4176   -1.1084 C.ar    1  LIG1        0.0034
     34 C           7.3536    4.8469   -1.1368 C.ar    1  LIG1        0.0711
     35 C           6.1780    5.3241   -0.6116 C.ar    1  LIG1        0.1524
     36 O           5.3591    4.2783   -0.3063 O.2     1  LIG1       -0.4503
     37 H           8.0253    2.7176   -1.3824 H       1  LIG1        0.0669
     38 C           8.4342    5.5921   -1.6777 C.1     1  LIG1       -0.0658
     39 C           9.3532    6.1999   -2.1607 C.1     1  LIG1       -0.1138
     40 H          10.1705    6.7530   -2.5630 H       1  LIG1        0.1232
     41 C           6.3402    7.7456    0.1042 C.ar    1  LIG1        0.0632
     42 C           5.7508    8.9967    0.2329 C.ar    1  LIG1       -0.0316
     43 C           5.6119    6.6525   -0.4076 C.ar    1  LIG1        0.0371
     44 C           4.4122    9.2272   -0.1140 C.ar    1  LIG1        0.0396
     45 H           6.3391    9.8117    0.6333 H       1  LIG1        0.0638
     46 C           4.2744    6.8698   -0.7227 C.ar    1  LIG1       -0.0317
     47 C           3.6707    8.1201   -0.5888 C.ar    1  LIG1        0.0633
     48 H           3.6825    6.0434   -1.0969 H       1  LIG1        0.0638
     49 N           8.7439    7.5389    1.0500 N.1     1  LIG1       -0.1908
     50 C           7.6811    7.6033    0.5992 C.1     1  LIG1        0.0999
     51 N           1.1982    8.1420   -1.3580 N.1     1  LIG1       -0.1908
     52 C           2.2942    8.1924   -0.9929 C.1     1  LIG1        0.0999
     53 C           3.8753   10.5538    0.0416 C.ar    1  LIG1        0.1795
     54 C           4.4351   11.7574    0.3751 C.ar    1  LIG1        0.1792
     55 C           3.4010   12.7435    0.3640 C.ar    1  LIG1        0.1156
     56 C           2.2424   12.0626    0.0178 C.ar    1  LIG1        0.1915
     57 O           2.5317   10.7630   -0.1729 O.2     1  LIG1       -0.4466
     58 O           5.7292   11.9863    0.6615 O.3     1  LIG1       -0.5024
     59 H           5.8391   12.9280    0.8589 H       1  LIG1        0.2923
     60 C           3.6514   14.1026    0.6651 C.1     1  LIG1       -0.0621
     61 C           3.9872   15.2318    0.9328 C.1     1  LIG1       -0.1137
     62 H           4.2564   16.2315    1.1878 H       1  LIG1        0.1232
     63 C           0.8832   12.4332   -0.1765 C.ar    1  LIG1        0.1962
     64 C           0.1850   13.6257   -0.1620 C.ar    1  LIG1        0.1169
     65 C          -1.1564   13.2755   -0.4877 C.ar    1  LIG1        0.1846
     66 C          -1.2105   11.9206   -0.6638 C.ar    1  LIG1        0.1789
     67 O           0.0272   11.4045   -0.4885 O.2     1  LIG1       -0.4460
     68 N           0.5707   14.9038    0.1247 N.pl3   1  LIG1       -0.3521
     69 H           1.5520   15.1324    0.1117 H       1  LIG1        0.1425
     70 H          -0.0633   15.6214   -0.1912 H       1  LIG1        0.1425
     71 O          -2.1317   14.2245   -0.5985 O.3     1  LIG1       -0.5020
     72 H          -2.7438   13.9659   -1.2988 H       1  LIG1        0.2924
     73 C          -3.6246   11.3901   -0.9088 C.ar    1  LIG1       -0.0503
     74 C          -4.6233   10.5045   -1.2763 C.ar    1  LIG1       -0.0517
     75 C          -2.2842   11.0080   -1.0200 C.ar    1  LIG1        0.0213
     76 C          -4.3318    9.2173   -1.7422 C.ar    1  LIG1        0.0015
     77 H          -5.6615   10.8101   -1.2079 H       1  LIG1        0.0624
     78 C          -1.9844    9.7210   -1.4750 C.ar    1  LIG1       -0.0474
     79 C          -2.9811    8.8187   -1.8291 C.ar    1  LIG1       -0.0407
     80 H          -0.9470    9.4075   -1.5297 H       1  LIG1        0.0627
     81 H          -3.8899   12.3597   -0.5003 H       1  LIG1        0.0625
     82 C          -2.5729    7.4338   -2.2663 C.3     1  LIG1       -0.0391
     83 H          -1.5572    7.2179   -1.9305 H       1  LIG1        0.0278
     84 H          -2.5740    7.3295   -3.3574 H       1  LIG1        0.0278
     85 H          -3.2489    6.6738   -1.8682 H       1  LIG1        0.0278
     86 C          -5.4471    8.3264   -2.0989 C.ar    1  LIG1        0.0499
     87 C          -6.6139    8.0254   -1.4198 C.ar    1  LIG1       -0.0223
     88 C          -7.3658    7.1273   -2.2370 C.ar    1  LIG1       -0.0297
     89 C          -6.6377    6.9164   -3.3802 C.ar    1  LIG1        0.0053
     90 N          -5.4767    7.6317   -3.2871 N.ar    1  LIG1       -0.3602
     91 H          -4.7818    7.7115   -4.0091 H       1  LIG1        0.1654
     92 H          -6.8568    6.3096   -4.2463 H       1  LIG1        0.0810
     93 C          -7.0196    8.4935   -0.0565 C.3     1  LIG1       -0.0375
     94 H          -7.3540    7.6550    0.5631 H       1  LIG1        0.0278
     95 H          -7.8503    9.2079   -0.0966 H       1  LIG1        0.0278
     96 H          -6.1916    8.9793    0.4634 H       1  LIG1        0.0278
     97 C          -8.6908    6.5220   -1.8951 C.3     1  LIG1       -0.0380
     98 H          -9.0422    5.8652   -2.6947 H       1  LIG1        0.0278
     99 H          -9.4579    7.2872   -1.7347 H       1  LIG1        0.0278
    100 H          -8.6397    5.9253   -0.9777 H       1  LIG1        0.0278
@<TRIPOS>BOND
     1    92    89    1
     2    91    90    1
     3    89    90   ar
     4    89    88   ar
     5    84    82    1
     6    90    86   ar
     7    98    97    1
     8    40    39    1
     9    31    30    1
    10    82    83    1
    11    82    85    1
    12    82    79    1
    13    88    97    1
    14    88    87   ar
    15    39    38    3
    16    86    76    1
    17    86    87   ar
    18    30    22    1
    19    97    99    1
    20    97   100    1
    21    79    76   ar
    22    79    78   ar
    23    76    74   ar
    24    38    34    1
    25    80    78    1
    26    78    75   ar
    27    28    26    1
    28    87    93    1
    29    37    33    1
    30    51    52    3
    31    72    71    1
    32    74    77    1
    33    74    73   ar
    34    34    33   ar
    35    34    35   ar
    36    33    32   ar
    37    48    46    1
    38    27    26    1
    39    22    21   ar
    40    22    23   ar
    41    75    73   ar
    42    75    66    1
    43    52    47    1
    44    73    81    1
    45    25    26    1
    46    25    21    1
    47    26    29    1
    48    46    47   ar
    49    46    43   ar
    50    66    67   ar
    51    66    65   ar
    52    35    43    1
    53    35    36   ar
    54    32    23    1
    55    32    36   ar
    56    71    65    1
    57    47    44   ar
    58    67    63   ar
    59    65    64   ar
    60    21    20   ar
    61    43    41   ar
    62    23    24   ar
    63    70    68    1
    64    63    64   ar
    65    63    56    1
    66    57    56   ar
    67    57    53   ar
    68    64    68    1
    69    44    53    1
    70    44    42   ar
    71    95    93    1
    72    93    96    1
    73    93    94    1
    74    56    55   ar
    75    53    54   ar
    76    41    42   ar
    77    41    50    1
    78    69    68    1
    79    42    45    1
    80    55    54   ar
    81    55    60    1
    82    54    58    1
    83     5     2    1
    84    20    24   ar
    85    20     4    1
    86    50    49    3
    87    58    59    1
    88    60    61    3
    89    61    62    1
    90     2     4   ar
    91     2     1   ar
    92     4     7   ar
    93    10     1    1
    94    10    11    1
    95     1     3   ar
    96    12    11    1
    97    14    11    1
    98     7    15    1
    99     7     6   ar
   100    11    13    1
   101    15    16    1
   102    19    16    1
   103     3     6   ar
   104     3     9    1
   105     6     8    1
   106    16    17    1
   107    16    18    1
