@<TRIPOS>MOLECULE
mol_data/opt/cam/geoms/mol2/4ll12he6ei-12aa13le-13ha-6aa-6al-.out
 98 105 0 0 0
SMALL
GASTEIGER

@<TRIPOS>ATOM
      1 C          -0.5456    0.6569    0.5545 C.ar    1  LIG1        0.1210
      2 C           0.8480    0.7085    0.5602 C.ar    1  LIG1       -0.0057
      3 C          -1.2548    1.5110   -0.2768 C.ar    1  LIG1       -0.0165
      4 C           1.5472    1.5804   -0.2694 C.ar    1  LIG1        0.0642
      5 H           1.3839    0.0658    1.2498 H       1  LIG1        0.0662
      6 C          -0.5687    2.3945   -1.1124 C.ar    1  LIG1       -0.0158
      7 C           0.8180    2.4302   -1.1310 C.ar    1  LIG1        0.1310
      8 H          -1.1396    3.0710   -1.7357 H       1  LIG1        0.0655
      9 H          -2.3372    1.5117   -0.2914 H       1  LIG1        0.0655
     10 O          -1.1071   -0.2497    1.4078 O.3     1  LIG1       -0.4951
     11 C          -2.5126   -0.3033    1.4720 C.3     1  LIG1        0.0788
     12 H          -2.7573   -1.0696    2.2078 H       1  LIG1        0.0660
     13 H          -2.9412    0.6535    1.7946 H       1  LIG1        0.0660
     14 H          -2.9540   -0.5803    0.5064 H       1  LIG1        0.0660
     15 O           1.5450    3.2362   -1.9479 O.3     1  LIG1       -0.4944
     16 C           0.8630    3.9235   -2.9759 C.3     1  LIG1        0.0788
     17 H           1.6255    4.4794   -3.5214 H       1  LIG1        0.0660
     18 H           0.3648    3.2228   -3.6579 H       1  LIG1        0.0660
     19 H           0.1125    4.6176   -2.5851 H       1  LIG1        0.0660
     20 C           3.0057    1.5549   -0.2375 C.ar    1  LIG1        0.1611
     21 C           3.8836    0.5234   -0.0452 C.ar    1  LIG1        0.0873
     22 C           5.1970    1.0989   -0.0542 C.ar    1  LIG1        0.0917
     23 C           5.0232    2.4574   -0.2468 C.ar    1  LIG1        0.1555
     24 O           3.7129    2.7209   -0.3598 O.2     1  LIG1       -0.4514
     25 N           3.6167   -0.8217    0.1715 N.pl3   1  LIG1       -0.3541
     26 H           2.7497   -1.1411   -0.2392 H       1  LIG1        0.1425
     27 H           4.3946   -1.4223   -0.0675 H       1  LIG1        0.1425
     28 C           6.3778    0.3336    0.1200 C.1     1  LIG1       -0.0640
     29 C           7.3329   -0.3888    0.2638 C.1     1  LIG1       -0.1137
     30 H           8.1857   -1.0109    0.4092 H       1  LIG1        0.1232
     31 C           5.5964    4.9290   -0.2573 C.ar    1  LIG1        0.1246
     32 C           5.9633    3.5658   -0.3251 C.ar    1  LIG1        0.0526
     33 C           7.3312    3.3039   -0.4566 C.ar    1  LIG1       -0.0433
     34 C           8.2814    4.3091   -0.4987 C.ar    1  LIG1       -0.0207
     35 C           7.8065    5.6317   -0.4016 C.ar    1  LIG1        0.1103
     36 N           6.5048    5.9050   -0.2926 N.ar    1  LIG1       -0.2343
     37 H           7.6631    2.2751   -0.5245 H       1  LIG1        0.0629
     38 C           4.2432    5.4004   -0.1405 C.1     1  LIG1       -0.0491
     39 C           3.1406    5.8754   -0.0507 C.1     1  LIG1       -0.1124
     40 H           2.1629    6.3088    0.0233 H       1  LIG1        0.1232
     41 C           9.7361    3.9636   -0.6358 C.3     1  LIG1       -0.0376
     42 H          10.3243    4.3778    0.1887 H       1  LIG1        0.0278
     43 H          10.1562    4.3567   -1.5671 H       1  LIG1        0.0278
     44 H           9.8735    2.8809   -0.6384 H       1  LIG1        0.0278
     45 C           8.6718    6.8123   -0.3995 C.ar    1  LIG1        0.1542
     46 C          10.0008    7.0926   -0.5823 C.ar    1  LIG1       -0.0137
     47 C          10.1593    8.5026   -0.4524 C.ar    1  LIG1       -0.0136
     48 C           8.9138    8.9970   -0.1979 C.ar    1  LIG1        0.1555
     49 O           8.0156    7.9837   -0.1651 O.2     1  LIG1       -0.4517
     50 H          10.7875    6.3881   -0.7927 H       1  LIG1        0.0656
     51 H          11.0681    9.0785   -0.5277 H       1  LIG1        0.0656
     52 C           8.3171   10.2836    0.0365 C.ar    1  LIG1        0.1260
     53 C           8.7848   11.5767    0.0124 C.ar    1  LIG1        0.1642
     54 C           7.6874   12.4502    0.3090 C.ar    1  LIG1        0.0937
     55 C           6.5713   11.6355    0.5243 C.ar    1  LIG1        0.0844
     56 N           6.9778   10.3469    0.3507 N.ar    1  LIG1       -0.3466
     57 H           6.4292    9.5253    0.5559 H       1  LIG1        0.1662
     58 O          10.0780   11.9114   -0.2347 O.3     1  LIG1       -0.4916
     59 C          10.2851   12.6996   -1.4020 C.3     1  LIG1        0.0789
     60 H          11.3603   12.8669   -1.4736 H       1  LIG1        0.0660
     61 H           9.9378   12.1699   -2.2962 H       1  LIG1        0.0660
     62 H           9.7722   13.6623   -1.3297 H       1  LIG1        0.0660
     63 C           7.7198   13.8667    0.3387 C.1     1  LIG1       -0.0638
     64 C           7.7497   15.0735    0.3621 C.1     1  LIG1       -0.1137
     65 H           7.7896   16.1382    0.3631 H       1  LIG1        0.1232
     66 C           5.1839   11.8931    0.8256 C.ar    1  LIG1        0.0856
     67 C           4.5200   12.8551    1.5755 C.ar    1  LIG1        0.0523
     68 C           3.1459   12.4901    1.6003 C.ar    1  LIG1       -0.0150
     69 C           2.9978   11.3187    0.8876 C.ar    1  LIG1        0.0502
     70 N           4.2384   10.9464    0.4465 N.ar    1  LIG1       -0.3515
     71 H           4.3787   10.3219   -0.3329 H       1  LIG1        0.1660
     72 N           5.0832   13.9015    2.2918 N.pl3   1  LIG1       -0.3563
     73 H           5.9468   14.2640    1.9082 H       1  LIG1        0.1424
     74 H           4.4319   14.6424    2.5061 H       1  LIG1        0.1424
     75 H           2.3693   12.9976    2.1553 H       1  LIG1        0.0657
     76 C           1.9590    9.1281    0.3463 C.ar    1  LIG1        0.0374
     77 C           1.8275   10.4982    0.6053 C.ar    1  LIG1        0.0165
     78 C           0.5307   11.0147    0.5705 C.ar    1  LIG1       -0.0492
     79 C          -0.5325   10.1786    0.2772 C.ar    1  LIG1       -0.0350
     80 C          -0.2935    8.8275    0.0125 C.ar    1  LIG1        0.0726
     81 N           0.9473    8.3245    0.0538 N.ar    1  LIG1       -0.2543
     82 H           0.3650   12.0730    0.7437 H       1  LIG1        0.0625
     83 H           2.9350    8.6497    0.3975 H       1  LIG1        0.0836
     84 H          -1.5367   10.5812    0.2125 H       1  LIG1        0.0639
     85 C          -1.0723    6.7632   -1.1287 C.ar    1  LIG1        0.0370
     86 C          -1.3741    7.8843   -0.3594 C.ar    1  LIG1        0.0219
     87 C          -2.7034    8.0779    0.0260 C.ar    1  LIG1       -0.0078
     88 C          -3.6553    7.1515   -0.3773 C.ar    1  LIG1        0.1387
     89 C          -3.2430    6.0621   -1.1523 C.ar    1  LIG1        0.0692
     90 N          -1.9844    5.8717   -1.5194 N.ar    1  LIG1       -0.2590
     91 H          -2.9740    8.9208    0.6493 H       1  LIG1        0.0662
     92 H          -3.9856    5.3338   -1.4675 H       1  LIG1        0.0867
     93 H          -0.0481    6.5919   -1.4403 H       1  LIG1        0.0836
     94 O          -4.9757    7.2001   -0.0760 O.3     1  LIG1       -0.4936
     95 C          -5.4373    8.2761    0.7135 C.3     1  LIG1        0.0789
     96 H          -6.5100    8.1280    0.8321 H       1  LIG1        0.0660
     97 H          -4.9639    8.2827    1.7023 H       1  LIG1        0.0660
     98 H          -5.2598    9.2407    0.2234 H       1  LIG1        0.0660
@<TRIPOS>BOND
     1    18    16    1
     2    17    16    1
     3    16    19    1
     4    16    15    1
     5    61    59    1
     6    15     7    1
     7     8     6    1
     8    43    41    1
     9    90    89   ar
    10    90    85   ar
    11    60    59    1
    12    92    89    1
    13    93    85    1
    14    59    62    1
    15    59    58    1
    16    89    88   ar
    17     7     6   ar
    18     7     4   ar
    19    85    86   ar
    20     6     3   ar
    21    50    46    1
    22    44    41    1
    23    41    34    1
    24    41    42    1
    25    46    47   ar
    26    46    45   ar
    27    51    47    1
    28    37    33    1
    29    34    33   ar
    30    34    35   ar
    31    33    32   ar
    32    47    48   ar
    33    35    45    1
    34    35    36   ar
    35    45    49   ar
    36    88    94    1
    37    88    87   ar
    38    24    23   ar
    39    24    20   ar
    40    86    80    1
    41    86    87   ar
    42    71    70    1
    43    32    31   ar
    44    32    23    1
    45    36    31   ar
    46     9     3    1
    47     3     1   ar
    48     4    20    1
    49     4     2   ar
    50    31    38    1
    51    23    22   ar
    52    26    25    1
    53    20    21   ar
    54    58    53    1
    55    48    49   ar
    56    48    52    1
    57    38    39    3
    58    94    95    1
    59    27    25    1
    60    22    21   ar
    61    22    28    1
    62    39    40    1
    63    21    25    1
    64    53    52   ar
    65    53    54   ar
    66    80    81   ar
    67    80    79   ar
    68    87    91    1
    69    52    56   ar
    70    81    76   ar
    71    28    29    3
    72    84    79    1
    73    98    95    1
    74    29    30    1
    75    79    78   ar
    76    54    63    1
    77    54    55   ar
    78    63    64    3
    79    76    83    1
    80    76    77   ar
    81    56    55   ar
    82    56    57    1
    83    64    65    1
    84    70    66   ar
    85    70    69   ar
    86    14    11    1
    87    55    66    1
    88     1     2   ar
    89     1    10    1
    90     2     5    1
    91    78    77   ar
    92    78    82    1
    93    77    69    1
    94    95    96    1
    95    95    97    1
    96    66    67   ar
    97    69    68   ar
    98    10    11    1
    99    11    13    1
   100    11    12    1
   101    67    68   ar
   102    67    72    1
   103    68    75    1
   104    73    72    1
   105    72    74    1
