@<TRIPOS>MOLECULE
mol_data/opt/cam/geoms/mol2/512-8-5.out
 29 32 0 0 0
SMALL
GASTEIGER

@<TRIPOS>ATOM
      1 C          -2.3477   -1.8288   -0.0002 C.ar    1  LIG1       -0.0236
      2 C          -0.9887   -1.9019   -0.0005 C.ar    1  LIG1       -0.0540
      3 C          -0.3695   -0.6220    0.0000 C.ar    1  LIG1       -0.0440
      4 C          -1.2745    0.4045    0.0007 C.ar    1  LIG1        0.0544
      5 S          -2.9038   -0.1967    0.0003 S.2     1  LIG1       -0.0936
      6 H          -3.0616   -2.6396   -0.0005 H       1  LIG1        0.0693
      7 H          -0.4416   -2.8361   -0.0010 H       1  LIG1        0.0623
      8 H           0.6997   -0.4540    0.0000 H       1  LIG1        0.0630
      9 C          -0.9921    1.8205    0.0015 C.ar    1  LIG1        0.1424
     10 C          -1.7761    2.9432    0.0020 C.ar    1  LIG1       -0.0146
     11 C          -0.8904    4.0491    0.0027 C.ar    1  LIG1       -0.0120
     12 C           0.3712    3.5281    0.0025 C.ar    1  LIG1        0.1760
     13 O           0.3162    2.1699    0.0018 O.2     1  LIG1       -0.4511
     14 H          -2.8555    2.9690    0.0019 H       1  LIG1        0.0656
     15 H          -1.1343    5.1001    0.0033 H       1  LIG1        0.0657
     16 C           1.6720    4.1592    0.0029 C.ar    1  LIG1        0.2381
     17 N           1.6863    5.5034    0.0037 N.ar    1  LIG1       -0.1220
     18 C           3.9485    5.3281    0.0037 C.ar    1  LIG1        0.2099
     19 N           2.7704    3.3871    0.0026 N.ar    1  LIG1       -0.1220
     20 N           2.8452    6.0958    0.0041 N.ar    1  LIG1       -0.1246
     21 N           3.9305    3.9861    0.0030 N.ar    1  LIG1       -0.1246
     22 C           5.2388    5.9937    0.0042 C.ar    1  LIG1        0.0598
     23 C           6.4750    5.4048    0.0040 C.ar    1  LIG1       -0.0438
     24 C           7.5301    6.3529    0.0045 C.ar    1  LIG1       -0.0540
     25 C           7.0725    7.6381    0.0050 C.ar    1  LIG1       -0.0236
     26 S           5.3557    7.7241    0.0053 S.2     1  LIG1       -0.0934
     27 H           7.6562    8.5478    0.0053 H       1  LIG1        0.0693
     28 H           6.6027    4.3303    0.0035 H       1  LIG1        0.0630
     29 H           8.5803    6.0900    0.0044 H       1  LIG1        0.0623
@<TRIPOS>BOND
     1     7     2    1
     2     2     1   ar
     3     2     3   ar
     4     6     1    1
     5     1     5   ar
     6     8     3    1
     7     3     4   ar
     8     5     4   ar
     9     4     9    1
    10     9    13   ar
    11     9    10   ar
    12    13    12   ar
    13    14    10    1
    14    10    11   ar
    15    12    11   ar
    16    12    16    1
    17    19    16   ar
    18    19    21   ar
    19    11    15    1
    20    16    17   ar
    21    21    18   ar
    22    28    23    1
    23    17    20   ar
    24    18    20   ar
    25    18    22    1
    26    23    22   ar
    27    23    24   ar
    28    22    26   ar
    29    29    24    1
    30    24    25   ar
    31    25    26   ar
    32    25    27    1
