@<TRIPOS>MOLECULE
mol_data/opt/cam/geoms/mol2/512-124-.out
 33 36 0 0 0
SMALL
GASTEIGER

@<TRIPOS>ATOM
      1 C          -2.1671   -1.9291    0.0005 C.ar    1  LIG1       -0.0236
      2 C          -0.8072   -1.9303    0.0005 C.ar    1  LIG1       -0.0540
      3 C          -0.2546   -0.6191    0.0008 C.ar    1  LIG1       -0.0440
      4 C          -1.2093    0.3611    0.0010 C.ar    1  LIG1        0.0544
      5 S          -2.8055   -0.3254    0.0007 S.2     1  LIG1       -0.0936
      6 H          -2.8385   -2.7753    0.0003 H       1  LIG1        0.0693
      7 H          -0.2117   -2.8348    0.0004 H       1  LIG1        0.0623
      8 H           0.8049   -0.3996    0.0009 H       1  LIG1        0.0630
      9 C          -1.0074    1.7906    0.0013 C.ar    1  LIG1        0.1424
     10 C          -1.8462    2.8668    0.0013 C.ar    1  LIG1       -0.0146
     11 C          -1.0228    4.0265    0.0016 C.ar    1  LIG1       -0.0121
     12 C           0.2646    3.5788    0.0018 C.ar    1  LIG1        0.1706
     13 O           0.2871    2.2187    0.0016 O.2     1  LIG1       -0.4512
     14 H          -2.9256    2.8337    0.0010 H       1  LIG1        0.0656
     15 H          -1.3350    5.0592    0.0018 H       1  LIG1        0.0657
     16 C           1.5379    4.2438    0.0022 C.ar    1  LIG1        0.1706
     17 C           2.8249    3.7954    0.0025 C.ar    1  LIG1       -0.0122
     18 C           3.6466    4.9560    0.0029 C.ar    1  LIG1       -0.0151
     19 C           2.8114    6.0354    0.0028 C.ar    1  LIG1        0.1358
     20 O           1.5173    5.6022    0.0024 O.2     1  LIG1       -0.4517
     21 H           3.1369    2.7626    0.0025 H       1  LIG1        0.0657
     22 H           4.7256    4.9820    0.0032 H       1  LIG1        0.0656
     23 C           1.9476    8.3634    0.0028 C.ar    1  LIG1       -0.0511
     24 C           2.1634    9.7343    0.0030 C.ar    1  LIG1       -0.0611
     25 C           3.0288    7.4767    0.0030 C.ar    1  LIG1        0.0173
     26 C           3.4569   10.2430    0.0034 C.ar    1  LIG1       -0.0617
     27 H           1.3138   10.4094    0.0029 H       1  LIG1        0.0618
     28 C           4.3279    7.9966    0.0033 C.ar    1  LIG1       -0.0511
     29 C           4.5378    9.3668    0.0035 C.ar    1  LIG1       -0.0611
     30 H           5.1784    7.3231    0.0034 H       1  LIG1        0.0625
     31 H           3.6232   11.3151    0.0035 H       1  LIG1        0.0618
     32 H           0.9385    7.9686    0.0026 H       1  LIG1        0.0625
     33 H           5.5518    9.7535    0.0038 H       1  LIG1        0.0618
@<TRIPOS>BOND
     1     6     1    1
     2     7     2    1
     3     1     2   ar
     4     1     5   ar
     5     2     3   ar
     6     5     4   ar
     7     3     8    1
     8     3     4   ar
     9     4     9    1
    10    14    10    1
    11    10     9   ar
    12    10    11   ar
    13     9    13   ar
    14    13    12   ar
    15    11    15    1
    16    11    12   ar
    17    12    16    1
    18    16    20   ar
    19    16    17   ar
    20    20    19   ar
    21    21    17    1
    22    17    18   ar
    23    32    23    1
    24    19    18   ar
    25    19    25    1
    26    23    25   ar
    27    23    24   ar
    28    18    22    1
    29    27    24    1
    30    25    28   ar
    31    24    26   ar
    32    28    30    1
    33    28    29   ar
    34    26    29   ar
    35    26    31    1
    36    29    33    1
