@<TRIPOS>MOLECULE
mol_data/opt/cam/geoms/mol2/512-48.out
 32 35 0 0 0
SMALL
GASTEIGER

@<TRIPOS>ATOM
      1 C          -2.2796   -1.8837   -0.0013 C.ar    1  LIG1       -0.0236
      2 C          -0.9197   -1.9135   -0.0007 C.ar    1  LIG1       -0.0540
      3 C          -0.3407   -0.6140    0.0002 C.ar    1  LIG1       -0.0440
      4 C          -1.2754    0.3853    0.0003 C.ar    1  LIG1        0.0544
      5 S          -2.8851   -0.2681   -0.0010 S.2     1  LIG1       -0.0936
      6 H          -2.9682   -2.7160   -0.0020 H       1  LIG1        0.0693
      7 H          -0.3431   -2.8299   -0.0008 H       1  LIG1        0.0623
      8 H           0.7233   -0.4175    0.0009 H       1  LIG1        0.0630
      9 C          -1.0453    1.8112    0.0012 C.ar    1  LIG1        0.1422
     10 C          -1.8669    2.9013    0.0011 C.ar    1  LIG1       -0.0147
     11 C          -1.0210    4.0422    0.0024 C.ar    1  LIG1       -0.0152
     12 C           0.2640    3.5816    0.0031 C.ar    1  LIG1        0.1357
     13 O           0.2514    2.2172    0.0024 O.2     1  LIG1       -0.4543
     14 H          -2.9466    2.8882    0.0002 H       1  LIG1        0.0656
     15 H          -1.3315    5.0760    0.0027 H       1  LIG1        0.0656
     16 C           2.7438    3.4823    0.0053 C.ar    1  LIG1       -0.0504
     17 C           3.9778    4.1076    0.0065 C.ar    1  LIG1       -0.0503
     18 C           1.5630    4.2342    0.0044 C.ar    1  LIG1        0.0173
     19 C           4.0648    5.5020    0.0070 C.ar    1  LIG1        0.0227
     20 H           4.8890    3.5220    0.0072 H       1  LIG1        0.0625
     21 C           1.6565    5.6321    0.0048 C.ar    1  LIG1       -0.0504
     22 C           2.8882    6.2580    0.0061 C.ar    1  LIG1       -0.0503
     23 H           0.7544    6.2339    0.0042 H       1  LIG1        0.0625
     24 H           2.6844    2.4008    0.0049 H       1  LIG1        0.0625
     25 H           2.9551    7.3390    0.0065 H       1  LIG1        0.0625
     26 C           5.3773    6.1676    0.0084 C.ar    1  LIG1        0.2033
     27 N           6.4773    5.3966    0.0090 N.ar    1  LIG1       -0.1258
     28 C           7.6524    7.3214    0.0103 C.ar    1  LIG1        0.1605
     29 N           5.4053    7.5104    0.0087 N.ar    1  LIG1       -0.1258
     30 N           7.6447    5.9895    0.0101 N.ar    1  LIG1       -0.1339
     31 N           6.5735    8.1021    0.0098 N.ar    1  LIG1       -0.1339
     32 H           8.6192    7.8116    0.0116 H       1  LIG1        0.1085
@<TRIPOS>BOND
     1     6     1    1
     2     1     5   ar
     3     1     2   ar
     4     5     4   ar
     5     7     2    1
     6     2     3   ar
     7    14    10    1
     8     3     4   ar
     9     3     8    1
    10     4     9    1
    11    10     9   ar
    12    10    11   ar
    13     9    13   ar
    14    11    15    1
    15    11    12   ar
    16    13    12   ar
    17    12    18    1
    18    23    21    1
    19    18    21   ar
    20    18    16   ar
    21    21    22   ar
    22    24    16    1
    23    16    17   ar
    24    22    25    1
    25    22    19   ar
    26    17    19   ar
    27    17    20    1
    28    19    26    1
    29    26    29   ar
    30    26    27   ar
    31    29    31   ar
    32    27    30   ar
    33    31    28   ar
    34    30    28   ar
    35    28    32    1
