@<TRIPOS>MOLECULE
mol_data/opt/cam/geoms/mol2/512-5.out
 23 25 0 0 0
SMALL
GASTEIGER

@<TRIPOS>ATOM
      1 C          -2.1881   -1.8539   -0.0002 C.ar    1  LIG1       -0.0236
      2 C          -0.8283   -1.8724   -0.0006 C.ar    1  LIG1       -0.0540
      3 C          -0.2591   -0.5683   -0.0001 C.ar    1  LIG1       -0.0440
      4 C          -1.2011    0.4239    0.0007 C.ar    1  LIG1        0.0544
      5 S          -2.8059   -0.2421    0.0004 S.2     1  LIG1       -0.0936
      6 H          -2.8702   -2.6915   -0.0004 H       1  LIG1        0.0693
      7 H          -0.2443   -2.7843   -0.0012 H       1  LIG1        0.0623
      8 H           0.8031   -0.3622   -0.0002 H       1  LIG1        0.0630
      9 C          -0.9810    1.8511    0.0015 C.ar    1  LIG1        0.1422
     10 C          -1.8065    2.9366    0.0020 C.ar    1  LIG1       -0.0147
     11 C          -0.9666    4.0843    0.0028 C.ar    1  LIG1       -0.0147
     12 C           0.3178    3.6257    0.0025 C.ar    1  LIG1        0.1422
     13 O           0.3175    2.2634    0.0018 O.2     1  LIG1       -0.4538
     14 H          -2.8862    2.9180    0.0019 H       1  LIG1        0.0656
     15 H          -1.2753    5.1190    0.0035 H       1  LIG1        0.0656
     16 C           1.6115    4.2672    0.0029 C.ar    1  LIG1        0.0544
     17 C           2.8422    3.6694    0.0027 C.ar    1  LIG1       -0.0440
     18 C           3.9131    4.6063    0.0031 C.ar    1  LIG1       -0.0540
     19 C           3.4842    5.8968    0.0036 C.ar    1  LIG1       -0.0236
     20 S           1.7611    5.9982    0.0039 S.2     1  LIG1       -0.0936
     21 H           4.0763    6.8003    0.0038 H       1  LIG1        0.0693
     22 H           2.9670    2.5946    0.0023 H       1  LIG1        0.0630
     23 H           4.9589    4.3254    0.0030 H       1  LIG1        0.0623
@<TRIPOS>BOND
     1     7     2    1
     2     2     1   ar
     3     2     3   ar
     4     6     1    1
     5     1     5   ar
     6     8     3    1
     7     3     4   ar
     8     5     4   ar
     9     4     9    1
    10     9    13   ar
    11     9    10   ar
    12    13    12   ar
    13    14    10    1
    14    10    11   ar
    15    22    17    1
    16    12    11   ar
    17    12    16    1
    18    17    16   ar
    19    17    18   ar
    20    11    15    1
    21    16    20   ar
    22    23    18    1
    23    18    19   ar
    24    19    21    1
    25    19    20   ar
