@<TRIPOS>MOLECULE
mol_data/opt/cam/geoms/mol2/512-.out
 16 17 0 0 0
SMALL
GASTEIGER

@<TRIPOS>ATOM
      1 C          -2.0548   -1.8019   -0.0003 C.ar    1  LIG1       -0.0236
      2 C          -0.6955   -1.7794   -0.0006 C.ar    1  LIG1       -0.0540
      3 C          -0.1655   -0.4587    0.0001 C.ar    1  LIG1       -0.0440
      4 C          -1.1353    0.5049    0.0008 C.ar    1  LIG1        0.0544
      5 S          -2.7198   -0.2084    0.0006 S.2     1  LIG1       -0.0936
      6 H          -2.7122   -2.6589   -0.0006 H       1  LIG1        0.0693
      7 H          -0.0847   -2.6737   -0.0012 H       1  LIG1        0.0623
      8 H           0.8900   -0.2204   -0.0000 H       1  LIG1        0.0630
      9 C          -0.9575    1.9402    0.0016 C.ar    1  LIG1        0.1413
     10 C          -1.8133    3.0004    0.0021 C.ar    1  LIG1       -0.0154
     11 C          -1.0020    4.1752    0.0028 C.ar    1  LIG1       -0.0233
     12 C           0.2819    3.7452    0.0026 C.ar    1  LIG1        0.0926
     13 O           0.3287    2.3889    0.0019 O.2     1  LIG1       -0.4624
     14 H           1.2352    4.2484    0.0029 H       1  LIG1        0.1029
     15 H          -2.8920    2.9503    0.0019 H       1  LIG1        0.0655
     16 H          -1.3361    5.2016    0.0033 H       1  LIG1        0.0649
@<TRIPOS>BOND
     1     7     2    1
     2     6     1    1
     3     2     1   ar
     4     2     3   ar
     5     1     5   ar
     6     8     3    1
     7     3     4   ar
     8     5     4   ar
     9     4     9    1
    10     9    13   ar
    11     9    10   ar
    12    13    12   ar
    13    15    10    1
    14    10    11   ar
    15    12    11   ar
    16    12    14    1
    17    11    16    1
