@<TRIPOS>MOLECULE
mol_data/opt/cam/geoms/mol2/512-12-13-.out
 31 34 0 0 0
SMALL
GASTEIGER

@<TRIPOS>ATOM
      1 C          -2.4037   -1.8227   -0.0004 C.ar    1  LIG1       -0.0236
      2 C          -1.0453   -1.8867   -0.0007 C.ar    1  LIG1       -0.0540
      3 C          -0.4327   -0.6024   -0.0001 C.ar    1  LIG1       -0.0440
      4 C          -1.3406    0.4212    0.0008 C.ar    1  LIG1        0.0544
      5 S          -2.9669   -0.1909    0.0007 S.2     1  LIG1       -0.0936
      6 H          -3.1135   -2.6369   -0.0007 H       1  LIG1        0.0693
      7 H          -0.4924   -2.8178   -0.0014 H       1  LIG1        0.0623
      8 H           0.6356   -0.4310   -0.0002 H       1  LIG1        0.0630
      9 C          -1.0723    1.8396    0.0016 C.ar    1  LIG1        0.1424
     10 C          -1.8598    2.9537    0.0021 C.ar    1  LIG1       -0.0146
     11 C          -0.9828    4.0722    0.0028 C.ar    1  LIG1       -0.0121
     12 C           0.2848    3.5657    0.0026 C.ar    1  LIG1        0.1706
     13 O           0.2405    2.2067    0.0019 O.2     1  LIG1       -0.4512
     14 H          -2.9395    2.9723    0.0020 H       1  LIG1        0.0656
     15 H          -1.2543    5.1168    0.0034 H       1  LIG1        0.0657
     16 C           1.5831    4.1862    0.0030 C.ar    1  LIG1        0.1706
     17 C           1.9908    5.4875    0.0034 C.ar    1  LIG1       -0.0121
     18 C           3.4135    5.4680    0.0037 C.ar    1  LIG1       -0.0137
     19 C           3.7829    4.1553    0.0036 C.ar    1  LIG1        0.1519
     20 O           2.6715    3.3649    0.0031 O.2     1  LIG1       -0.4503
     21 H           1.3500    6.3564    0.0033 H       1  LIG1        0.0657
     22 H           4.0790    6.3175    0.0041 H       1  LIG1        0.0656
     23 C           5.0464    3.4614    0.0038 C.ar    1  LIG1        0.0821
     24 C           6.3484    3.9198    0.0042 C.ar    1  LIG1       -0.0334
     25 C           7.1955    2.7855    0.0042 C.ar    1  LIG1       -0.0437
     26 C           6.3919    1.6707    0.0037 C.ar    1  LIG1        0.0023
     27 N           5.0925    2.0900    0.0034 N.ar    1  LIG1       -0.3583
     28 H           4.2723    1.5057    0.0031 H       1  LIG1        0.1654
     29 H           6.6406    0.6207    0.0036 H       1  LIG1        0.0807
     30 H           6.6506    4.9568    0.0045 H       1  LIG1        0.0640
     31 H           8.2754    2.7865    0.0045 H       1  LIG1        0.0633
@<TRIPOS>BOND
     1     7     2    1
     2     2     1   ar
     3     2     3   ar
     4     6     1    1
     5     1     5   ar
     6     8     3    1
     7     3     4   ar
     8     5     4   ar
     9     4     9    1
    10     9    13   ar
    11     9    10   ar
    12    13    12   ar
    13    14    10    1
    14    10    11   ar
    15    12    11   ar
    16    12    16    1
    17    11    15    1
    18    16    20   ar
    19    16    17   ar
    20    28    27    1
    21    20    19   ar
    22    21    17    1
    23    17    18   ar
    24    27    26   ar
    25    27    23   ar
    26    29    26    1
    27    19    18   ar
    28    19    23    1
    29    26    25   ar
    30    18    22    1
    31    23    24   ar
    32    25    24   ar
    33    25    31    1
    34    24    30    1
