@<TRIPOS>MOLECULE
mol_data/opt/cam/geoms/mol2/512-13-.out
 24 26 0 0 0
SMALL
GASTEIGER

@<TRIPOS>ATOM
      1 C          -2.1522   -1.8515   -0.0001 C.ar    1  LIG1       -0.0236
      2 C          -0.7926   -1.8556   -0.0004 C.ar    1  LIG1       -0.0540
      3 C          -0.2369   -0.5454    0.0002 C.ar    1  LIG1       -0.0440
      4 C          -1.1881    0.4385    0.0008 C.ar    1  LIG1        0.0544
      5 S          -2.7859   -0.2453    0.0007 S.2     1  LIG1       -0.0936
      6 H          -2.8257   -2.6960   -0.0005 H       1  LIG1        0.0693
      7 H          -0.1991   -2.7614   -0.0009 H       1  LIG1        0.0623
      8 H           0.8237   -0.3316    0.0001 H       1  LIG1        0.0630
      9 C          -0.9872    1.8679    0.0015 C.ar    1  LIG1        0.1423
     10 C          -1.8244    2.9429    0.0020 C.ar    1  LIG1       -0.0147
     11 C          -1.0031    4.1058    0.0025 C.ar    1  LIG1       -0.0138
     12 C           0.2872    3.6677    0.0024 C.ar    1  LIG1        0.1518
     13 O           0.3089    2.3029    0.0018 O.2     1  LIG1       -0.4528
     14 H          -2.9038    2.9087    0.0019 H       1  LIG1        0.0656
     15 H          -1.3266    5.1353    0.0029 H       1  LIG1        0.0656
     16 C           1.5713    4.3236    0.0028 C.ar    1  LIG1        0.0821
     17 C           1.9177    5.6596    0.0033 C.ar    1  LIG1       -0.0334
     18 C           3.3318    5.7301    0.0040 C.ar    1  LIG1       -0.0437
     19 C           3.8089    4.4418    0.0027 C.ar    1  LIG1        0.0023
     20 N           2.7355    3.5971    0.0025 N.ar    1  LIG1       -0.3583
     21 H           2.7655    2.5910    0.0021 H       1  LIG1        0.1654
     22 H           4.8190    4.0622    0.0024 H       1  LIG1        0.0807
     23 H           1.2257    6.4888    0.0036 H       1  LIG1        0.0640
     24 H           3.9332    6.6271    0.0048 H       1  LIG1        0.0633
@<TRIPOS>BOND
     1     7     2    1
     2     6     1    1
     3     2     1   ar
     4     2     3   ar
     5     1     5   ar
     6     8     3    1
     7     3     4   ar
     8     5     4   ar
     9     4     9    1
    10     9    13   ar
    11     9    10   ar
    12    13    12   ar
    13    14    10    1
    14    10    11   ar
    15    21    20    1
    16    12    11   ar
    17    12    16    1
    18    22    19    1
    19    11    15    1
    20    20    19   ar
    21    20    16   ar
    22    19    18   ar
    23    16    17   ar
    24    17    23    1
    25    17    18   ar
    26    18    24    1
