@<TRIPOS>MOLECULE
mol_data/opt/cam/geoms/mol2/512-12.out
 23 25 0 0 0
SMALL
GASTEIGER

@<TRIPOS>ATOM
      1 C          -2.1367   -1.8412   -0.0002 C.ar    1  LIG1       -0.0236
      2 C          -0.7767   -1.8447   -0.0005 C.ar    1  LIG1       -0.0540
      3 C          -0.2220   -0.5342    0.0001 C.ar    1  LIG1       -0.0440
      4 C          -1.1750    0.4474    0.0007 C.ar    1  LIG1        0.0544
      5 S          -2.7723   -0.2363    0.0003 S.2     1  LIG1       -0.0936
      6 H          -2.8095   -2.6863   -0.0005 H       1  LIG1        0.0693
      7 H          -0.1827   -2.7501   -0.0009 H       1  LIG1        0.0623
      8 H           0.8378   -0.3161    0.0001 H       1  LIG1        0.0630
      9 C          -0.9704    1.8769    0.0015 C.ar    1  LIG1        0.1424
     10 C          -1.8066    2.9545    0.0018 C.ar    1  LIG1       -0.0146
     11 C          -0.9802    4.1128    0.0027 C.ar    1  LIG1       -0.0121
     12 C           0.3052    3.6619    0.0025 C.ar    1  LIG1        0.1706
     13 O           0.3253    2.3021    0.0019 O.2     1  LIG1       -0.4512
     14 H          -2.8861    2.9235    0.0016 H       1  LIG1        0.0656
     15 H          -1.2888    5.1465    0.0032 H       1  LIG1        0.0657
     16 C           1.5813    4.3263    0.0030 C.ar    1  LIG1        0.1697
     17 C           2.8667    3.8766    0.0031 C.ar    1  LIG1       -0.0128
     18 C           3.6927    5.0417    0.0037 C.ar    1  LIG1       -0.0232
     19 C           2.8509    6.1031    0.0040 C.ar    1  LIG1        0.0927
     20 O           1.5585    5.6858    0.0037 O.2     1  LIG1       -0.4598
     21 H           2.9996    7.1708    0.0045 H       1  LIG1        0.1029
     22 H           3.1772    2.8434    0.0027 H       1  LIG1        0.0656
     23 H           4.7716    5.0785    0.0040 H       1  LIG1        0.0649
@<TRIPOS>BOND
     1     7     2    1
     2     6     1    1
     3     2     1   ar
     4     2     3   ar
     5     1     5   ar
     6     3     8    1
     7     3     4   ar
     8     5     4   ar
     9     4     9    1
    10     9    10   ar
    11     9    13   ar
    12    14    10    1
    13    10    11   ar
    14    13    12   ar
    15    12    11   ar
    16    12    16    1
    17    11    15    1
    18    22    17    1
    19    16    17   ar
    20    16    20   ar
    21    17    18   ar
    22    20    19   ar
    23    18    23    1
    24    18    19   ar
    25    19    21    1
