@<TRIPOS>MOLECULE
mol_data/opt/cam/geoms/mol2/512-12-.out
 23 25 0 0 0
SMALL
GASTEIGER

@<TRIPOS>ATOM
      1 C          -2.1931   -1.8370   -0.0003 C.ar    1  LIG1       -0.0236
      2 C          -0.8334   -1.8629   -0.0006 C.ar    1  LIG1       -0.0540
      3 C          -0.2566   -0.5620    0.0001 C.ar    1  LIG1       -0.0440
      4 C          -1.1935    0.4349    0.0007 C.ar    1  LIG1        0.0544
      5 S          -2.8022   -0.2217    0.0002 S.2     1  LIG1       -0.0936
      6 H          -2.8798   -2.6709   -0.0006 H       1  LIG1        0.0693
      7 H          -0.2546   -2.7781   -0.0010 H       1  LIG1        0.0623
      8 H           0.8065   -0.3599    0.0001 H       1  LIG1        0.0630
      9 C          -0.9630    1.8604    0.0015 C.ar    1  LIG1        0.1424
     10 C          -1.7791    2.9538    0.0019 C.ar    1  LIG1       -0.0146
     11 C          -0.9292    4.0937    0.0028 C.ar    1  LIG1       -0.0121
     12 C           0.3494    3.6185    0.0026 C.ar    1  LIG1        0.1706
     13 O           0.3387    2.2598    0.0019 O.2     1  LIG1       -0.4512
     14 H          -2.8589    2.9452    0.0017 H       1  LIG1        0.0656
     15 H          -1.2263    5.1315    0.0034 H       1  LIG1        0.0657
     16 C           1.6347    4.2727    0.0031 C.ar    1  LIG1        0.1697
     17 C           2.0002    5.5866    0.0036 C.ar    1  LIG1       -0.0128
     18 C           3.4270    5.6022    0.0039 C.ar    1  LIG1       -0.0232
     19 C           3.8181    4.3048    0.0038 C.ar    1  LIG1        0.0927
     20 O           2.7397    3.4824    0.0031 O.2     1  LIG1       -0.4598
     21 H           4.7799    3.8179    0.0039 H       1  LIG1        0.1029
     22 H           1.3345    6.4364    0.0036 H       1  LIG1        0.0656
     23 H           4.0716    6.4681    0.0043 H       1  LIG1        0.0649
@<TRIPOS>BOND
     1     7     2    1
     2     6     1    1
     3     2     1   ar
     4     2     3   ar
     5     1     5   ar
     6     3     8    1
     7     3     4   ar
     8     5     4   ar
     9     4     9    1
    10     9    13   ar
    11     9    10   ar
    12    14    10    1
    13    13    12   ar
    14    10    11   ar
    15    12    11   ar
    16    12    16    1
    17    11    15    1
    18    16    20   ar
    19    16    17   ar
    20    20    19   ar
    21    17    22    1
    22    17    18   ar
    23    19    21    1
    24    19    18   ar
    25    18    23    1
