@<TRIPOS>MOLECULE
mol_data/opt/cam/geoms/mol2/512-12-4-.out
 33 36 0 0 0
SMALL
GASTEIGER

@<TRIPOS>ATOM
      1 C          -2.5053   -1.7962   -0.0002 C.ar    1  LIG1       -0.0236
      2 C          -1.1477   -1.8775   -0.0007 C.ar    1  LIG1       -0.0540
      3 C          -0.5185   -0.6013   -0.0001 C.ar    1  LIG1       -0.0440
      4 C          -1.4139    0.4331    0.0008 C.ar    1  LIG1        0.0544
      5 S          -3.0480   -0.1575    0.0009 S.2     1  LIG1       -0.0936
      6 H          -3.2254   -2.6013   -0.0005 H       1  LIG1        0.0693
      7 H          -0.6068   -2.8156   -0.0015 H       1  LIG1        0.0623
      8 H           0.5520   -0.4430   -0.0003 H       1  LIG1        0.0630
      9 C          -1.1251    1.8478    0.0017 C.ar    1  LIG1        0.1424
     10 C          -1.8957    2.9742    0.0024 C.ar    1  LIG1       -0.0146
     11 C          -1.0005    4.0781    0.0030 C.ar    1  LIG1       -0.0121
     12 C           0.2585    3.5510    0.0026 C.ar    1  LIG1        0.1706
     13 O           0.1920    2.1935    0.0018 O.2     1  LIG1       -0.4512
     14 H          -2.9749    3.0097    0.0024 H       1  LIG1        0.0656
     15 H          -1.2549    5.1271    0.0037 H       1  LIG1        0.0657
     16 C           1.5674    4.1509    0.0029 C.ar    1  LIG1        0.1706
     17 C           1.9898    5.4488    0.0033 C.ar    1  LIG1       -0.0122
     18 C           3.4101    5.4037    0.0034 C.ar    1  LIG1       -0.0151
     19 C           3.7644    4.0854    0.0031 C.ar    1  LIG1        0.1358
     20 O           2.6386    3.3175    0.0027 O.2     1  LIG1       -0.4517
     21 H           1.3618    6.3268    0.0034 H       1  LIG1        0.0657
     22 H           4.0821    6.2483    0.0037 H       1  LIG1        0.0656
     23 C           6.2442    4.1018    0.0031 C.ar    1  LIG1       -0.0511
     24 C           7.4603    3.4363    0.0030 C.ar    1  LIG1       -0.0611
     25 C           5.0427    3.3850    0.0030 C.ar    1  LIG1        0.0173
     26 C           7.4995    2.0455    0.0029 C.ar    1  LIG1       -0.0617
     27 H           8.3835    4.0067    0.0031 H       1  LIG1        0.0618
     28 C           5.0894    1.9874    0.0029 C.ar    1  LIG1       -0.0511
     29 C           6.3097    1.3266    0.0029 C.ar    1  LIG1       -0.0611
     30 H           4.1617    1.4273    0.0028 H       1  LIG1        0.0625
     31 H           8.4522    1.5264    0.0029 H       1  LIG1        0.0618
     32 H           6.2252    5.1866    0.0031 H       1  LIG1        0.0625
     33 H           6.3305    0.2416    0.0028 H       1  LIG1        0.0618
@<TRIPOS>BOND
     1     7     2    1
     2     2     1   ar
     3     2     3   ar
     4     6     1    1
     5     8     3    1
     6     1     5   ar
     7     3     4   ar
     8     4     5   ar
     9     4     9    1
    10     9    13   ar
    11     9    10   ar
    12    13    12   ar
    13    10    14    1
    14    10    11   ar
    15    12    16    1
    16    12    11   ar
    17    20    16   ar
    18    20    19   ar
    19    33    29    1
    20    30    28    1
    21    29    28   ar
    22    29    26   ar
    23    16    17   ar
    24    31    26    1
    25    28    25   ar
    26    26    24   ar
    27    25    19    1
    28    25    23   ar
    29    11    15    1
    30    24    23   ar
    31    24    27    1
    32    19    18   ar
    33    23    32    1
    34    17    18   ar
    35    17    21    1
    36    18    22    1
