@<TRIPOS>MOLECULE
mol_data/opt/cam/geoms/mol2/512.out
 16 17 0 0 0
SMALL
GASTEIGER

@<TRIPOS>ATOM
      1 C          -2.0306   -1.8134   -0.0003 C.ar    1  LIG1       -0.0236
      2 C          -0.6708   -1.7724   -0.0006 C.ar    1  LIG1       -0.0540
      3 C          -0.1627   -0.4444    0.0000 C.ar    1  LIG1       -0.0440
      4 C          -1.1481    0.5050    0.0008 C.ar    1  LIG1        0.0544
      5 S          -2.7209   -0.2333    0.0008 S.2     1  LIG1       -0.0936
      6 H          -2.6732   -2.6817   -0.0007 H       1  LIG1        0.0693
      7 H          -0.0456   -2.6567   -0.0012 H       1  LIG1        0.0623
      8 H           0.8926   -0.2005   -0.0001 H       1  LIG1        0.0630
      9 C          -1.0017    1.9438    0.0015 C.ar    1  LIG1        0.1413
     10 C           0.0764    2.7778    0.0020 C.ar    1  LIG1       -0.0154
     11 C          -0.4421    4.1079    0.0027 C.ar    1  LIG1       -0.0233
     12 C          -1.7909    3.9880    0.0025 C.ar    1  LIG1        0.0926
     13 O          -2.1480    2.6787    0.0018 O.2     1  LIG1       -0.4624
     14 H          -2.6026    4.6973    0.0028 H       1  LIG1        0.1029
     15 H           1.1139    2.4800    0.0020 H       1  LIG1        0.0655
     16 H           0.1205    5.0293    0.0032 H       1  LIG1        0.0649
@<TRIPOS>BOND
     1     7     2    1
     2     6     1    1
     3     2     1   ar
     4     2     3   ar
     5     1     5   ar
     6     8     3    1
     7     3     4   ar
     8     5     4   ar
     9     4     9    1
    10     9    13   ar
    11     9    10   ar
    12    13    12   ar
    13    15    10    1
    14    10    11   ar
    15    12    11   ar
    16    12    14    1
    17    11    16    1
