@<TRIPOS>MOLECULE
mol_data/opt/cam/geoms/mol2/512138.out
 30 33 0 0 0
SMALL
GASTEIGER

@<TRIPOS>ATOM
      1 C          -1.9363   -1.9005    0.0001 C.ar    1  LIG1       -0.0236
      2 C          -0.5764   -1.8414   -0.0008 C.ar    1  LIG1       -0.0540
      3 C          -0.0857   -0.5074   -0.0004 C.ar    1  LIG1       -0.0440
      4 C          -1.0855    0.4286    0.0006 C.ar    1  LIG1        0.0544
      5 S          -2.6478   -0.3308    0.0009 S.2     1  LIG1       -0.0936
      6 H          -2.5670   -2.7775    0.0001 H       1  LIG1        0.0693
      7 H           0.0602   -2.7173   -0.0015 H       1  LIG1        0.0623
      8 H           0.9663   -0.2500   -0.0009 H       1  LIG1        0.0630
      9 C          -0.9562    1.8664    0.0014 C.ar    1  LIG1        0.1423
     10 C           0.1117    2.7159    0.0016 C.ar    1  LIG1       -0.0147
     11 C          -0.4157    4.0366    0.0025 C.ar    1  LIG1       -0.0138
     12 C          -1.7730    3.9121    0.0026 C.ar    1  LIG1        0.1518
     13 O          -2.1115    2.5907    0.0020 O.2     1  LIG1       -0.4528
     14 H           1.1526    2.4303    0.0013 H       1  LIG1        0.0656
     15 H           0.1396    4.9622    0.0029 H       1  LIG1        0.0656
     16 C          -2.8651    4.8507    0.0034 C.ar    1  LIG1        0.0826
     17 C          -2.8688    6.2414    0.0040 C.ar    1  LIG1       -0.0327
     18 C          -4.2089    6.6583    0.0043 C.ar    1  LIG1       -0.0325
     19 C          -4.9953    5.5182    0.0046 C.ar    1  LIG1        0.0880
     20 N          -4.1589    4.4316    0.0037 N.ar    1  LIG1       -0.3492
     21 H          -4.4759    3.4730    0.0035 H       1  LIG1        0.1661
     22 H          -1.9922    6.8718    0.0039 H       1  LIG1        0.0640
     23 H          -4.5856    7.6696    0.0047 H       1  LIG1        0.0640
     24 C          -6.4242    5.3490    0.0052 C.ar    1  LIG1        0.2193
     25 N          -7.1991    6.4517    0.0057 N.ar    1  LIG1       -0.1243
     26 C          -8.9469    5.0180    0.0058 C.ar    1  LIG1        0.1605
     27 N          -6.8937    4.0879    0.0050 N.ar    1  LIG1       -0.1243
     28 N          -8.4933    6.2744    0.0061 N.ar    1  LIG1       -0.1338
     29 N          -8.1928    3.9213    0.0054 N.ar    1  LIG1       -0.1338
     30 H         -10.0218    4.8812    0.0065 H       1  LIG1        0.1085
@<TRIPOS>BOND
     1     7     2    1
     2     8     3    1
     3     2     3   ar
     4     2     1   ar
     5     3     4   ar
     6     1     6    1
     7     1     5   ar
     8     4     5   ar
     9     4     9    1
    10    14    10    1
    11     9    10   ar
    12     9    13   ar
    13    10    11   ar
    14    13    12   ar
    15    11    12   ar
    16    11    15    1
    17    12    16    1
    18    16    20   ar
    19    16    17   ar
    20    21    20    1
    21    20    19   ar
    22    22    17    1
    23    17    18   ar
    24    18    19   ar
    25    18    23    1
    26    19    24    1
    27    27    24   ar
    28    27    29   ar
    29    24    25   ar
    30    29    26   ar
    31    25    28   ar
    32    26    28   ar
    33    26    30    1
