@<TRIPOS>MOLECULE
mol_data/opt/cam/geoms/mol2/51213-.out
 24 26 0 0 0
SMALL
GASTEIGER

@<TRIPOS>ATOM
      1 C          -1.9709   -1.8892   -0.0003 C.ar    1  LIG1       -0.0236
      2 C          -0.6112   -1.8326   -0.0004 C.ar    1  LIG1       -0.0540
      3 C          -0.1176   -0.4992    0.0002 C.ar    1  LIG1       -0.0440
      4 C          -1.1150    0.4395    0.0008 C.ar    1  LIG1        0.0544
      5 S          -2.6789   -0.3170    0.0007 S.2     1  LIG1       -0.0936
      6 H          -2.6029   -2.7653   -0.0007 H       1  LIG1        0.0693
      7 H           0.0241   -2.7095   -0.0010 H       1  LIG1        0.0623
      8 H           0.9349   -0.2440    0.0001 H       1  LIG1        0.0630
      9 C          -0.9849    1.8776    0.0014 C.ar    1  LIG1        0.1423
     10 C           0.0822    2.7256    0.0020 C.ar    1  LIG1       -0.0147
     11 C          -0.4494    4.0465    0.0025 C.ar    1  LIG1       -0.0138
     12 C          -1.8085    3.9199    0.0023 C.ar    1  LIG1        0.1518
     13 O          -2.1410    2.6016    0.0017 O.2     1  LIG1       -0.4528
     14 H           1.1236    2.4419    0.0020 H       1  LIG1        0.0656
     15 H           0.1147    4.9676    0.0031 H       1  LIG1        0.0656
     16 C          -2.9031    4.8580    0.0027 C.ar    1  LIG1        0.0821
     17 C          -4.2655    4.6447    0.0030 C.ar    1  LIG1       -0.0334
     18 C          -4.8949    5.9135    0.0029 C.ar    1  LIG1       -0.0437
     19 C          -3.9048    6.8641    0.0034 C.ar    1  LIG1        0.0023
     20 N          -2.6996    6.2172    0.0029 N.ar    1  LIG1       -0.3583
     21 H          -1.7999    6.6670    0.0028 H       1  LIG1        0.1654
     22 H          -3.9585    7.9419    0.0037 H       1  LIG1        0.0807
     23 H          -4.7413    3.6759    0.0030 H       1  LIG1        0.0640
     24 H          -5.9572    6.1073    0.0028 H       1  LIG1        0.0633
@<TRIPOS>BOND
     1     7     2    1
     2     6     1    1
     3     2     1   ar
     4     2     3   ar
     5     1     5   ar
     6     8     3    1
     7     3     4   ar
     8     5     4   ar
     9     4     9    1
    10     9    13   ar
    11     9    10   ar
    12    13    12   ar
    13    10    14    1
    14    10    11   ar
    15    12    11   ar
    16    12    16    1
    17    11    15    1
    18    16    20   ar
    19    16    17   ar
    20    21    20    1
    21    24    18    1
    22    20    19   ar
    23    18    17   ar
    24    18    19   ar
    25    17    23    1
    26    19    22    1
