@<TRIPOS>MOLECULE
mol_data/opt/cam/geoms/mol2/51213-12.out
 31 34 0 0 0
SMALL
GASTEIGER

@<TRIPOS>ATOM
      1 C          -1.9357   -1.9412    0.0000 C.ar    1  LIG1       -0.0236
      2 C          -0.5763   -1.8756   -0.0000 C.ar    1  LIG1       -0.0540
      3 C          -0.0918   -0.5391    0.0004 C.ar    1  LIG1       -0.0440
      4 C          -1.0955    0.3928    0.0009 C.ar    1  LIG1        0.0544
      5 S          -2.6543   -0.3741    0.0008 S.2     1  LIG1       -0.0936
      6 H          -2.5618   -2.8215   -0.0003 H       1  LIG1        0.0693
      7 H           0.0647   -2.7484   -0.0004 H       1  LIG1        0.0623
      8 H           0.9590   -0.2770    0.0004 H       1  LIG1        0.0630
      9 C          -0.9742    1.8315    0.0014 C.ar    1  LIG1        0.1423
     10 C           0.0886    2.6856    0.0019 C.ar    1  LIG1       -0.0147
     11 C          -0.4496    4.0030    0.0023 C.ar    1  LIG1       -0.0138
     12 C          -1.8085    3.8693    0.0020 C.ar    1  LIG1        0.1518
     13 O          -2.1340    2.5488    0.0015 O.2     1  LIG1       -0.4528
     14 H           1.1314    2.4073    0.0020 H       1  LIG1        0.0656
     15 H           0.1098    4.9270    0.0028 H       1  LIG1        0.0656
     16 C          -2.9060    4.8005    0.0022 C.ar    1  LIG1        0.0826
     17 C          -4.2692    4.5794    0.0024 C.ar    1  LIG1       -0.0327
     18 C          -4.9057    5.8385    0.0025 C.ar    1  LIG1       -0.0327
     19 C          -3.9202    6.8052    0.0025 C.ar    1  LIG1        0.0826
     20 N          -2.7092    6.1598    0.0023 N.ar    1  LIG1       -0.3494
     21 H          -1.8120    6.6149    0.0023 H       1  LIG1        0.1661
     22 H          -4.7393    3.6079    0.0024 H       1  LIG1        0.0640
     23 H          -5.9667    6.0356    0.0027 H       1  LIG1        0.0640
     24 C          -4.0207    8.2439    0.0027 C.ar    1  LIG1        0.1509
     25 C          -3.1065    9.2564    0.0025 C.ar    1  LIG1       -0.0144
     26 C          -3.8545   10.4740    0.0028 C.ar    1  LIG1       -0.0233
     27 C          -5.1592   10.1140    0.0031 C.ar    1  LIG1        0.0926
     28 O          -5.2779    8.7609    0.0030 O.2     1  LIG1       -0.4615
     29 H          -6.0843   10.6673    0.0034 H       1  LIG1        0.1029
     30 H          -2.0308    9.1588    0.0021 H       1  LIG1        0.0656
     31 H          -3.4650   11.4808    0.0028 H       1  LIG1        0.0649
@<TRIPOS>BOND
     1     7     2    1
     2     6     1    1
     3     2     1   ar
     4     2     3   ar
     5     1     5   ar
     6     8     3    1
     7     3     4   ar
     8     5     4   ar
     9     4     9    1
    10     9    13   ar
    11     9    10   ar
    12    13    12   ar
    13    10    14    1
    14    10    11   ar
    15    12    16    1
    16    12    11   ar
    17    30    25    1
    18    16    20   ar
    19    16    17   ar
    20    21    20    1
    21    20    19   ar
    22    11    15    1
    23    22    17    1
    24    17    18   ar
    25    25    24   ar
    26    25    26   ar
    27    19    18   ar
    28    19    24    1
    29    18    23    1
    30    24    28   ar
    31    31    26    1
    32    26    27   ar
    33    28    27   ar
    34    27    29    1
