@<TRIPOS>MOLECULE
mol_data/opt/cam/geoms/mol2/51212-.out
 23 25 0 0 0
SMALL
GASTEIGER

@<TRIPOS>ATOM
      1 C          -1.9878   -1.8719   -0.0000 C.ar    1  LIG1       -0.0236
      2 C          -0.6279   -1.8167   -0.0006 C.ar    1  LIG1       -0.0540
      3 C          -0.1333   -0.4839   -0.0001 C.ar    1  LIG1       -0.0440
      4 C          -1.1299    0.4554    0.0007 C.ar    1  LIG1        0.0544
      5 S          -2.6946   -0.2996    0.0005 S.2     1  LIG1       -0.0936
      6 H          -2.6206   -2.7474   -0.0001 H       1  LIG1        0.0693
      7 H           0.0065   -2.6943   -0.0011 H       1  LIG1        0.0623
      8 H           0.9194   -0.2294   -0.0003 H       1  LIG1        0.0630
      9 C          -0.9974    1.8933    0.0014 C.ar    1  LIG1        0.1424
     10 C           0.0732    2.7394    0.0020 C.ar    1  LIG1       -0.0146
     11 C          -0.4521    4.0617    0.0025 C.ar    1  LIG1       -0.0121
     12 C          -1.8085    3.9336    0.0025 C.ar    1  LIG1        0.1706
     13 O          -2.1521    2.6179    0.0018 O.2     1  LIG1       -0.4512
     14 H           1.1134    2.4511    0.0019 H       1  LIG1        0.0656
     15 H           0.0957    4.9911    0.0030 H       1  LIG1        0.0657
     16 C          -2.8886    4.8837    0.0030 C.ar    1  LIG1        0.1697
     17 C          -4.2440    4.7539    0.0030 C.ar    1  LIG1       -0.0128
     18 C          -4.7675    6.0827    0.0036 C.ar    1  LIG1       -0.0232
     19 C          -3.6965    6.9123    0.0041 C.ar    1  LIG1        0.0927
     20 O          -2.5412    6.1984    0.0035 O.2     1  LIG1       -0.4598
     21 H          -3.5858    7.9846    0.0046 H       1  LIG1        0.1029
     22 H          -4.7923    3.8246    0.0026 H       1  LIG1        0.0656
     23 H          -5.8064    6.3762    0.0037 H       1  LIG1        0.0649
@<TRIPOS>BOND
     1     7     2    1
     2     2     3   ar
     3     2     1   ar
     4     8     3    1
     5     3     4   ar
     6     6     1    1
     7     1     5   ar
     8     5     4   ar
     9     4     9    1
    10     9    13   ar
    11     9    10   ar
    12    13    12   ar
    13    14    10    1
    14    10    11   ar
    15    12    11   ar
    16    12    16    1
    17    11    15    1
    18    22    17    1
    19    16    17   ar
    20    16    20   ar
    21    17    18   ar
    22    20    19   ar
    23    18    23    1
    24    18    19   ar
    25    19    21    1
