@<TRIPOS>MOLECULE
mol_data/opt/cam/geoms/mol2/5124.out
 26 28 0 0 0
SMALL
GASTEIGER

@<TRIPOS>ATOM
      1 C          -1.9218   -1.9223   -0.0003 C.ar    1  LIG1       -0.0236
      2 C          -0.5627   -1.8507   -0.0011 C.ar    1  LIG1       -0.0540
      3 C          -0.0843   -0.5119   -0.0006 C.ar    1  LIG1       -0.0440
      4 C          -1.0920    0.4153    0.0006 C.ar    1  LIG1        0.0544
      5 S          -2.6473   -0.3585    0.0006 S.2     1  LIG1       -0.0936
      6 H          -2.5442   -2.8054   -0.0004 H       1  LIG1        0.0693
      7 H           0.0822   -2.7206   -0.0019 H       1  LIG1        0.0623
      8 H           0.9652   -0.2446   -0.0009 H       1  LIG1        0.0630
      9 C          -0.9772    1.8552    0.0016 C.ar    1  LIG1        0.1422
     10 C           0.0835    2.7130    0.0020 C.ar    1  LIG1       -0.0147
     11 C          -0.4615    4.0263    0.0029 C.ar    1  LIG1       -0.0152
     12 C          -1.8193    3.8928    0.0031 C.ar    1  LIG1        0.1357
     13 O          -2.1365    2.5666    0.0023 O.2     1  LIG1       -0.4543
     14 H           1.1275    2.4384    0.0017 H       1  LIG1        0.0656
     15 H           0.0910    4.9536    0.0034 H       1  LIG1        0.0656
     16 C          -2.6777    6.2186    0.0046 C.ar    1  LIG1       -0.0511
     17 C          -3.7280    7.1234    0.0054 C.ar    1  LIG1       -0.0611
     18 C          -2.9259    4.8416    0.0040 C.ar    1  LIG1        0.0173
     19 C          -5.0439    6.6713    0.0057 C.ar    1  LIG1       -0.0617
     20 H          -3.5183    8.1881    0.0059 H       1  LIG1        0.0618
     21 C          -4.2508    4.3946    0.0042 C.ar    1  LIG1       -0.0511
     22 C          -5.2985    5.3048    0.0051 C.ar    1  LIG1       -0.0611
     23 H          -4.4517    3.3298    0.0037 H       1  LIG1        0.0625
     24 H          -5.8648    7.3807    0.0063 H       1  LIG1        0.0618
     25 H          -1.6555    6.5825    0.0044 H       1  LIG1        0.0625
     26 H          -6.3214    4.9425    0.0052 H       1  LIG1        0.0618
@<TRIPOS>BOND
     1     7     2    1
     2     2     3   ar
     3     2     1   ar
     4     8     3    1
     5     3     4   ar
     6     6     1    1
     7     1     5   ar
     8     4     5   ar
     9     4     9    1
    10     9    10   ar
    11     9    13   ar
    12    14    10    1
    13    10    11   ar
    14    13    12   ar
    15    11    12   ar
    16    11    15    1
    17    12    18    1
    18    23    21    1
    19    18    21   ar
    20    18    16   ar
    21    21    22   ar
    22    25    16    1
    23    16    17   ar
    24    22    26    1
    25    22    19   ar
    26    17    19   ar
    27    17    20    1
    28    19    24    1
