@<TRIPOS>MOLECULE
mol_data/opt/cam/geoms/mol2/5124-8.out
 32 35 0 0 0
SMALL
GASTEIGER

@<TRIPOS>ATOM
      1 C          -1.8898   -1.9596    0.0000 C.ar    1  LIG1       -0.0236
      2 C          -0.5304   -1.8879    0.0002 C.ar    1  LIG1       -0.0540
      3 C          -0.0530   -0.5493    0.0008 C.ar    1  LIG1       -0.0440
      4 C          -1.0618    0.3770    0.0009 C.ar    1  LIG1        0.0544
      5 S          -2.6165   -0.3972    0.0000 S.2     1  LIG1       -0.0936
      6 H          -2.5117   -2.8429   -0.0003 H       1  LIG1        0.0693
      7 H           0.1145   -2.7577    0.0001 H       1  LIG1        0.0623
      8 H           0.9964   -0.2815    0.0011 H       1  LIG1        0.0630
      9 C          -0.9456    1.8165    0.0015 C.ar    1  LIG1        0.1422
     10 C           0.1190    2.6717    0.0024 C.ar    1  LIG1       -0.0147
     11 C          -0.4214    3.9850    0.0025 C.ar    1  LIG1       -0.0152
     12 C          -1.7806    3.8557    0.0018 C.ar    1  LIG1        0.1357
     13 O          -2.1017    2.5296    0.0011 O.2     1  LIG1       -0.4543
     14 H           1.1620    2.3941    0.0030 H       1  LIG1        0.0656
     15 H           0.1338    4.9107    0.0032 H       1  LIG1        0.0656
     16 C          -4.2092    4.3659    0.0008 C.ar    1  LIG1       -0.0504
     17 C          -5.2520    5.2750    0.0005 C.ar    1  LIG1       -0.0503
     18 C          -2.8803    4.8062    0.0015 C.ar    1  LIG1        0.0173
     19 C          -4.9946    6.6482    0.0010 C.ar    1  LIG1        0.0227
     20 H          -6.2789    4.9305   -0.0001 H       1  LIG1        0.0625
     21 C          -2.6279    6.1843    0.0020 C.ar    1  LIG1       -0.0504
     22 C          -3.6686    7.0931    0.0017 C.ar    1  LIG1       -0.0503
     23 H          -1.6058    6.5467    0.0025 H       1  LIG1        0.0625
     24 H          -4.4170    3.3028    0.0004 H       1  LIG1        0.0625
     25 H          -3.4685    8.1575    0.0021 H       1  LIG1        0.0625
     26 C          -6.1037    7.6154    0.0008 C.ar    1  LIG1        0.2033
     27 N          -5.8013    8.9241    0.0011 N.ar    1  LIG1       -0.1258
     28 C          -8.0261    9.2923   -0.0001 C.ar    1  LIG1        0.1605
     29 N          -7.3593    7.1380   -0.0000 N.ar    1  LIG1       -0.1258
     30 N          -6.7886    9.7844    0.0007 N.ar    1  LIG1       -0.1339
     31 N          -8.3455    7.9993   -0.0004 N.ar    1  LIG1       -0.1339
     32 H          -8.8430   10.0048   -0.0001 H       1  LIG1        0.1085
@<TRIPOS>BOND
     1    31    28   ar
     2    31    29   ar
     3     6     1    1
     4    28    32    1
     5    28    30   ar
     6    20    17    1
     7    29    26   ar
     8     1     5   ar
     9     1     2   ar
    10     5     4   ar
    11     7     2    1
    12     2     3   ar
    13    24    16    1
    14    17    16   ar
    15    17    19   ar
    16    30    27   ar
    17     3     4   ar
    18     3     8    1
    19    16    18   ar
    20    26    19    1
    21    26    27   ar
    22     4     9    1
    23    19    22   ar
    24    13     9   ar
    25    13    12   ar
    26     9    10   ar
    27    18    12    1
    28    18    21   ar
    29    22    21   ar
    30    22    25    1
    31    12    11   ar
    32    21    23    1
    33    10    11   ar
    34    10    14    1
    35    11    15    1
