@<TRIPOS>MOLECULE
mol_data/opt/cam/geoms/mol2/5124-.out
 26 28 0 0 0
SMALL
GASTEIGER

@<TRIPOS>ATOM
      1 C          -1.9520   -1.9118   -0.0002 C.ar    1  LIG1       -0.0236
      2 C          -0.5923   -1.8515   -0.0003 C.ar    1  LIG1       -0.0540
      3 C          -0.1028   -0.5167    0.0002 C.ar    1  LIG1       -0.0440
      4 C          -1.1027    0.4189    0.0006 C.ar    1  LIG1        0.0544
      5 S          -2.6644   -0.3419    0.0001 S.2     1  LIG1       -0.0936
      6 H          -2.5817   -2.7896   -0.0004 H       1  LIG1        0.0693
      7 H           0.0453   -2.7267   -0.0006 H       1  LIG1        0.0623
      8 H           0.9489   -0.2581    0.0003 H       1  LIG1        0.0630
      9 C          -0.9760    1.8578    0.0013 C.ar    1  LIG1        0.1422
     10 C           0.0919    2.7066    0.0022 C.ar    1  LIG1       -0.0147
     11 C          -0.4422    4.0245    0.0025 C.ar    1  LIG1       -0.0152
     12 C          -1.8010    3.9023    0.0020 C.ar    1  LIG1        0.1357
     13 O          -2.1293    2.5788    0.0012 O.2     1  LIG1       -0.4543
     14 H           1.1335    2.4235    0.0025 H       1  LIG1        0.0656
     15 H           0.1180    4.9471    0.0031 H       1  LIG1        0.0656
     16 C          -4.2283    4.4243    0.0016 C.ar    1  LIG1       -0.0511
     17 C          -5.2684    5.3432    0.0016 C.ar    1  LIG1       -0.0611
     18 C          -2.8997    4.8603    0.0020 C.ar    1  LIG1        0.0173
     19 C          -5.0024    6.7075    0.0021 C.ar    1  LIG1       -0.0617
     20 H          -6.2943    4.9894    0.0013 H       1  LIG1        0.0618
     21 C          -2.6400    6.2352    0.0025 C.ar    1  LIG1       -0.0511
     22 C          -3.6828    7.1486    0.0026 C.ar    1  LIG1       -0.0611
     23 H          -1.6149    6.5906    0.0028 H       1  LIG1        0.0625
     24 H          -5.8174    7.4237    0.0022 H       1  LIG1        0.0618
     25 H          -4.4380    3.3612    0.0012 H       1  LIG1        0.0625
     26 H          -3.4642    8.2116    0.0029 H       1  LIG1        0.0618
@<TRIPOS>BOND
     1     7     2    1
     2     6     1    1
     3     2     1   ar
     4     2     3   ar
     5     1     5   ar
     6     5     4   ar
     7     3     8    1
     8     3     4   ar
     9     4     9    1
    10    25    16    1
    11    13     9   ar
    12    13    12   ar
    13    20    17    1
    14     9    10   ar
    15    16    17   ar
    16    16    18   ar
    17    17    19   ar
    18    12    18    1
    19    12    11   ar
    20    18    21   ar
    21    19    24    1
    22    19    22   ar
    23    10    14    1
    24    10    11   ar
    25    11    15    1
    26    21    22   ar
    27    21    23    1
    28    22    26    1
