@<TRIPOS>MOLECULE
mol_data/opt/cam/geoms/mol2/5125-.out
 23 25 0 0 0
SMALL
GASTEIGER

@<TRIPOS>ATOM
      1 C          -1.9438   -1.9111   -0.0001 C.ar    1  LIG1       -0.0236
      2 C          -0.5845   -1.8408   -0.0007 C.ar    1  LIG1       -0.0540
      3 C          -0.1049   -0.5026   -0.0002 C.ar    1  LIG1       -0.0440
      4 C          -1.1120    0.4255    0.0006 C.ar    1  LIG1        0.0544
      5 S          -2.6680   -0.3469    0.0005 S.2     1  LIG1       -0.0936
      6 H          -2.5668   -2.7936   -0.0001 H       1  LIG1        0.0693
      7 H           0.0595   -2.7113   -0.0013 H       1  LIG1        0.0623
      8 H           0.9449   -0.2365   -0.0005 H       1  LIG1        0.0630
      9 C          -0.9951    1.8648    0.0015 C.ar    1  LIG1        0.1422
     10 C           0.0670    2.7210    0.0020 C.ar    1  LIG1       -0.0147
     11 C          -0.4738    4.0362    0.0026 C.ar    1  LIG1       -0.0147
     12 C          -1.8311    3.9006    0.0026 C.ar    1  LIG1        0.1422
     13 O          -2.1558    2.5775    0.0019 O.2     1  LIG1       -0.4538
     14 H           1.1103    2.4445    0.0019 H       1  LIG1        0.0656
     15 H           0.0744    4.9666    0.0030 H       1  LIG1        0.0656
     16 C          -2.9335    4.8329    0.0032 C.ar    1  LIG1        0.0544
     17 C          -4.2715    4.5471    0.0034 C.ar    1  LIG1       -0.0440
     18 C          -5.0864    5.7135    0.0041 C.ar    1  LIG1       -0.0540
     19 C          -4.3608    6.8637    0.0046 C.ar    1  LIG1       -0.0236
     20 S          -2.6635    6.5495    0.0036 S.2     1  LIG1       -0.0936
     21 H          -4.7192    7.8827    0.0052 H       1  LIG1        0.0693
     22 H          -4.6502    3.5334    0.0031 H       1  LIG1        0.0630
     23 H          -6.1690    5.6915    0.0045 H       1  LIG1        0.0623
@<TRIPOS>BOND
     1     7     2    1
     2     2     3   ar
     3     2     1   ar
     4     8     3    1
     5     3     4   ar
     6     6     1    1
     7     1     5   ar
     8     5     4   ar
     9     4     9    1
    10     9    13   ar
    11     9    10   ar
    12    14    10    1
    13    13    12   ar
    14    10    11   ar
    15    11    12   ar
    16    11    15    1
    17    12    16    1
    18    22    17    1
    19    16    17   ar
    20    16    20   ar
    21    17    18   ar
    22    20    19   ar
    23    18    23    1
    24    18    19   ar
    25    19    21    1
