@<TRIPOS>MOLECULE
mol_data/opt/cam/geoms/mol2/51254.out
 33 36 0 0 0
SMALL
GASTEIGER

@<TRIPOS>ATOM
      1 C          -1.8236   -1.9444    0.2487 C.ar    1  LIG1       -0.0236
      2 C          -0.4653   -1.8739    0.1965 C.ar    1  LIG1       -0.0540
      3 C           0.0106   -0.5380    0.1033 C.ar    1  LIG1       -0.0440
      4 C          -0.9986    0.3882    0.0861 C.ar    1  LIG1        0.0544
      5 S          -2.5516   -0.3834    0.1853 S.2     1  LIG1       -0.0936
      6 H          -2.4440   -2.8258    0.3214 H       1  LIG1        0.0693
      7 H           0.1803   -2.7428    0.2234 H       1  LIG1        0.0623
      8 H           1.0590   -0.2717    0.0510 H       1  LIG1        0.0630
      9 C          -0.8829    1.8246   -0.0007 C.ar    1  LIG1        0.1422
     10 C           0.1776    2.6788   -0.0899 C.ar    1  LIG1       -0.0147
     11 C          -0.3616    3.9930   -0.1449 C.ar    1  LIG1       -0.0147
     12 C          -1.7190    3.8610   -0.0870 C.ar    1  LIG1        0.1423
     13 O          -2.0417    2.5404    0.0013 O.2     1  LIG1       -0.4538
     14 H           1.2203    2.4007   -0.1131 H       1  LIG1        0.0656
     15 H           0.1866    4.9200   -0.2169 H       1  LIG1        0.0656
     16 C          -2.8105    4.8036   -0.1002 C.ar    1  LIG1        0.0550
     17 C          -2.7448    6.1679   -0.2063 C.ar    1  LIG1       -0.0434
     18 C          -4.0192    6.7867   -0.1860 C.ar    1  LIG1       -0.0462
     19 C          -5.0563    5.9013   -0.0650 C.ar    1  LIG1        0.0200
     20 S          -4.4573    4.2712    0.0347 S.2     1  LIG1       -0.0852
     21 H          -1.8126    6.7100   -0.3072 H       1  LIG1        0.0630
     22 H          -4.1666    7.8547   -0.2880 H       1  LIG1        0.0629
     23 C          -6.9476    7.4112    0.5012 C.ar    1  LIG1       -0.0535
     24 C          -8.3027    7.7059    0.5383 C.ar    1  LIG1       -0.0612
     25 C          -6.4948    6.1909   -0.0136 C.ar    1  LIG1       -0.0113
     26 C          -9.2346    6.7829    0.0762 C.ar    1  LIG1       -0.0617
     27 H          -8.6334    8.6574    0.9422 H       1  LIG1        0.0618
     28 C          -7.4418    5.2711   -0.4764 C.ar    1  LIG1       -0.0535
     29 C          -8.7977    5.5633   -0.4273 C.ar    1  LIG1       -0.0612
     30 H          -7.1113    4.3259   -0.8953 H       1  LIG1        0.0624
     31 H         -10.2945    7.0119    0.1114 H       1  LIG1        0.0618
     32 H          -6.2293    8.1233    0.8931 H       1  LIG1        0.0624
     33 H          -9.5157    4.8365   -0.7931 H       1  LIG1        0.0618
@<TRIPOS>BOND
     1    30    28    1
     2    33    29    1
     3    28    29   ar
     4    28    25   ar
     5    29    26   ar
     6    21    17    1
     7    22    18    1
     8    15    11    1
     9    17    18   ar
    10    17    16   ar
    11    18    19   ar
    12    11    10   ar
    13    11    12   ar
    14    14    10    1
    15    16    12    1
    16    16    20   ar
    17    10     9   ar
    18    12    13   ar
    19    19    25    1
    20    19    20   ar
    21    25    23   ar
    22     9    13   ar
    23     9     4    1
    24     8     3    1
    25    26    31    1
    26    26    24   ar
    27     4     3   ar
    28     4     5   ar
    29     3     2   ar
    30     5     1   ar
    31     2     7    1
    32     2     1   ar
    33     1     6    1
    34    23    24   ar
    35    23    32    1
    36    24    27    1
