@<TRIPOS>MOLECULE
mol_data/opt/cam/geoms/mol2/513-.out
 17 18 0 0 0
SMALL
GASTEIGER

@<TRIPOS>ATOM
      1 C          -2.0533   -1.8312    0.0001 C.ar    1  LIG1       -0.0237
      2 C          -0.6949   -1.8065   -0.0005 C.ar    1  LIG1       -0.0541
      3 C          -0.1687   -0.4828   -0.0002 C.ar    1  LIG1       -0.0455
      4 C          -1.1361    0.4863    0.0006 C.ar    1  LIG1        0.0354
      5 S          -2.7169   -0.2372    0.0007 S.2     1  LIG1       -0.0952
      6 H          -2.7087   -2.6898    0.0001 H       1  LIG1        0.0693
      7 H          -0.0801   -2.6980   -0.0011 H       1  LIG1        0.0623
      8 H           0.8944   -0.2711   -0.0006 H       1  LIG1        0.0629
      9 C          -0.9851    1.9294    0.0012 C.ar    1  LIG1        0.0531
     10 C          -1.9229    2.9419    0.0014 C.ar    1  LIG1       -0.0359
     11 C          -1.2287    4.1763    0.0023 C.ar    1  LIG1       -0.0438
     12 C           0.1131    3.8896    0.0020 C.ar    1  LIG1        0.0022
     13 N           0.2520    2.5293    0.0016 N.ar    1  LIG1       -0.3603
     14 H           1.1294    2.0378    0.0017 H       1  LIG1        0.1653
     15 H           0.9756    4.5382    0.0023 H       1  LIG1        0.0807
     16 H          -2.9946    2.8036    0.0011 H       1  LIG1        0.0639
     17 H          -1.6655    5.1637    0.0028 H       1  LIG1        0.0633
@<TRIPOS>BOND
     1     7     2    1
     2     8     3    1
     3     2     3   ar
     4     2     1   ar
     5     3     4   ar
     6     6     1    1
     7     1     5   ar
     8     4     5   ar
     9     4     9    1
    10    16    10    1
    11     9    10   ar
    12     9    13   ar
    13    10    11   ar
    14    13    14    1
    15    13    12   ar
    16    12    15    1
    17    12    11   ar
    18    11    17    1
