@<TRIPOS>MOLECULE
mol_data/opt/cam/geoms/mol2/513-4-.out
 27 29 0 0 0
SMALL
GASTEIGER

@<TRIPOS>ATOM
      1 C          -2.1803   -1.9034    0.0009 C.ar    1  LIG1       -0.0237
      2 C          -0.8214   -1.9065   -0.0002 C.ar    1  LIG1       -0.0541
      3 C          -0.2682   -0.5945   -0.0003 C.ar    1  LIG1       -0.0455
      4 C          -1.2162    0.3945    0.0008 C.ar    1  LIG1        0.0355
      5 S          -2.8117   -0.2968    0.0019 S.2     1  LIG1       -0.0952
      6 H          -2.8529   -2.7485    0.0013 H       1  LIG1        0.0693
      7 H          -0.2251   -2.8105   -0.0010 H       1  LIG1        0.0623
      8 H           0.7989   -0.4051   -0.0012 H       1  LIG1        0.0629
      9 C          -1.0358    1.8323    0.0010 C.ar    1  LIG1        0.0536
     10 C          -1.9544    2.8642    0.0016 C.ar    1  LIG1       -0.0353
     11 C          -1.2366    4.0773    0.0016 C.ar    1  LIG1       -0.0358
     12 C           0.1133    3.7774    0.0011 C.ar    1  LIG1        0.0469
     13 N           0.2100    2.4071    0.0008 N.ar    1  LIG1       -0.3537
     14 H           1.0720    1.8901    0.0004 H       1  LIG1        0.1659
     15 H          -3.0287    2.7497    0.0019 H       1  LIG1        0.0639
     16 H          -1.6641    5.0685    0.0020 H       1  LIG1        0.0639
     17 C           1.1204    6.0450    0.0007 C.ar    1  LIG1       -0.0526
     18 C           2.2152    6.8944    0.0005 C.ar    1  LIG1       -0.0611
     19 C           1.2850    4.6537    0.0009 C.ar    1  LIG1       -0.0017
     20 C           3.5076    6.3796    0.0006 C.ar    1  LIG1       -0.0617
     21 H           2.0578    7.9682    0.0003 H       1  LIG1        0.0618
     22 C           2.5911    4.1509    0.0010 C.ar    1  LIG1       -0.0526
     23 C           3.6876    5.0025    0.0008 C.ar    1  LIG1       -0.0611
     24 H           2.7718    3.0803    0.0013 H       1  LIG1        0.0624
     25 H           4.3642    7.0451    0.0004 H       1  LIG1        0.0618
     26 H           0.1207    6.4644    0.0005 H       1  LIG1        0.0624
     27 H           4.6889    4.5838    0.0009 H       1  LIG1        0.0618
@<TRIPOS>BOND
     1     8     3    1
     2     7     2    1
     3     3     2   ar
     4     3     4   ar
     5     2     1   ar
     6    21    18    1
     7    14    13    1
     8    25    20    1
     9    18    20   ar
    10    18    17   ar
    11    26    17    1
    12    20    23   ar
    13    17    19   ar
    14    13     9   ar
    15    13    12   ar
    16     4     9    1
    17     4     5   ar
    18    23    27    1
    19    23    22   ar
    20    19    22   ar
    21    19    12    1
    22     1     6    1
    23     1     5   ar
    24    22    24    1
    25     9    10   ar
    26    12    11   ar
    27    11    10   ar
    28    11    16    1
    29    10    15    1
