@<TRIPOS>MOLECULE
mol_data/opt/cam/geoms/mol2/513-512-.out
 31 34 0 0 0
SMALL
GASTEIGER

@<TRIPOS>ATOM
      1 C          -2.2186   -1.9386    0.0011 C.ar    1  LIG1       -0.0237
      2 C          -0.8597   -1.9524    0.0003 C.ar    1  LIG1       -0.0541
      3 C          -0.2967   -0.6448    0.0002 C.ar    1  LIG1       -0.0455
      4 C          -1.2375    0.3510    0.0008 C.ar    1  LIG1        0.0355
      5 S          -2.8383   -0.3278    0.0015 S.2     1  LIG1       -0.0952
      6 H          -2.8978   -2.7784    0.0013 H       1  LIG1        0.0693
      7 H          -0.2704   -2.8609   -0.0001 H       1  LIG1        0.0623
      8 H           0.7718   -0.4633   -0.0004 H       1  LIG1        0.0629
      9 C          -1.0459    1.7870    0.0009 C.ar    1  LIG1        0.0536
     10 C          -1.9579    2.8257    0.0010 C.ar    1  LIG1       -0.0353
     11 C          -1.2343    4.0350    0.0012 C.ar    1  LIG1       -0.0353
     12 C           0.1125    3.7219    0.0011 C.ar    1  LIG1        0.0536
     13 N           0.2052    2.3517    0.0009 N.ar    1  LIG1       -0.3533
     14 H           1.0678    1.8347    0.0011 H       1  LIG1        0.1659
     15 H          -3.0327    2.7173    0.0010 H       1  LIG1        0.0639
     16 H          -1.6472    5.0333    0.0012 H       1  LIG1        0.0639
     17 C           1.2860    4.5673    0.0011 C.ar    1  LIG1        0.0362
     18 C           2.6093    4.2113    0.0003 C.ar    1  LIG1       -0.0448
     19 C           3.4948    5.3193    0.0006 C.ar    1  LIG1       -0.0433
     20 C           2.8468    6.5228    0.0016 C.ar    1  LIG1        0.0550
     21 S           1.1222    6.3006    0.0023 S.2     1  LIG1       -0.0837
     22 H           2.9553    3.1842   -0.0006 H       1  LIG1        0.0630
     23 H           4.5739    5.2391    0.0001 H       1  LIG1        0.0630
     24 C           3.4314    7.8435    0.0022 C.ar    1  LIG1        0.1413
     25 C           2.9175    9.1061    0.0028 C.ar    1  LIG1       -0.0154
     26 C           4.0342    9.9958    0.0031 C.ar    1  LIG1       -0.0233
     27 C           5.1392    9.2129    0.0025 C.ar    1  LIG1        0.0926
     28 O           4.7923    7.9007    0.0020 O.2     1  LIG1       -0.4624
     29 H           6.1973    9.4197    0.0024 H       1  LIG1        0.1029
     30 H           1.8705    9.3704    0.0031 H       1  LIG1        0.0655
     31 H           4.0111   11.0751    0.0036 H       1  LIG1        0.0649
@<TRIPOS>BOND
     1    22    18    1
     2     8     3    1
     3     7     2    1
     4    23    19    1
     5     3     2   ar
     6     3     4   ar
     7    18    19   ar
     8    18    17   ar
     9     2     1   ar
    10    19    20   ar
    11     4     9    1
    12     4     5   ar
    13    13     9   ar
    14    13    12   ar
    15    13    14    1
    16     9    10   ar
    17    15    10    1
    18    10    11   ar
    19    12    17    1
    20    12    11   ar
    21     1     6    1
    22     1     5   ar
    23    17    21   ar
    24    11    16    1
    25    20    24    1
    26    20    21   ar
    27    28    24   ar
    28    28    27   ar
    29    24    25   ar
    30    29    27    1
    31    27    26   ar
    32    25    26   ar
    33    25    30    1
    34    26    31    1
