@<TRIPOS>MOLECULE
mol_data/opt/cam/geoms/mol2/513-12-.out
 24 26 0 0 0
SMALL
GASTEIGER

@<TRIPOS>ATOM
      1 C          -2.1028   -1.8735   -0.0001 C.ar    1  LIG1       -0.0237
      2 C          -0.7440   -1.8546   -0.0003 C.ar    1  LIG1       -0.0541
      3 C          -0.2118   -0.5340    0.0001 C.ar    1  LIG1       -0.0455
      4 C          -1.1758    0.4391    0.0008 C.ar    1  LIG1        0.0355
      5 S          -2.7602   -0.2772    0.0014 S.2     1  LIG1       -0.0952
      6 H          -2.7618   -2.7293   -0.0005 H       1  LIG1        0.0693
      7 H          -0.1333   -2.7490   -0.0010 H       1  LIG1        0.0623
      8 H           0.8516   -0.3251   -0.0002 H       1  LIG1        0.0629
      9 C          -1.0157    1.8791    0.0012 C.ar    1  LIG1        0.0536
     10 C          -1.9501    2.8988    0.0017 C.ar    1  LIG1       -0.0352
     11 C          -1.2546    4.1261    0.0017 C.ar    1  LIG1       -0.0328
     12 C           0.0953    3.8347    0.0017 C.ar    1  LIG1        0.0825
     13 N           0.2222    2.4707    0.0013 N.ar    1  LIG1       -0.3514
     14 H           1.1097    1.9956    0.0012 H       1  LIG1        0.1660
     15 H          -3.0223    2.7666    0.0019 H       1  LIG1        0.0639
     16 H          -1.6860    5.1160    0.0019 H       1  LIG1        0.0640
     17 C           1.2614    4.6840    0.0019 C.ar    1  LIG1        0.1509
     18 C           1.4562    6.0317    0.0022 C.ar    1  LIG1       -0.0144
     19 C           2.8712    6.2336    0.0024 C.ar    1  LIG1       -0.0233
     20 C           3.4330    5.0026    0.0019 C.ar    1  LIG1        0.0926
     21 O           2.4665    4.0437    0.0018 O.2     1  LIG1       -0.4615
     22 H           4.4504    4.6466    0.0018 H       1  LIG1        0.1029
     23 H           0.6860    6.7876    0.0023 H       1  LIG1        0.0656
     24 H           3.3958    7.1771    0.0028 H       1  LIG1        0.0649
@<TRIPOS>BOND
     1     7     2    1
     2     6     1    1
     3     2     1   ar
     4     2     3   ar
     5     8     3    1
     6     1     5   ar
     7     3     4   ar
     8     4     9    1
     9     4     5   ar
    10    14    13    1
    11     9    13   ar
    12     9    10   ar
    13    13    12   ar
    14    12    11   ar
    15    12    17    1
    16    11    10   ar
    17    11    16    1
    18    10    15    1
    19    22    20    1
    20    21    20   ar
    21    21    17   ar
    22    20    19   ar
    23    17    18   ar
    24    18    23    1
    25    18    19   ar
    26    19    24    1
