@<TRIPOS>MOLECULE
mol_data/opt/cam/geoms/mol2/513-13-.out
 25 27 0 0 0
SMALL
GASTEIGER

@<TRIPOS>ATOM
      1 C          -2.1110   -1.8576    0.4143 C.ar    1  LIG1       -0.0237
      2 C          -0.7856   -1.8706    0.1116 C.ar    1  LIG1       -0.0541
      3 C          -0.2609   -0.5665   -0.1167 C.ar    1  LIG1       -0.0455
      4 C          -1.1964    0.4241    0.0215 C.ar    1  LIG1        0.0355
      5 S          -2.7398   -0.2504    0.4481 S.2     1  LIG1       -0.0952
      6 H          -2.7588   -2.6973    0.6196 H       1  LIG1        0.0693
      7 H          -0.1985   -2.7777    0.0384 H       1  LIG1        0.0623
      8 H           0.7647   -0.3742   -0.4089 H       1  LIG1        0.0629
      9 C          -1.0244    1.8558   -0.1278 C.ar    1  LIG1        0.0536
     10 C          -1.9126    2.8557   -0.4610 C.ar    1  LIG1       -0.0353
     11 C          -1.2034    4.0809   -0.4668 C.ar    1  LIG1       -0.0344
     12 C           0.1049    3.8104   -0.1317 C.ar    1  LIG1        0.0633
     13 N           0.2060    2.4491    0.0529 N.ar    1  LIG1       -0.3526
     14 H           0.9790    1.9994    0.5169 H       1  LIG1        0.1660
     15 H          -2.9520    2.7082   -0.7167 H       1  LIG1        0.0639
     16 H          -1.5895    5.0551   -0.7270 H       1  LIG1        0.0639
     17 C           1.2523    4.6858    0.0211 C.ar    1  LIG1        0.0629
     18 C           1.3585    5.9599    0.5319 C.ar    1  LIG1       -0.0350
     19 C           2.7197    6.3505    0.4382 C.ar    1  LIG1       -0.0438
     20 C           3.4093    5.3069   -0.1225 C.ar    1  LIG1        0.0022
     21 N           2.5170    4.2942   -0.3614 N.ar    1  LIG1       -0.3595
     22 H           2.7134    3.4644   -0.8964 H       1  LIG1        0.1654
     23 H           4.4548    5.1991   -0.3672 H       1  LIG1        0.0807
     24 H           0.5442    6.5285    0.9560 H       1  LIG1        0.0639
     25 H           3.1464    7.2885    0.7618 H       1  LIG1        0.0633
@<TRIPOS>BOND
     1    22    21    1
     2    16    11    1
     3    15    10    1
     4    11    10   ar
     5    11    12   ar
     6    10     9   ar
     7     8     3    1
     8    23    20    1
     9    21    20   ar
    10    21    17   ar
    11    12    17    1
    12    12    13   ar
    13     9     4    1
    14     9    13   ar
    15    20    19   ar
    16     3     4   ar
    17     3     2   ar
    18    17    18   ar
    19     4     5   ar
    20     7     2    1
    21    13    14    1
    22     2     1   ar
    23     1     5   ar
    24     1     6    1
    25    19    18   ar
    26    19    25    1
    27    18    24    1
