@<TRIPOS>MOLECULE
mol_data/opt/cam/geoms/mol2/513-12.out
 24 26 0 0 0
SMALL
GASTEIGER

@<TRIPOS>ATOM
      1 C          -2.1031   -1.8786   -0.0000 C.ar    1  LIG1       -0.0237
      2 C          -0.7443   -1.8634   -0.0003 C.ar    1  LIG1       -0.0541
      3 C          -0.2091   -0.5441    0.0001 C.ar    1  LIG1       -0.0455
      4 C          -1.1705    0.4318    0.0008 C.ar    1  LIG1        0.0355
      5 S          -2.7565   -0.2809    0.0016 S.2     1  LIG1       -0.0952
      6 H          -2.7643   -2.7327   -0.0003 H       1  LIG1        0.0693
      7 H          -0.1359   -2.7593   -0.0010 H       1  LIG1        0.0623
      8 H           0.8554   -0.3401   -0.0003 H       1  LIG1        0.0629
      9 C          -1.0094    1.8717    0.0011 C.ar    1  LIG1        0.0536
     10 C          -1.9422    2.8914    0.0016 C.ar    1  LIG1       -0.0352
     11 C          -1.2453    4.1181    0.0016 C.ar    1  LIG1       -0.0328
     12 C           0.1038    3.8281    0.0016 C.ar    1  LIG1        0.0825
     13 N           0.2312    2.4623    0.0012 N.ar    1  LIG1       -0.3514
     14 H           1.1057    1.9655    0.0013 H       1  LIG1        0.1660
     15 H          -3.0145    2.7597    0.0017 H       1  LIG1        0.0639
     16 H          -1.6669    5.1114    0.0017 H       1  LIG1        0.0640
     17 C           1.2486    4.7054    0.0019 C.ar    1  LIG1        0.1509
     18 C           2.5974    4.5020    0.0018 C.ar    1  LIG1       -0.0144
     19 C           3.2000    5.7978    0.0020 C.ar    1  LIG1       -0.0233
     20 C           2.1797    6.6871    0.0025 C.ar    1  LIG1        0.0926
     21 O           0.9858    6.0392    0.0022 O.2     1  LIG1       -0.4615
     22 H           2.1306    7.7639    0.0028 H       1  LIG1        0.1029
     23 H           3.1097    3.5511    0.0015 H       1  LIG1        0.0656
     24 H           4.2545    6.0287    0.0020 H       1  LIG1        0.0649
@<TRIPOS>BOND
     1     7     2    1
     2     6     1    1
     3     8     3    1
     4     2     1   ar
     5     2     3   ar
     6     1     5   ar
     7     3     4   ar
     8     4     9    1
     9     4     5   ar
    10     9    13   ar
    11     9    10   ar
    12    13    14    1
    13    13    12   ar
    14    23    18    1
    15    11    10   ar
    16    11    12   ar
    17    11    16    1
    18    10    15    1
    19    12    17    1
    20    18    17   ar
    21    18    19   ar
    22    17    21   ar
    23    24    19    1
    24    19    20   ar
    25    21    20   ar
    26    20    22    1
