@<TRIPOS>MOLECULE
mol_data/opt/cam/geoms/mol2/513-1312.out
 32 35 0 0 0
SMALL
GASTEIGER

@<TRIPOS>ATOM
      1 C          -2.1518   -1.9367    0.0006 C.ar    1  LIG1       -0.0237
      2 C          -0.7930   -1.9279    0.0002 C.ar    1  LIG1       -0.0541
      3 C          -0.2510   -0.6111    0.0003 C.ar    1  LIG1       -0.0455
      4 C          -1.2074    0.3696    0.0007 C.ar    1  LIG1        0.0355
      5 S          -2.7974   -0.3352    0.0009 S.2     1  LIG1       -0.0952
      6 H          -2.8173   -2.7874    0.0006 H       1  LIG1        0.0693
      7 H          -0.1889   -2.8267   -0.0000 H       1  LIG1        0.0623
      8 H           0.8144   -0.4120    0.0000 H       1  LIG1        0.0629
      9 C          -1.0384    1.8082    0.0009 C.ar    1  LIG1        0.0536
     10 C          -1.9633    2.8335    0.0008 C.ar    1  LIG1       -0.0353
     11 C          -1.2555    4.0548    0.0011 C.ar    1  LIG1       -0.0344
     12 C           0.0948    3.7589    0.0013 C.ar    1  LIG1        0.0633
     13 N           0.2059    2.3927    0.0012 N.ar    1  LIG1       -0.3526
     14 H           1.0785    1.8925    0.0016 H       1  LIG1        0.1660
     15 H          -3.0367    2.7113    0.0005 H       1  LIG1        0.0639
     16 H          -1.6908    5.0438    0.0011 H       1  LIG1        0.0639
     17 C           1.2595    4.6149    0.0017 C.ar    1  LIG1        0.0634
     18 C           2.6114    4.3195    0.0016 C.ar    1  LIG1       -0.0343
     19 C           3.3222    5.5399    0.0021 C.ar    1  LIG1       -0.0328
     20 C           2.3918    6.5589    0.0025 C.ar    1  LIG1        0.0826
     21 N           1.1486    5.9802    0.0023 N.ar    1  LIG1       -0.3506
     22 H           0.2885    6.5038    0.0025 H       1  LIG1        0.1660
     23 H           3.0479    3.3308    0.0011 H       1  LIG1        0.0639
     24 H           4.3948    5.6650    0.0021 H       1  LIG1        0.0640
     25 C           2.5381    7.9941    0.0032 C.ar    1  LIG1        0.1509
     26 C           3.6039    8.8417    0.0035 C.ar    1  LIG1       -0.0144
     27 C           3.0647   10.1655    0.0040 C.ar    1  LIG1       -0.0233
     28 C           1.7184   10.0299    0.0042 C.ar    1  LIG1        0.0926
     29 O           1.3776    8.7118    0.0036 O.2     1  LIG1       -0.4615
     30 H           0.8979   10.7288    0.0046 H       1  LIG1        0.1029
     31 H           4.6452    8.5578    0.0032 H       1  LIG1        0.0656
     32 H           3.6151   11.0943    0.0044 H       1  LIG1        0.0649
@<TRIPOS>BOND
     1     7     2    1
     2     8     3    1
     3     2     3   ar
     4     2     1   ar
     5     3     4   ar
     6    15    10    1
     7     1     6    1
     8     1     5   ar
     9     4     9    1
    10     4     5   ar
    11    10     9   ar
    12    10    11   ar
    13     9    13   ar
    14    16    11    1
    15    11    12   ar
    16    23    18    1
    17    13    12   ar
    18    13    14    1
    19    12    17    1
    20    18    17   ar
    21    18    19   ar
    22    17    21   ar
    23    19    24    1
    24    19    20   ar
    25    21    22    1
    26    21    20   ar
    27    20    25    1
    28    25    26   ar
    29    25    29   ar
    30    31    26    1
    31    26    27   ar
    32    29    28   ar
    33    27    28   ar
    34    27    32    1
    35    28    30    1
