@<TRIPOS>MOLECULE
mol_data/opt/cam/geoms/mol2/513-4-5.out
 34 37 0 0 0
SMALL
GASTEIGER

@<TRIPOS>ATOM
      1 C          -2.3117   -1.9432    0.0022 C.ar    1  LIG1       -0.0237
      2 C          -0.9530   -1.9697    0.0010 C.ar    1  LIG1       -0.0541
      3 C          -0.3777   -0.6675    0.0005 C.ar    1  LIG1       -0.0455
      4 C          -1.3087    0.3375    0.0013 C.ar    1  LIG1        0.0355
      5 S          -2.9159   -0.3264    0.0026 S.2     1  LIG1       -0.0952
      6 H          -2.9987   -2.7767    0.0029 H       1  LIG1        0.0693
      7 H          -0.3724   -2.8838    0.0006 H       1  LIG1        0.0623
      8 H           0.6926   -0.4964   -0.0004 H       1  LIG1        0.0629
      9 C          -1.1045    1.7720    0.0012 C.ar    1  LIG1        0.0536
     10 C          -2.0069    2.8188    0.0015 C.ar    1  LIG1       -0.0353
     11 C          -1.2704    4.0198    0.0012 C.ar    1  LIG1       -0.0358
     12 C           0.0752    3.6984    0.0005 C.ar    1  LIG1        0.0469
     13 N           0.1502    2.3264    0.0006 N.ar    1  LIG1       -0.3537
     14 H           1.0037    1.7954    0.0003 H       1  LIG1        0.1659
     15 H          -3.0829    2.7212    0.0020 H       1  LIG1        0.0639
     16 H          -1.6819    5.0178    0.0014 H       1  LIG1        0.0639
     17 C           1.1244    5.9484   -0.0003 C.ar    1  LIG1       -0.0520
     18 C           2.2306    6.7773   -0.0009 C.ar    1  LIG1       -0.0529
     19 C           1.2577    4.5547   -0.0001 C.ar    1  LIG1       -0.0017
     20 C           3.5320    6.2614   -0.0012 C.ar    1  LIG1       -0.0113
     21 H           2.0743    7.8514   -0.0012 H       1  LIG1        0.0624
     22 C           2.5590    4.0389   -0.0004 C.ar    1  LIG1       -0.0520
     23 C           3.6664    4.8691   -0.0009 C.ar    1  LIG1       -0.0529
     24 H           2.7297    2.9667   -0.0001 H       1  LIG1        0.0624
     25 H           0.1354    6.3923   -0.0001 H       1  LIG1        0.0624
     26 H           4.6533    4.4207   -0.0010 H       1  LIG1        0.0624
     27 C           4.7125    7.1343   -0.0019 C.ar    1  LIG1        0.0193
     28 C           6.0359    6.7829   -0.0045 C.ar    1  LIG1       -0.0469
     29 C           6.9231    7.8948   -0.0043 C.ar    1  LIG1       -0.0541
     30 C           6.2687    9.0865   -0.0016 C.ar    1  LIG1       -0.0237
     31 S           4.5598    8.8705    0.0010 S.2     1  LIG1       -0.0967
     32 H           6.6882   10.0820   -0.0008 H       1  LIG1        0.0693
     33 H           6.3787    5.7561   -0.0067 H       1  LIG1        0.0629
     34 H           8.0022    7.8043   -0.0063 H       1  LIG1        0.0623
@<TRIPOS>BOND
     1    33    28    1
     2    34    29    1
     3    28    29   ar
     4    28    27   ar
     5    29    30   ar
     6    27    20    1
     7    27    31   ar
     8    30    32    1
     9    30    31   ar
    10    20    23   ar
    11    20    18   ar
    12    21    18    1
    13    26    23    1
    14    23    22   ar
    15    18    17   ar
    16     8     3    1
    17    22    24    1
    18    22    19   ar
    19    17    25    1
    20    17    19   ar
    21    19    12    1
    22    14    13    1
    23     3     2   ar
    24     3     4   ar
    25    12    13   ar
    26    12    11   ar
    27    13     9   ar
    28     7     2    1
    29     2     1   ar
    30     9     4    1
    31     9    10   ar
    32    11    16    1
    33    11    10   ar
    34     4     5   ar
    35    10    15    1
    36     1     5   ar
    37     1     6    1
