@<TRIPOS>MOLECULE
mol_data/opt/cam/geoms/mol2/513-1213.out
 32 35 0 0 0
SMALL
GASTEIGER

@<TRIPOS>ATOM
      1 C          -2.1052   -1.9552    0.0006 C.ar    1  LIG1       -0.0237
      2 C          -0.7465   -1.9324    0.0001 C.ar    1  LIG1       -0.0541
      3 C          -0.2185   -0.6102    0.0001 C.ar    1  LIG1       -0.0455
      4 C          -1.1854    0.3604    0.0007 C.ar    1  LIG1        0.0355
      5 S          -2.7676   -0.3611    0.0011 S.2     1  LIG1       -0.0952
      6 H          -2.7617   -2.8128    0.0007 H       1  LIG1        0.0693
      7 H          -0.1331   -2.8249   -0.0003 H       1  LIG1        0.0623
      8 H           0.8448   -0.4001   -0.0003 H       1  LIG1        0.0629
      9 C          -1.0318    1.8008    0.0009 C.ar    1  LIG1        0.0536
     10 C          -1.9692    2.8161    0.0010 C.ar    1  LIG1       -0.0352
     11 C          -1.2780    4.0457    0.0013 C.ar    1  LIG1       -0.0328
     12 C           0.0737    3.7630    0.0013 C.ar    1  LIG1        0.0826
     13 N           0.2062    2.3975    0.0010 N.ar    1  LIG1       -0.3514
     14 H           1.0830    1.9046    0.0012 H       1  LIG1        0.1660
     15 H          -3.0409    2.6795    0.0008 H       1  LIG1        0.0639
     16 H          -1.7071    5.0357    0.0014 H       1  LIG1        0.0640
     17 C           1.2147    4.6412    0.0015 C.ar    1  LIG1        0.1518
     18 C           2.5642    4.4456    0.0014 C.ar    1  LIG1       -0.0137
     19 C           3.1672    5.7368    0.0017 C.ar    1  LIG1       -0.0137
     20 C           2.1477    6.6397    0.0019 C.ar    1  LIG1        0.1518
     21 O           0.9512    5.9801    0.0018 O.2     1  LIG1       -0.4519
     22 H           3.0791    3.4959    0.0012 H       1  LIG1        0.0656
     23 H           4.2217    5.9659    0.0018 H       1  LIG1        0.0656
     24 C           2.0764    8.0799    0.0023 C.ar    1  LIG1        0.0821
     25 C           3.0607    9.0474    0.0024 C.ar    1  LIG1       -0.0334
     26 C           2.4150   10.3077    0.0027 C.ar    1  LIG1       -0.0437
     27 C           1.0607   10.0773    0.0028 C.ar    1  LIG1        0.0023
     28 N           0.8655    8.7252    0.0026 N.ar    1  LIG1       -0.3583
     29 H          -0.0208    8.2479    0.0025 H       1  LIG1        0.1654
     30 H           0.2271   10.7624    0.0031 H       1  LIG1        0.0807
     31 H           4.1248    8.8623    0.0022 H       1  LIG1        0.0640
     32 H           2.8915   11.2769    0.0028 H       1  LIG1        0.0633
@<TRIPOS>BOND
     1     8     3    1
     2     7     2    1
     3     2     3   ar
     4     2     1   ar
     5     3     4   ar
     6     1     6    1
     7     1     5   ar
     8     4     9    1
     9     4     5   ar
    10    15    10    1
    11     9    10   ar
    12     9    13   ar
    13    10    11   ar
    14    13    14    1
    15    13    12   ar
    16    22    18    1
    17    11    12   ar
    18    11    16    1
    19    12    17    1
    20    18    17   ar
    21    18    19   ar
    22    17    21   ar
    23    19    23    1
    24    19    20   ar
    25    21    20   ar
    26    20    24    1
    27    31    25    1
    28    24    25   ar
    29    24    28   ar
    30    25    26   ar
    31    29    28    1
    32    28    27   ar
    33    26    27   ar
    34    26    32    1
    35    27    30    1
