@<TRIPOS>MOLECULE
mol_data/opt/cam/geoms/mol2/513-48.out
 33 36 0 0 0
SMALL
GASTEIGER

@<TRIPOS>ATOM
      1 C          -2.2186   -1.9426   -0.0005 C.ar    1  LIG1       -0.0237
      2 C          -0.8594   -1.9464   -0.0005 C.ar    1  LIG1       -0.0541
      3 C          -0.3068   -0.6346   -0.0001 C.ar    1  LIG1       -0.0455
      4 C          -1.2555    0.3536    0.0003 C.ar    1  LIG1        0.0355
      5 S          -2.8508   -0.3373   -0.0004 S.2     1  LIG1       -0.0952
      6 H          -2.8911   -2.7878   -0.0007 H       1  LIG1        0.0693
      7 H          -0.2633   -2.8504   -0.0008 H       1  LIG1        0.0623
      8 H           0.7605   -0.4453    0.0000 H       1  LIG1        0.0629
      9 C          -1.0756    1.7918    0.0009 C.ar    1  LIG1        0.0536
     10 C          -1.9983    2.8225    0.0007 C.ar    1  LIG1       -0.0353
     11 C          -1.2844    4.0354    0.0017 C.ar    1  LIG1       -0.0358
     12 C           0.0677    3.7386    0.0022 C.ar    1  LIG1        0.0469
     13 N           0.1674    2.3670    0.0017 N.ar    1  LIG1       -0.3537
     14 H           1.0298    1.8504    0.0021 H       1  LIG1        0.1659
     15 H          -3.0721    2.7050   -0.0000 H       1  LIG1        0.0639
     16 H          -1.7142    5.0256    0.0019 H       1  LIG1        0.0639
     17 C           2.5419    4.1173    0.0036 C.ar    1  LIG1       -0.0520
     18 C           3.6345    4.9656    0.0044 C.ar    1  LIG1       -0.0503
     19 C           1.2316    4.6158    0.0031 C.ar    1  LIG1       -0.0017
     20 C           3.4545    6.3502    0.0048 C.ar    1  LIG1        0.0227
     21 H           4.6404    4.5636    0.0048 H       1  LIG1        0.0625
     22 C           1.0655    6.0092    0.0034 C.ar    1  LIG1       -0.0520
     23 C           2.1524    6.8609    0.0043 C.ar    1  LIG1       -0.0503
     24 H           0.0663    6.4290    0.0031 H       1  LIG1        0.0624
     25 H           2.7275    3.0482    0.0033 H       1  LIG1        0.0624
     26 H           2.0070    7.9343    0.0046 H       1  LIG1        0.0625
     27 C           4.6136    7.2541    0.0057 C.ar    1  LIG1        0.2033
     28 N           5.8415    6.7084    0.0060 N.ar    1  LIG1       -0.1258
     29 C           6.6259    8.8227    0.0069 C.ar    1  LIG1        0.1605
     30 N           4.3839    8.5779    0.0060 N.ar    1  LIG1       -0.1258
     31 N           6.8736    7.5139    0.0067 N.ar    1  LIG1       -0.1339
     32 N           5.4173    9.3821    0.0067 N.ar    1  LIG1       -0.1339
     33 H           7.4808    9.4891    0.0078 H       1  LIG1        0.1085
@<TRIPOS>BOND
     1     7     2    1
     2     6     1    1
     3     2     1   ar
     4     2     3   ar
     5     1     5   ar
     6     5     4   ar
     7     3     8    1
     8     3     4   ar
     9    15    10    1
    10     4     9    1
    11    10     9   ar
    12    10    11   ar
    13     9    13   ar
    14    11    16    1
    15    11    12   ar
    16    13    14    1
    17    13    12   ar
    18    12    19    1
    19    19    22   ar
    20    19    17   ar
    21    24    22    1
    22    25    17    1
    23    22    23   ar
    24    17    18   ar
    25    23    26    1
    26    23    20   ar
    27    18    20   ar
    28    18    21    1
    29    20    27    1
    30    27    30   ar
    31    27    28   ar
    32    30    32   ar
    33    28    31   ar
    34    32    29   ar
    35    31    29   ar
    36    29    33    1
