@<TRIPOS>MOLECULE
mol_data/opt/cam/geoms/mol2/513-8.out
 23 25 0 0 0
SMALL
GASTEIGER

@<TRIPOS>ATOM
      1 C          -2.0820   -1.8592    0.0004 C.ar    1  LIG1       -0.0237
      2 C          -0.7222   -1.8401   -0.0004 C.ar    1  LIG1       -0.0541
      3 C          -0.1931   -0.5196   -0.0002 C.ar    1  LIG1       -0.0455
      4 C          -1.1606    0.4497    0.0005 C.ar    1  LIG1        0.0355
      5 S          -2.7431   -0.2674    0.0004 S.2     1  LIG1       -0.0952
      6 H          -2.7392   -2.7165    0.0006 H       1  LIG1        0.0693
      7 H          -0.1108   -2.7337   -0.0008 H       1  LIG1        0.0623
      8 H           0.8696   -0.3076   -0.0005 H       1  LIG1        0.0629
      9 C          -1.0010    1.8908    0.0011 C.ar    1  LIG1        0.0536
     10 C          -1.9504    2.9068    0.0014 C.ar    1  LIG1       -0.0352
     11 C          -1.2683    4.1339    0.0022 C.ar    1  LIG1       -0.0326
     12 C           0.0851    3.8478    0.0017 C.ar    1  LIG1        0.0880
     13 N           0.2258    2.4830    0.0013 N.ar    1  LIG1       -0.3512
     14 H           1.1262    2.0288    0.0011 H       1  LIG1        0.1660
     15 H          -3.0210    2.7631    0.0013 H       1  LIG1        0.0639
     16 H          -1.6927    5.1261    0.0028 H       1  LIG1        0.0640
     17 C           1.2427    4.7021    0.0018 C.ar    1  LIG1        0.2193
     18 N           2.4471    4.1016    0.0014 N.ar    1  LIG1       -0.1243
     19 C           3.3128    6.1826    0.0022 C.ar    1  LIG1        0.1605
     20 N           1.0563    6.0370    0.0024 N.ar    1  LIG1       -0.1243
     21 N           3.5106    4.8665    0.0016 N.ar    1  LIG1       -0.1338
     22 N           2.1231    6.7907    0.0027 N.ar    1  LIG1       -0.1338
     23 H           4.1914    6.8167    0.0024 H       1  LIG1        0.1085
@<TRIPOS>BOND
     1     7     2    1
     2     8     3    1
     3     2     3   ar
     4     2     1   ar
     5     3     4   ar
     6     5     1   ar
     7     5     4   ar
     8     1     6    1
     9     4     9    1
    10    14    13    1
    11     9    13   ar
    12     9    10   ar
    13    13    12   ar
    14    15    10    1
    15    10    11   ar
    16    18    21   ar
    17    18    17   ar
    18    21    19   ar
    19    12    17    1
    20    12    11   ar
    21    17    20   ar
    22    19    23    1
    23    19    22   ar
    24    11    16    1
    25    20    22   ar
