@<TRIPOS>MOLECULE
mol_data/opt/cam/geoms/mol2/513-5-.out
 24 26 0 0 0
SMALL
GASTEIGER

@<TRIPOS>ATOM
      1 C          -2.1110   -1.8886    0.0004 C.ar    1  LIG1       -0.0237
      2 C          -0.7522   -1.8694   -0.0004 C.ar    1  LIG1       -0.0541
      3 C          -0.2205   -0.5487   -0.0002 C.ar    1  LIG1       -0.0455
      4 C          -1.1847    0.4243    0.0006 C.ar    1  LIG1        0.0355
      5 S          -2.7689   -0.2927    0.0011 S.2     1  LIG1       -0.0952
      6 H          -2.7697   -2.7446    0.0005 H       1  LIG1        0.0693
      7 H          -0.1413   -2.7635   -0.0010 H       1  LIG1        0.0623
      8 H           0.8434   -0.3417   -0.0008 H       1  LIG1        0.0629
      9 C          -1.0272    1.8644    0.0010 C.ar    1  LIG1        0.0536
     10 C          -1.9622    2.8821    0.0012 C.ar    1  LIG1       -0.0353
     11 C          -1.2670    4.1083    0.0016 C.ar    1  LIG1       -0.0353
     12 C           0.0864    3.8265    0.0017 C.ar    1  LIG1        0.0536
     13 N           0.2105    2.4587    0.0013 N.ar    1  LIG1       -0.3533
     14 H           1.0842    1.9584    0.0015 H       1  LIG1        0.1659
     15 H          -3.0343    2.7492    0.0011 H       1  LIG1        0.0639
     16 H          -1.7022    5.0963    0.0018 H       1  LIG1        0.0639
     17 C           1.2278    4.7193    0.0021 C.ar    1  LIG1        0.0355
     18 C           1.2261    6.0883    0.0029 C.ar    1  LIG1       -0.0455
     19 C           2.5320    6.6534    0.0031 C.ar    1  LIG1       -0.0541
     20 C           3.5169    5.7168    0.0023 C.ar    1  LIG1       -0.0237
     21 S           2.8630    4.1184    0.0014 S.2     1  LIG1       -0.0952
     22 H           4.5868    5.8627    0.0023 H       1  LIG1        0.0693
     23 H           0.3161    6.6748    0.0035 H       1  LIG1        0.0629
     24 H           2.7256    7.7189    0.0037 H       1  LIG1        0.0623
@<TRIPOS>BOND
     1     7     2    1
     2     8     3    1
     3     2     3   ar
     4     2     1   ar
     5     3     4   ar
     6     1     6    1
     7     1     5   ar
     8     4     9    1
     9     4     5   ar
    10     9    10   ar
    11     9    13   ar
    12    15    10    1
    13    10    11   ar
    14    13    14    1
    15    13    12   ar
    16    21    17   ar
    17    21    20   ar
    18    11    12   ar
    19    11    16    1
    20    12    17    1
    21    17    18   ar
    22    22    20    1
    23    20    19   ar
    24    18    19   ar
    25    18    23    1
    26    19    24    1
