@<TRIPOS>MOLECULE
mol_data/opt/cam/geoms/mol2/513-13.out
 25 27 0 0 0
SMALL
GASTEIGER

@<TRIPOS>ATOM
      1 C          -2.1188   -1.8932    0.0002 C.ar    1  LIG1       -0.0237
      2 C          -0.7602   -1.8770   -0.0002 C.ar    1  LIG1       -0.0541
      3 C          -0.2250   -0.5573    0.0000 C.ar    1  LIG1       -0.0455
      4 C          -1.1864    0.4185    0.0006 C.ar    1  LIG1        0.0355
      5 S          -2.7726   -0.2949    0.0008 S.2     1  LIG1       -0.0952
      6 H          -2.7798   -2.7474    0.0002 H       1  LIG1        0.0693
      7 H          -0.1513   -2.7726   -0.0006 H       1  LIG1        0.0623
      8 H           0.8393   -0.3528   -0.0002 H       1  LIG1        0.0629
      9 C          -1.0252    1.8581    0.0010 C.ar    1  LIG1        0.0536
     10 C          -1.9551    2.8779    0.0010 C.ar    1  LIG1       -0.0353
     11 C          -1.2532    4.1036    0.0015 C.ar    1  LIG1       -0.0344
     12 C           0.0983    3.8149    0.0017 C.ar    1  LIG1        0.0633
     13 N           0.2162    2.4500    0.0014 N.ar    1  LIG1       -0.3526
     14 H           1.0921    1.9554    0.0017 H       1  LIG1        0.1660
     15 H          -3.0279    2.7498    0.0007 H       1  LIG1        0.0639
     16 H          -1.6952    5.0898    0.0015 H       1  LIG1        0.0639
     17 C           1.2619    4.6763    0.0021 C.ar    1  LIG1        0.0629
     18 C           2.6122    4.3882    0.0019 C.ar    1  LIG1       -0.0350
     19 C           3.3169    5.6186    0.0023 C.ar    1  LIG1       -0.0438
     20 C           2.3841    6.6234    0.0034 C.ar    1  LIG1        0.0022
     21 N           1.1442    6.0438    0.0030 N.ar    1  LIG1       -0.3595
     22 H           0.2698    6.5412    0.0034 H       1  LIG1        0.1654
     23 H           2.4989    7.6963    0.0041 H       1  LIG1        0.0807
     24 H           3.0530    3.4011    0.0012 H       1  LIG1        0.0639
     25 H           4.3889    5.7488    0.0022 H       1  LIG1        0.0633
@<TRIPOS>BOND
     1     7     2    1
     2     8     3    1
     3     2     3   ar
     4     2     1   ar
     5     3     4   ar
     6     6     1    1
     7     1     5   ar
     8     4     5   ar
     9     4     9    1
    10    15    10    1
    11     9    10   ar
    12     9    13   ar
    13    10    11   ar
    14    24    18    1
    15    13    12   ar
    16    13    14    1
    17    11    16    1
    18    11    12   ar
    19    12    17    1
    20    18    17   ar
    21    18    19   ar
    22    17    21   ar
    23    25    19    1
    24    19    20   ar
    25    21    20   ar
    26    21    22    1
    27    20    23    1
