@<TRIPOS>MOLECULE
mol_data/opt/cam/geoms/mol2/513.out
 17 18 0 0 0
SMALL
GASTEIGER

@<TRIPOS>ATOM
      1 C          -2.0394   -1.8459   -0.0003 C.ar    1  LIG1       -0.0237
      2 C          -0.6815   -1.7997   -0.0009 C.ar    1  LIG1       -0.0541
      3 C          -0.1690   -0.4714   -0.0002 C.ar    1  LIG1       -0.0455
      4 C          -1.1456    0.4868    0.0009 C.ar    1  LIG1        0.0354
      5 S          -2.7204   -0.2583    0.0009 S.2     1  LIG1       -0.0952
      6 H          -2.6857   -2.7110   -0.0006 H       1  LIG1        0.0693
      7 H          -0.0568   -2.6845   -0.0018 H       1  LIG1        0.0623
      8 H           0.8871   -0.2333   -0.0005 H       1  LIG1        0.0629
      9 C          -0.9833    1.9291    0.0019 C.ar    1  LIG1        0.0531
     10 C           0.1636    2.6979    0.0028 C.ar    1  LIG1       -0.0359
     11 C          -0.2271    4.0586    0.0032 C.ar    1  LIG1       -0.0438
     12 C          -1.5990    4.0906    0.0032 C.ar    1  LIG1        0.0022
     13 N          -2.0483    2.7992    0.0021 N.ar    1  LIG1       -0.3603
     14 H          -3.0178    2.5275    0.0014 H       1  LIG1        0.1653
     15 H          -2.2883    4.9208    0.0036 H       1  LIG1        0.0807
     16 H           1.1737    2.3156    0.0031 H       1  LIG1        0.0639
     17 H           0.4262    4.9185    0.0037 H       1  LIG1        0.0633
@<TRIPOS>BOND
     1     7     2    1
     2     2     1   ar
     3     2     3   ar
     4     6     1    1
     5     8     3    1
     6     1     5   ar
     7     3     4   ar
     8     4     5   ar
     9     4     9    1
    10    14    13    1
    11     9    13   ar
    12     9    10   ar
    13    13    12   ar
    14    10    16    1
    15    10    11   ar
    16    11    12   ar
    17    11    17    1
    18    12    15    1
