@<TRIPOS>MOLECULE
mol_data/opt/cam/geoms/mol2/51313-.out
 25 27 0 0 0
SMALL
GASTEIGER

@<TRIPOS>ATOM
      1 C          -1.9677   -1.9140    0.0343 C.ar    1  LIG1       -0.0237
      2 C          -0.6632   -1.8291   -0.3385 C.ar    1  LIG1       -0.0541
      3 C          -0.1709   -0.4929   -0.3356 C.ar    1  LIG1       -0.0455
      4 C          -1.1067    0.4263    0.0513 C.ar    1  LIG1        0.0355
      5 S          -2.6145   -0.3622    0.4281 S.2     1  LIG1       -0.0952
      6 H          -2.5900   -2.7940    0.1046 H       1  LIG1        0.0693
      7 H          -0.0688   -2.6887   -0.6232 H       1  LIG1        0.0623
      8 H           0.8322   -0.2144   -0.6330 H       1  LIG1        0.0629
      9 C          -0.9510    1.8622    0.1815 C.ar    1  LIG1        0.0536
     10 C           0.1644    2.6211    0.4682 C.ar    1  LIG1       -0.0353
     11 C          -0.2284    3.9801    0.4722 C.ar    1  LIG1       -0.0344
     12 C          -1.5790    4.0274    0.1886 C.ar    1  LIG1        0.0633
     13 N          -2.0034    2.7344    0.0233 N.ar    1  LIG1       -0.3526
     14 H          -2.9156    2.4815   -0.3224 H       1  LIG1        0.1660
     15 H           1.1445    2.2275    0.6939 H       1  LIG1        0.0639
     16 H           0.3952    4.8300    0.7106 H       1  LIG1        0.0639
     17 C          -2.4944    5.1431    0.0574 C.ar    1  LIG1        0.0629
     18 C          -3.8542    5.2367    0.2703 C.ar    1  LIG1       -0.0350
     19 C          -4.2428    6.5711   -0.0146 C.ar    1  LIG1       -0.0438
     20 C          -3.1147    7.2548   -0.3901 C.ar    1  LIG1        0.0022
     21 N          -2.0605    6.3830   -0.3411 N.ar    1  LIG1       -0.3595
     22 H          -1.1176    6.5838   -0.6300 H       1  LIG1        0.1654
     23 H          -2.9763    8.2830   -0.6868 H       1  LIG1        0.0807
     24 H          -4.4898    4.4416    0.6334 H       1  LIG1        0.0639
     25 H          -5.2377    6.9845    0.0601 H       1  LIG1        0.0633
@<TRIPOS>BOND
     1    23    20    1
     2     8     3    1
     3    22    21    1
     4     7     2    1
     5    20    21   ar
     6    20    19   ar
     7    21    17   ar
     8     2     3   ar
     9     2     1   ar
    10     3     4   ar
    11    14    13    1
    12    19    25    1
    13    19    18   ar
    14    13     9   ar
    15    13    12   ar
    16     1     6    1
    17     1     5   ar
    18     4     9    1
    19     4     5   ar
    20    17    12    1
    21    17    18   ar
    22     9    10   ar
    23    12    11   ar
    24    18    24    1
    25    10    11   ar
    26    10    15    1
    27    11    16    1
