@<TRIPOS>MOLECULE
mol_data/opt/cam/geoms/mol2/513124.out
 34 37 0 0 0
SMALL
GASTEIGER

@<TRIPOS>ATOM
      1 C          -1.8754   -1.9446   -0.0002 C.ar    1  LIG1       -0.0237
      2 C          -0.5176   -1.8810   -0.0016 C.ar    1  LIG1       -0.0541
      3 C          -0.0233   -0.5467   -0.0010 C.ar    1  LIG1       -0.0455
      4 C          -1.0139    0.3982    0.0008 C.ar    1  LIG1        0.0355
      5 S          -2.5785   -0.3675    0.0019 S.2     1  LIG1       -0.0952
      6 H          -2.5097   -2.8186   -0.0003 H       1  LIG1        0.0693
      7 H           0.1185   -2.7575   -0.0029 H       1  LIG1        0.0623
      8 H           1.0296   -0.2946   -0.0019 H       1  LIG1        0.0629
      9 C          -0.8706    1.8401    0.0018 C.ar    1  LIG1        0.0536
     10 C           0.2702    2.6240    0.0018 C.ar    1  LIG1       -0.0352
     11 C          -0.1313    3.9750    0.0030 C.ar    1  LIG1       -0.0328
     12 C          -1.5131    3.9966    0.0036 C.ar    1  LIG1        0.0826
     13 N          -1.9435    2.6956    0.0028 N.ar    1  LIG1       -0.3514
     14 H          -2.9164    2.4332    0.0029 H       1  LIG1        0.1660
     15 H           1.2844    2.2536    0.0011 H       1  LIG1        0.0639
     16 H           0.5121    4.8423    0.0034 H       1  LIG1        0.0640
     17 C          -2.4515    5.0889    0.0047 C.ar    1  LIG1        0.1518
     18 C          -2.3274    6.4463    0.0052 C.ar    1  LIG1       -0.0138
     19 C          -3.6504    6.9697    0.0063 C.ar    1  LIG1       -0.0152
     20 C          -4.5035    5.9064    0.0064 C.ar    1  LIG1        0.1358
     21 O          -3.7719    4.7502    0.0054 O.2     1  LIG1       -0.4534
     22 H          -1.4026    7.0026    0.0049 H       1  LIG1        0.0656
     23 H          -3.9297    8.0124    0.0070 H       1  LIG1        0.0656
     24 C          -6.7640    6.9220    0.0076 C.ar    1  LIG1       -0.0511
     25 C          -8.1452    6.8078    0.0085 C.ar    1  LIG1       -0.0611
     26 C          -5.9550    5.7798    0.0073 C.ar    1  LIG1        0.0173
     27 C          -8.7470    5.5532    0.0091 C.ar    1  LIG1       -0.0617
     28 H          -8.7567    7.7043    0.0086 H       1  LIG1        0.0618
     29 C          -6.5678    4.5229    0.0080 C.ar    1  LIG1       -0.0511
     30 C          -7.9514    4.4137    0.0088 C.ar    1  LIG1       -0.0611
     31 H          -5.9519    3.6315    0.0078 H       1  LIG1        0.0625
     32 H          -9.8283    5.4657    0.0098 H       1  LIG1        0.0618
     33 H          -6.3068    7.9058    0.0070 H       1  LIG1        0.0625
     34 H          -8.4102    3.4302    0.0094 H       1  LIG1        0.0618
@<TRIPOS>BOND
     1     7     2    1
     2     8     3    1
     3     2     3   ar
     4     2     1   ar
     5     3     4   ar
     6     6     1    1
     7     1     5   ar
     8     4     9    1
     9     4     5   ar
    10    15    10    1
    11     9    10   ar
    12     9    13   ar
    13    10    11   ar
    14    13    14    1
    15    13    12   ar
    16    11    16    1
    17    11    12   ar
    18    12    17    1
    19    17    18   ar
    20    17    21   ar
    21    22    18    1
    22    18    19   ar
    23    21    20   ar
    24    19    20   ar
    25    19    23    1
    26    20    26    1
    27    33    24    1
    28    26    24   ar
    29    26    29   ar
    30    24    25   ar
    31    31    29    1
    32    29    30   ar
    33    25    28    1
    34    25    27   ar
    35    30    27   ar
    36    30    34    1
    37    27    32    1
