@<TRIPOS>MOLECULE
mol_data/opt/cam/geoms/mol2/51313.out
 25 27 0 0 0
SMALL
GASTEIGER

@<TRIPOS>ATOM
      1 C          -1.9700   -1.9143   -0.0316 C.ar    1  LIG1       -0.0237
      2 C          -0.6486   -1.8318   -0.3394 C.ar    1  LIG1       -0.0541
      3 C          -0.1522   -0.4973   -0.3057 C.ar    1  LIG1       -0.0455
      4 C          -1.1022    0.4236    0.0396 C.ar    1  LIG1        0.0355
      5 S          -2.6300   -0.3616    0.3378 S.2     1  LIG1       -0.0952
      6 H          -2.5978   -2.7924    0.0034 H       1  LIG1        0.0693
      7 H          -0.0439   -2.6920   -0.5990 H       1  LIG1        0.0623
      8 H           0.8653   -0.2210   -0.5524 H       1  LIG1        0.0629
      9 C          -0.9515    1.8583    0.1839 C.ar    1  LIG1        0.0536
     10 C           0.1465    2.6176    0.5260 C.ar    1  LIG1       -0.0353
     11 C          -0.2467    3.9774    0.5139 C.ar    1  LIG1       -0.0344
     12 C          -1.5782    4.0271    0.1647 C.ar    1  LIG1        0.0633
     13 N          -2.0016    2.7288   -0.0146 N.ar    1  LIG1       -0.3526
     14 H          -2.8595    2.4763   -0.4800 H       1  LIG1        0.1660
     15 H           1.1140    2.2241    0.8013 H       1  LIG1        0.0639
     16 H           0.3594    4.8323    0.7744 H       1  LIG1        0.0639
     17 C          -2.4809    5.1507   -0.0034 C.ar    1  LIG1        0.0629
     18 C          -2.2723    6.4130   -0.5123 C.ar    1  LIG1       -0.0350
     19 C          -3.5025    7.1166   -0.4387 C.ar    1  LIG1       -0.0438
     20 C          -4.4296    6.2678    0.1084 C.ar    1  LIG1        0.0022
     21 N          -3.8083    5.0721    0.3585 N.ar    1  LIG1       -0.3595
     22 H          -4.2061    4.3128    0.8864 H       1  LIG1        0.1654
     23 H          -5.4745    6.4122    0.3360 H       1  LIG1        0.0807
     24 H          -1.3394    6.7709   -0.9220 H       1  LIG1        0.0639
     25 H          -3.6884    8.1290   -0.7660 H       1  LIG1        0.0633
@<TRIPOS>BOND
     1    24    18    1
     2    25    19    1
     3     7     2    1
     4     8     3    1
     5    18    19   ar
     6    18    17   ar
     7    14    13    1
     8    19    20   ar
     9     2     3   ar
    10     2     1   ar
    11     3     4   ar
    12     1     6    1
    13     1     5   ar
    14    13    12   ar
    15    13     9   ar
    16    17    12    1
    17    17    21   ar
    18     4     9    1
    19     4     5   ar
    20    20    23    1
    21    20    21   ar
    22    12    11   ar
    23     9    10   ar
    24    21    22    1
    25    11    10   ar
    26    11    16    1
    27    10    15    1
