@<TRIPOS>MOLECULE
mol_data/opt/cam/geoms/mol2/51312-.out
 24 26 0 0 0
SMALL
GASTEIGER

@<TRIPOS>ATOM
      1 C          -2.0228   -1.8921   -0.0004 C.ar    1  LIG1       -0.0237
      2 C          -0.6645   -1.8475   -0.0013 C.ar    1  LIG1       -0.0541
      3 C          -0.1508   -0.5204   -0.0006 C.ar    1  LIG1       -0.0455
      4 C          -1.1274    0.4388    0.0009 C.ar    1  LIG1        0.0355
      5 S          -2.7030   -0.3046    0.0011 S.2     1  LIG1       -0.0952
      6 H          -2.6699   -2.7567   -0.0006 H       1  LIG1        0.0693
      7 H          -0.0410   -2.7330   -0.0024 H       1  LIG1        0.0623
      8 H           0.9056   -0.2835   -0.0011 H       1  LIG1        0.0629
      9 C          -0.9631    1.8787    0.0020 C.ar    1  LIG1        0.0536
     10 C           0.1871    2.6461    0.0029 C.ar    1  LIG1       -0.0352
     11 C          -0.1966    4.0032    0.0035 C.ar    1  LIG1       -0.0328
     12 C          -1.5761    4.0451    0.0036 C.ar    1  LIG1        0.0825
     13 N          -2.0264    2.7494    0.0026 N.ar    1  LIG1       -0.3514
     14 H          -2.9966    2.4795    0.0019 H       1  LIG1        0.1660
     15 H           1.1961    2.2616    0.0029 H       1  LIG1        0.0639
     16 H           0.4501    4.8670    0.0042 H       1  LIG1        0.0640
     17 C          -2.4776    5.1709    0.0044 C.ar    1  LIG1        0.1509
     18 C          -3.8358    5.2965    0.0052 C.ar    1  LIG1       -0.0144
     19 C          -4.1099    6.6990    0.0055 C.ar    1  LIG1       -0.0233
     20 C          -2.9061    7.3178    0.0056 C.ar    1  LIG1        0.0926
     21 O          -1.9022    6.4027    0.0045 O.2     1  LIG1       -0.4615
     22 H          -2.6002    8.3514    0.0059 H       1  LIG1        0.1029
     23 H          -4.5610    4.4961    0.0054 H       1  LIG1        0.0656
     24 H          -5.0783    7.1760    0.0060 H       1  LIG1        0.0649
@<TRIPOS>BOND
     1     7     2    1
     2     2     3   ar
     3     2     1   ar
     4     8     3    1
     5     3     4   ar
     6     6     1    1
     7     1     5   ar
     8     4     5   ar
     9     4     9    1
    10    14    13    1
    11     9    13   ar
    12     9    10   ar
    13    13    12   ar
    14    10    15    1
    15    10    11   ar
    16    11    12   ar
    17    11    16    1
    18    12    17    1
    19    17    21   ar
    20    17    18   ar
    21    21    20   ar
    22    18    23    1
    23    18    19   ar
    24    19    20   ar
    25    19    24    1
    26    20    22    1
