@<TRIPOS>MOLECULE
mol_data/opt/cam/geoms/mol2/51312.out
 24 26 0 0 0
SMALL
GASTEIGER

@<TRIPOS>ATOM
      1 C          -2.0198   -1.8852   -0.0004 C.ar    1  LIG1       -0.0237
      2 C          -0.6614   -1.8419   -0.0012 C.ar    1  LIG1       -0.0541
      3 C          -0.1470   -0.5152   -0.0004 C.ar    1  LIG1       -0.0455
      4 C          -1.1233    0.4444    0.0010 C.ar    1  LIG1        0.0355
      5 S          -2.6993   -0.2976    0.0017 S.2     1  LIG1       -0.0952
      6 H          -2.6671   -2.7496   -0.0008 H       1  LIG1        0.0693
      7 H          -0.0384   -2.7279   -0.0023 H       1  LIG1        0.0623
      8 H           0.9095   -0.2786   -0.0009 H       1  LIG1        0.0629
      9 C          -0.9582    1.8843    0.0020 C.ar    1  LIG1        0.0536
     10 C           0.1943    2.6503    0.0024 C.ar    1  LIG1       -0.0352
     11 C          -0.1868    4.0080    0.0036 C.ar    1  LIG1       -0.0328
     12 C          -1.5672    4.0500    0.0036 C.ar    1  LIG1        0.0825
     13 N          -2.0178    2.7563    0.0027 N.ar    1  LIG1       -0.3514
     14 H          -2.9955    2.5108    0.0025 H       1  LIG1        0.1660
     15 H           1.2029    2.2646    0.0020 H       1  LIG1        0.0639
     16 H           0.4697    4.8655    0.0043 H       1  LIG1        0.0640
     17 C          -2.4946    5.1549    0.0044 C.ar    1  LIG1        0.1509
     18 C          -2.3598    6.5099    0.0052 C.ar    1  LIG1       -0.0144
     19 C          -3.6849    7.0458    0.0054 C.ar    1  LIG1       -0.0233
     20 C          -4.5260    5.9857    0.0054 C.ar    1  LIG1        0.0926
     21 O          -3.8180    4.8231    0.0045 O.2     1  LIG1       -0.4615
     22 H          -5.5990    5.8843    0.0056 H       1  LIG1        0.1029
     23 H          -1.4307    7.0589    0.0054 H       1  LIG1        0.0656
     24 H          -3.9675    8.0877    0.0058 H       1  LIG1        0.0649
@<TRIPOS>BOND
     1     7     2    1
     2     2     1   ar
     3     2     3   ar
     4     8     3    1
     5     6     1    1
     6     1     5   ar
     7     3     4   ar
     8     4     5   ar
     9     4     9    1
    10    15    10    1
    11     9    10   ar
    12     9    13   ar
    13    10    11   ar
    14    14    13    1
    15    13    12   ar
    16    12    11   ar
    17    12    17    1
    18    11    16    1
    19    17    21   ar
    20    17    18   ar
    21    21    20   ar
    22    18    23    1
    23    18    19   ar
    24    20    19   ar
    25    20    22    1
    26    19    24    1
