@<TRIPOS>MOLECULE
mol_data/opt/cam/geoms/mol2/5134-.out
 27 29 0 0 0
SMALL
GASTEIGER

@<TRIPOS>ATOM
      1 C          -1.9616   -1.9347   -0.0160 C.ar    1  LIG1       -0.0237
      2 C          -0.6504   -1.8468   -0.3642 C.ar    1  LIG1       -0.0541
      3 C          -0.1575   -0.5111   -0.3376 C.ar    1  LIG1       -0.0455
      4 C          -1.0997    0.4044    0.0420 C.ar    1  LIG1        0.0355
      5 S          -2.6145   -0.3871    0.3833 S.2     1  LIG1       -0.0952
      6 H          -2.5853   -2.8151    0.0339 H       1  LIG1        0.0693
      7 H          -0.0515   -2.7037   -0.6473 H       1  LIG1        0.0623
      8 H           0.8511   -0.2299   -0.6134 H       1  LIG1        0.0629
      9 C          -0.9461    1.8390    0.1897 C.ar    1  LIG1        0.0536
     10 C           0.1649    2.5954    0.5018 C.ar    1  LIG1       -0.0353
     11 C          -0.2265    3.9533    0.4966 C.ar    1  LIG1       -0.0358
     12 C          -1.5712    4.0073    0.1898 C.ar    1  LIG1        0.0469
     13 N          -1.9952    2.7110    0.0213 N.ar    1  LIG1       -0.3537
     14 H          -2.8907    2.4521   -0.3614 H       1  LIG1        0.1659
     15 H           1.1399    2.2000    0.7453 H       1  LIG1        0.0639
     16 H           0.3942    4.8033    0.7396 H       1  LIG1        0.0639
     17 C          -3.8543    5.0090    0.2891 C.ar    1  LIG1       -0.0526
     18 C          -4.7084    6.0955    0.1567 C.ar    1  LIG1       -0.0611
     19 C          -2.4807    5.1455    0.0597 C.ar    1  LIG1       -0.0017
     20 C          -4.2063    7.3431   -0.1938 C.ar    1  LIG1       -0.0617
     21 H          -5.7703    5.9683    0.3412 H       1  LIG1        0.0618
     22 C          -1.9880    6.4057   -0.2970 C.ar    1  LIG1       -0.0526
     23 C          -2.8409    7.4929   -0.4149 C.ar    1  LIG1       -0.0611
     24 H          -0.9286    6.5222   -0.4994 H       1  LIG1        0.0624
     25 H          -4.8731    8.1930   -0.2930 H       1  LIG1        0.0618
     26 H          -4.2561    4.0507    0.6044 H       1  LIG1        0.0624
     27 H          -2.4388    8.4618   -0.6932 H       1  LIG1        0.0618
@<TRIPOS>BOND
     1    27    23    1
     2     7     2    1
     3     8     3    1
     4    24    22    1
     5    23    22   ar
     6    23    20   ar
     7     2     3   ar
     8     2     1   ar
     9    14    13    1
    10     3     4   ar
    11    22    19   ar
    12    25    20    1
    13    20    18   ar
    14     1     6    1
    15     1     5   ar
    16    13     9   ar
    17    13    12   ar
    18     4     9    1
    19     4     5   ar
    20    19    12    1
    21    19    17   ar
    22    18    17   ar
    23    18    21    1
    24     9    10   ar
    25    12    11   ar
    26    17    26    1
    27    11    10   ar
    28    11    16    1
    29    10    15    1
