@<TRIPOS>MOLECULE
mol_data/opt/cam/geoms/mol2/5134.out
 27 29 0 0 0
SMALL
GASTEIGER

@<TRIPOS>ATOM
      1 C          -1.9327   -1.9446   -0.0164 C.ar    1  LIG1       -0.0237
      2 C          -0.6223   -1.8461   -0.3646 C.ar    1  LIG1       -0.0541
      3 C          -0.1402   -0.5064   -0.3377 C.ar    1  LIG1       -0.0455
      4 C          -1.0897    0.4013    0.0422 C.ar    1  LIG1        0.0355
      5 S          -2.5982   -0.4024    0.3832 S.2     1  LIG1       -0.0952
      6 H          -2.5493   -2.8301    0.0333 H       1  LIG1        0.0693
      7 H          -0.0166   -2.6980   -0.6479 H       1  LIG1        0.0623
      8 H           0.8660   -0.2170   -0.6134 H       1  LIG1        0.0629
      9 C          -0.9478    1.8371    0.1902 C.ar    1  LIG1        0.0536
     10 C           0.1571    2.6024    0.5023 C.ar    1  LIG1       -0.0353
     11 C          -0.2454    3.9571    0.4976 C.ar    1  LIG1       -0.0358
     12 C          -1.5906    4.0002    0.1911 C.ar    1  LIG1        0.0469
     13 N          -2.0041    2.7005    0.0227 N.ar    1  LIG1       -0.3537
     14 H          -2.8969    2.4345   -0.3615 H       1  LIG1        0.1659
     15 H           1.1354    2.2150    0.7457 H       1  LIG1        0.0639
     16 H           0.3684    4.8120    0.7409 H       1  LIG1        0.0639
     17 C          -2.0269    6.3955   -0.2939 C.ar    1  LIG1       -0.0526
     18 C          -2.8888    7.4757   -0.4113 C.ar    1  LIG1       -0.0611
     19 C          -2.5093    5.1310    0.0616 C.ar    1  LIG1       -0.0017
     20 C          -4.2530    7.3145   -0.1910 C.ar    1  LIG1       -0.0617
     21 H          -2.4945    8.4481   -0.6887 H       1  LIG1        0.0618
     22 C          -3.8819    4.9830    0.2901 C.ar    1  LIG1       -0.0526
     23 C          -4.7449    6.0625    0.1582 C.ar    1  LIG1       -0.0611
     24 H          -4.2760    4.0212    0.6045 H       1  LIG1        0.0624
     25 H          -4.9268    8.1590   -0.2899 H       1  LIG1        0.0618
     26 H          -0.9684    6.5210   -0.4957 H       1  LIG1        0.0624
     27 H          -5.8058    5.9264    0.3420 H       1  LIG1        0.0618
@<TRIPOS>BOND
     1    21    18    1
     2     7     2    1
     3     8     3    1
     4    26    17    1
     5    18    17   ar
     6    18    20   ar
     7     2     3   ar
     8     2     1   ar
     9    14    13    1
    10     3     4   ar
    11    17    19   ar
    12    25    20    1
    13    20    23   ar
    14     1     6    1
    15     1     5   ar
    16    13     9   ar
    17    13    12   ar
    18     4     9    1
    19     4     5   ar
    20    19    12    1
    21    19    22   ar
    22    23    22   ar
    23    23    27    1
    24     9    10   ar
    25    12    11   ar
    26    22    24    1
    27    11    10   ar
    28    11    16    1
    29    10    15    1
