@<TRIPOS>MOLECULE
mol_data/opt/cam/geoms/mol2/5135-4-.out
 34 37 0 0 0
SMALL
GASTEIGER

@<TRIPOS>ATOM
      1 C          -1.9670   -2.0227   -0.0414 C.ar    1  LIG1       -0.0237
      2 C          -0.7174   -1.9264   -0.5682 C.ar    1  LIG1       -0.0541
      3 C          -0.2208   -0.5919   -0.5775 C.ar    1  LIG1       -0.0455
      4 C          -1.0973    0.3134   -0.0464 C.ar    1  LIG1        0.0355
      5 S          -2.5521   -0.4860    0.4840 S.2     1  LIG1       -0.0952
      6 H          -2.5804   -2.9042    0.0741 H       1  LIG1        0.0693
      7 H          -0.1673   -2.7759   -0.9538 H       1  LIG1        0.0623
      8 H           0.7401   -0.3039   -0.9849 H       1  LIG1        0.0629
      9 C          -0.9187    1.7436    0.1134 C.ar    1  LIG1        0.0536
     10 C           0.2296    2.4903    0.2857 C.ar    1  LIG1       -0.0353
     11 C          -0.1501    3.8475    0.3780 C.ar    1  LIG1       -0.0353
     12 C          -1.5251    3.9088    0.2660 C.ar    1  LIG1        0.0536
     13 N          -1.9771    2.6200    0.1164 N.ar    1  LIG1       -0.3533
     14 H          -2.9214    2.3765   -0.1374 H       1  LIG1        0.1659
     15 H           1.2274    2.0872    0.3748 H       1  LIG1        0.0639
     16 H           0.5011    4.6923    0.5491 H       1  LIG1        0.0639
     17 C          -2.4416    5.0299    0.2981 C.ar    1  LIG1        0.0361
     18 C          -3.7663    5.0405    0.6456 C.ar    1  LIG1       -0.0449
     19 C          -4.3580    6.3279    0.5587 C.ar    1  LIG1       -0.0463
     20 C          -3.4906    7.3037    0.1519 C.ar    1  LIG1        0.0200
     21 S          -1.9188    6.6211   -0.1597 S.2     1  LIG1       -0.0868
     22 H          -4.2939    4.1619    0.9980 H       1  LIG1        0.0630
     23 H          -5.3859    6.5329    0.8315 H       1  LIG1        0.0629
     24 C          -5.0353    9.1752   -0.3843 C.ar    1  LIG1       -0.0535
     25 C          -5.3034   10.5271   -0.5421 C.ar    1  LIG1       -0.0612
     26 C          -3.7539    8.7364   -0.0312 C.ar    1  LIG1       -0.0113
     27 C          -4.2946   11.4680   -0.3659 C.ar    1  LIG1       -0.0617
     28 H          -6.3036   10.8466   -0.8167 H       1  LIG1        0.0618
     29 C          -2.7479    9.6924    0.1443 C.ar    1  LIG1       -0.0535
     30 C          -3.0155   11.0436   -0.0260 C.ar    1  LIG1       -0.0612
     31 H          -1.7515    9.3747    0.4348 H       1  LIG1        0.0624
     32 H          -4.5038   12.5246   -0.4957 H       1  LIG1        0.0618
     33 H          -5.8195    8.4455   -0.5551 H       1  LIG1        0.0624
     34 H          -2.2212   11.7690    0.1168 H       1  LIG1        0.0618
@<TRIPOS>BOND
     1     8     3    1
     2     7     2    1
     3    28    25    1
     4     3     2   ar
     5     3     4   ar
     6     2     1   ar
     7    33    24    1
     8    25    24   ar
     9    25    27   ar
    10    32    27    1
    11    24    26   ar
    12    27    30   ar
    13    21    20   ar
    14    21    17   ar
    15    14    13    1
    16     4     9    1
    17     4     5   ar
    18     1     6    1
    19     1     5   ar
    20    26    29   ar
    21    26    20    1
    22    30    34    1
    23    30    29   ar
    24     9    13   ar
    25     9    10   ar
    26    13    12   ar
    27    29    31    1
    28    20    19   ar
    29    12    17    1
    30    12    11   ar
    31    10    15    1
    32    10    11   ar
    33    17    18   ar
    34    11    16    1
    35    19    18   ar
    36    19    23    1
    37    18    22    1
