@<TRIPOS>MOLECULE
mol_data/opt/cam/geoms/mol2/5135-.out
 24 26 0 0 0
SMALL
GASTEIGER

@<TRIPOS>ATOM
      1 C          -1.9795   -1.9318   -0.0012 C.ar    1  LIG1       -0.0237
      2 C          -0.6218   -1.8706   -0.0019 C.ar    1  LIG1       -0.0541
      3 C          -0.1245   -0.5373   -0.0008 C.ar    1  LIG1       -0.0455
      4 C          -1.1129    0.4098    0.0009 C.ar    1  LIG1        0.0355
      5 S          -2.6791   -0.3529    0.0014 S.2     1  LIG1       -0.0952
      6 H          -2.6157   -2.8044   -0.0018 H       1  LIG1        0.0693
      7 H           0.0125   -2.7484   -0.0034 H       1  LIG1        0.0623
      8 H           0.9289   -0.2875   -0.0013 H       1  LIG1        0.0629
      9 C          -0.9660    1.8516    0.0023 C.ar    1  LIG1        0.0536
     10 C           0.1749    2.6323    0.0033 C.ar    1  LIG1       -0.0353
     11 C          -0.2278    3.9831    0.0046 C.ar    1  LIG1       -0.0353
     12 C          -1.6094    4.0138    0.0040 C.ar    1  LIG1        0.0536
     13 N          -2.0384    2.7096    0.0027 N.ar    1  LIG1       -0.3533
     14 H          -3.0044    2.4261    0.0014 H       1  LIG1        0.1659
     15 H           1.1889    2.2615    0.0033 H       1  LIG1        0.0639
     16 H           0.4191    4.8484    0.0060 H       1  LIG1        0.0639
     17 C          -2.5388    5.1251    0.0047 C.ar    1  LIG1        0.0355
     18 C          -3.9086    5.1039    0.0070 C.ar    1  LIG1       -0.0455
     19 C          -4.4925    6.4024    0.0067 C.ar    1  LIG1       -0.0541
     20 C          -3.5648    7.3955    0.0041 C.ar    1  LIG1       -0.0237
     21 S          -1.9583    6.7642    0.0028 S.2     1  LIG1       -0.0952
     22 H          -3.7257    8.4635    0.0033 H       1  LIG1        0.0693
     23 H          -4.4963    4.1933    0.0091 H       1  LIG1        0.0629
     24 H          -5.5605    6.5813    0.0082 H       1  LIG1        0.0623
@<TRIPOS>BOND
     1     7     2    1
     2     2     1   ar
     3     2     3   ar
     4     6     1    1
     5     8     3    1
     6     1     5   ar
     7     3     4   ar
     8     4     5   ar
     9     4     9    1
    10    14    13    1
    11     9    13   ar
    12     9    10   ar
    13    13    12   ar
    14    21    20   ar
    15    21    17   ar
    16    10    15    1
    17    10    11   ar
    18    22    20    1
    19    12    11   ar
    20    12    17    1
    21    20    19   ar
    22    11    16    1
    23    17    18   ar
    24    19    18   ar
    25    19    24    1
    26    18    23    1
