@<TRIPOS>MOLECULE
mol_data/opt/cam/geoms/mol2/5135.out
 24 26 0 0 0
SMALL
GASTEIGER

@<TRIPOS>ATOM
      1 C          -1.9639   -1.9031    0.1024 C.ar    1  LIG1       -0.0237
      2 C          -0.6688   -1.8233   -0.3035 C.ar    1  LIG1       -0.0541
      3 C          -0.1757   -0.4878   -0.3244 C.ar    1  LIG1       -0.0455
      4 C          -1.1014    0.4352    0.0773 C.ar    1  LIG1        0.0355
      5 S          -2.6000   -0.3479    0.4981 S.2     1  LIG1       -0.0952
      6 H          -2.5846   -2.7820    0.1968 H       1  LIG1        0.0693
      7 H          -0.0825   -2.6861   -0.5949 H       1  LIG1        0.0623
      8 H           0.8201   -0.2126   -0.6485 H       1  LIG1        0.0629
      9 C          -0.9393    1.8721    0.1895 C.ar    1  LIG1        0.0536
     10 C           0.1863    2.6299    0.4423 C.ar    1  LIG1       -0.0353
     11 C          -0.1995    3.9889    0.4368 C.ar    1  LIG1       -0.0353
     12 C          -1.5549    4.0404    0.1808 C.ar    1  LIG1        0.0536
     13 N          -1.9918    2.7443    0.0463 N.ar    1  LIG1       -0.3533
     14 H          -2.9088    2.4826   -0.2817 H       1  LIG1        0.1659
     15 H           1.1695    2.2346    0.6501 H       1  LIG1        0.0639
     16 H           0.4290    4.8434    0.6395 H       1  LIG1        0.0639
     17 C          -2.4476    5.1768    0.0583 C.ar    1  LIG1        0.0355
     18 C          -2.1444    6.4455   -0.3523 C.ar    1  LIG1       -0.0455
     19 C          -3.2658    7.3227   -0.3404 C.ar    1  LIG1       -0.0541
     20 C          -4.4103    6.7130    0.0680 C.ar    1  LIG1       -0.0237
     21 S          -4.1349    5.0587    0.4769 S.2     1  LIG1       -0.0952
     22 H          -5.4005    7.1352    0.1573 H       1  LIG1        0.0693
     23 H          -1.1519    6.7323   -0.6766 H       1  LIG1        0.0629
     24 H          -3.2198    8.3625   -0.6397 H       1  LIG1        0.0623
@<TRIPOS>BOND
     1    23    18    1
     2     8     3    1
     3    24    19    1
     4     7     2    1
     5    18    19   ar
     6    18    17   ar
     7    19    20   ar
     8     3     2   ar
     9     3     4   ar
    10     2     1   ar
    11    14    13    1
    12    13    12   ar
    13    13     9   ar
    14    17    12    1
    15    17    21   ar
    16    20    22    1
    17    20    21   ar
    18     4     9    1
    19     4     5   ar
    20     1     6    1
    21     1     5   ar
    22    12    11   ar
    23     9    10   ar
    24    11    10   ar
    25    11    16    1
    26    10    15    1
