@<TRIPOS>MOLECULE
mol_data/opt/cam/geoms/mol2/5138-5.out
 30 33 0 0 0
SMALL
GASTEIGER

@<TRIPOS>ATOM
      1 C          -2.0506   -1.8887   -0.0002 C.ar    1  LIG1       -0.0237
      2 C          -0.6909   -1.8618   -0.0010 C.ar    1  LIG1       -0.0541
      3 C          -0.1645   -0.5408   -0.0004 C.ar    1  LIG1       -0.0455
      4 C          -1.1330    0.4267    0.0011 C.ar    1  LIG1        0.0355
      5 S          -2.7154   -0.2975    0.0019 S.2     1  LIG1       -0.0952
      6 H          -2.7064   -2.7468   -0.0006 H       1  LIG1        0.0693
      7 H          -0.0778   -2.7542   -0.0022 H       1  LIG1        0.0623
      8 H           0.8942   -0.3141   -0.0010 H       1  LIG1        0.0629
      9 C          -0.9472    1.8645    0.0020 C.ar    1  LIG1        0.0536
     10 C           0.2282    2.6079    0.0019 C.ar    1  LIG1       -0.0352
     11 C          -0.1222    3.9675    0.0034 C.ar    1  LIG1       -0.0326
     12 C          -1.5039    4.0339    0.0035 C.ar    1  LIG1        0.0880
     13 N          -1.9849    2.7493    0.0029 N.ar    1  LIG1       -0.3512
     14 H          -2.9728    2.5400    0.0030 H       1  LIG1        0.1660
     15 H           1.2272    2.1987    0.0012 H       1  LIG1        0.0639
     16 H           0.5395    4.8200    0.0040 H       1  LIG1        0.0640
     17 C          -2.4071    5.1545    0.0043 C.ar    1  LIG1        0.2194
     18 N          -3.7234    4.8863    0.0044 N.ar    1  LIG1       -0.1237
     19 C          -4.0415    7.1306    0.0061 C.ar    1  LIG1        0.2099
     20 N          -1.8904    6.3998    0.0051 N.ar    1  LIG1       -0.1237
     21 N          -4.5542    5.8932    0.0053 N.ar    1  LIG1       -0.1246
     22 N          -2.7215    7.3999    0.0060 N.ar    1  LIG1       -0.1246
     23 C          -4.9627    8.2537    0.0070 C.ar    1  LIG1        0.0598
     24 C          -4.6462    9.5856    0.0078 C.ar    1  LIG1       -0.0438
     25 C          -5.7946   10.4191    0.0088 C.ar    1  LIG1       -0.0540
     26 C          -6.9555    9.7033    0.0087 C.ar    1  LIG1       -0.0236
     27 S          -6.6792    8.0059    0.0070 S.2     1  LIG1       -0.0934
     28 H          -7.9673   10.0834    0.0094 H       1  LIG1        0.0693
     29 H          -3.6226    9.9361    0.0078 H       1  LIG1        0.0630
     30 H          -5.7571   11.5010    0.0096 H       1  LIG1        0.0623
@<TRIPOS>BOND
     1     7     2    1
     2     8     3    1
     3     2     3   ar
     4     2     1   ar
     5     6     1    1
     6     3     4   ar
     7     1     5   ar
     8     4     5   ar
     9     4     9    1
    10    15    10    1
    11    10     9   ar
    12    10    11   ar
    13     9    13   ar
    14    13    14    1
    15    13    12   ar
    16    11    12   ar
    17    11    16    1
    18    12    17    1
    19    17    18   ar
    20    17    20   ar
    21    18    21   ar
    22    20    22   ar
    23    21    19   ar
    24    22    19   ar
    25    19    23    1
    26    23    27   ar
    27    23    24   ar
    28    27    26   ar
    29    29    24    1
    30    24    25   ar
    31    26    25   ar
    32    26    28    1
    33    25    30    1
