@<TRIPOS>MOLECULE
mol_data/opt/cam/geoms/mol2/5138-12-.out
 30 33 0 0 0
SMALL
GASTEIGER

@<TRIPOS>ATOM
      1 C          -2.0936   -1.8649   -0.0003 C.ar    1  LIG1       -0.0237
      2 C          -0.7337   -1.8508   -0.0011 C.ar    1  LIG1       -0.0541
      3 C          -0.1948   -0.5347   -0.0004 C.ar    1  LIG1       -0.0455
      4 C          -1.1540    0.4419    0.0008 C.ar    1  LIG1        0.0355
      5 S          -2.7433   -0.2672    0.0010 S.2     1  LIG1       -0.0952
      6 H          -2.7577   -2.7166   -0.0005 H       1  LIG1        0.0693
      7 H          -0.1290   -2.7490   -0.0021 H       1  LIG1        0.0623
      8 H           0.8660   -0.3179   -0.0008 H       1  LIG1        0.0629
      9 C          -0.9555    1.8782    0.0018 C.ar    1  LIG1        0.0536
     10 C           0.2263    2.6115    0.0023 C.ar    1  LIG1       -0.0352
     11 C          -0.1123    3.9740    0.0030 C.ar    1  LIG1       -0.0326
     12 C          -1.4935    4.0523    0.0036 C.ar    1  LIG1        0.0880
     13 N          -1.9855    2.7717    0.0026 N.ar    1  LIG1       -0.3512
     14 H          -2.9751    2.5711    0.0026 H       1  LIG1        0.1660
     15 H           1.2217    2.1934    0.0019 H       1  LIG1        0.0639
     16 H           0.5561    4.8213    0.0033 H       1  LIG1        0.0640
     17 C          -2.3869    5.1809    0.0047 C.ar    1  LIG1        0.2194
     18 N          -3.7075    4.9200    0.0049 N.ar    1  LIG1       -0.1236
     19 C          -4.0048    7.1636    0.0065 C.ar    1  LIG1        0.2381
     20 N          -1.8629    6.4202    0.0054 N.ar    1  LIG1       -0.1236
     21 N          -4.5315    5.9295    0.0058 N.ar    1  LIG1       -0.1220
     22 N          -2.6877    7.4295    0.0063 N.ar    1  LIG1       -0.1220
     23 C          -4.9449    8.2682    0.0075 C.ar    1  LIG1        0.1751
     24 C          -6.3081    8.2945    0.0079 C.ar    1  LIG1       -0.0126
     25 C          -6.6758    9.6695    0.0090 C.ar    1  LIG1       -0.0232
     26 C          -5.5105   10.3676    0.0092 C.ar    1  LIG1        0.0927
     27 O          -4.4499    9.5326    0.0082 O.2     1  LIG1       -0.4597
     28 H          -5.2789   11.4209    0.0099 H       1  LIG1        0.1029
     29 H          -6.9527    7.4294    0.0074 H       1  LIG1        0.0656
     30 H          -7.6730   10.0827    0.0095 H       1  LIG1        0.0649
@<TRIPOS>BOND
     1     7     2    1
     2     2     3   ar
     3     2     1   ar
     4     8     3    1
     5     6     1    1
     6     3     4   ar
     7     1     5   ar
     8     4     5   ar
     9     4     9    1
    10     9    10   ar
    11     9    13   ar
    12    15    10    1
    13    10    11   ar
    14    14    13    1
    15    13    12   ar
    16    11    16    1
    17    11    12   ar
    18    12    17    1
    19    17    18   ar
    20    17    20   ar
    21    18    21   ar
    22    20    22   ar
    23    21    19   ar
    24    22    19   ar
    25    19    23    1
    26    29    24    1
    27    23    24   ar
    28    23    27   ar
    29    24    25   ar
    30    27    26   ar
    31    25    26   ar
    32    25    30    1
    33    26    28    1
