@<TRIPOS>MOLECULE
mol_data/opt/cam/geoms/mol2/54-.out
 19 20 0 0 0
SMALL
GASTEIGER

@<TRIPOS>ATOM
      1 C          -2.0086   -1.8631    0.2898 C.ar    1  LIG1       -0.0237
      2 C          -0.7342   -1.8251   -0.1837 C.ar    1  LIG1       -0.0541
      3 C          -0.2401   -0.4971   -0.3211 C.ar    1  LIG1       -0.0469
      4 C          -1.1426    0.4611    0.0492 C.ar    1  LIG1        0.0193
      5 S          -2.6237   -0.2800    0.5825 S.2     1  LIG1       -0.0967
      6 H          -2.6234   -2.7293    0.4872 H       1  LIG1        0.0693
      7 H          -0.1639   -2.7105   -0.4361 H       1  LIG1        0.0623
      8 H           0.7427   -0.2581   -0.7086 H       1  LIG1        0.0629
      9 C          -2.0539    2.7808   -0.1771 C.ar    1  LIG1       -0.0535
     10 C          -1.8748    4.1572   -0.1896 C.ar    1  LIG1       -0.0612
     11 C          -0.9724    1.9212    0.0402 C.ar    1  LIG1       -0.0113
     12 C          -0.6108    4.7016    0.0054 C.ar    1  LIG1       -0.0617
     13 H          -2.7267    4.8069   -0.3618 H       1  LIG1        0.0618
     14 C           0.2931    2.4811    0.2459 C.ar    1  LIG1       -0.0535
     15 C           0.4724    3.8568    0.2212 C.ar    1  LIG1       -0.0612
     16 H           1.1368    1.8293    0.4459 H       1  LIG1        0.0624
     17 H          -0.4709    5.7774   -0.0078 H       1  LIG1        0.0618
     18 H          -3.0407    2.3654   -0.3553 H       1  LIG1        0.0624
     19 H           1.4621    4.2715    0.3836 H       1  LIG1        0.0618
@<TRIPOS>BOND
     1     8     3    1
     2     7     2    1
     3    13    10    1
     4    18     9    1
     5     3     2   ar
     6     3     4   ar
     7    10     9   ar
     8    10    12   ar
     9     2     1   ar
    10     9    11   ar
    11    17    12    1
    12    12    15   ar
    13    11     4    1
    14    11    14   ar
    15     4     5   ar
    16    15    14   ar
    17    15    19    1
    18    14    16    1
    19     1     6    1
    20     1     5   ar
