@<TRIPOS>MOLECULE
mol_data/opt/cam/geoms/mol2/54-1312-.out
 34 37 0 0 0
SMALL
GASTEIGER

@<TRIPOS>ATOM
      1 C          -2.0413   -2.0258    0.0010 C.ar    1  LIG1       -0.0237
      2 C          -0.6822   -1.9948    0.0001 C.ar    1  LIG1       -0.0541
      3 C          -0.1644   -0.6697   -0.0003 C.ar    1  LIG1       -0.0469
      4 C          -1.1314    0.2995    0.0004 C.ar    1  LIG1        0.0193
      5 S          -2.7107   -0.4384    0.0014 S.2     1  LIG1       -0.0967
      6 H          -2.6926   -2.8877    0.0015 H       1  LIG1        0.0693
      7 H          -0.0631   -2.8833   -0.0004 H       1  LIG1        0.0623
      8 H           0.8960   -0.4518   -0.0011 H       1  LIG1        0.0629
      9 C          -2.0621    2.6258   -0.0010 C.ar    1  LIG1       -0.0529
     10 C          -1.8948    4.0006   -0.0011 C.ar    1  LIG1       -0.0520
     11 C          -0.9665    1.7583    0.0003 C.ar    1  LIG1       -0.0113
     12 C          -0.6222    4.5810    0.0002 C.ar    1  LIG1       -0.0017
     13 H          -2.7864    4.6198   -0.0023 H       1  LIG1        0.0624
     14 C           0.3087    2.3392    0.0016 C.ar    1  LIG1       -0.0529
     15 C           0.4759    3.7104    0.0016 C.ar    1  LIG1       -0.0520
     16 H           1.1897    1.7075    0.0029 H       1  LIG1        0.0624
     17 H          -3.0707    2.2251   -0.0022 H       1  LIG1        0.0624
     18 H           1.4809    4.1171    0.0027 H       1  LIG1        0.0624
     19 C          -0.4197    6.0267    0.0002 C.ar    1  LIG1        0.0470
     20 C           0.7441    6.7751    0.0000 C.ar    1  LIG1       -0.0357
     21 C           0.3906    8.1398   -0.0000 C.ar    1  LIG1       -0.0328
     22 C          -0.9879    8.2085    0.0002 C.ar    1  LIG1        0.0825
     23 N          -1.4625    6.9229    0.0003 N.ar    1  LIG1       -0.3518
     24 H          -2.4375    6.6770    0.0006 H       1  LIG1        0.1660
     25 H           1.7485    6.3790   -0.0002 H       1  LIG1        0.0639
     26 H           1.0553    8.9899   -0.0002 H       1  LIG1        0.0640
     27 C          -1.8679    9.3515    0.0004 C.ar    1  LIG1        0.1509
     28 C          -3.2237    9.5026    0.0008 C.ar    1  LIG1       -0.0144
     29 C          -3.4719   10.9098    0.0008 C.ar    1  LIG1       -0.0233
     30 C          -2.2569   11.5061    0.0004 C.ar    1  LIG1        0.0926
     31 O          -1.2702   10.5725    0.0001 O.2     1  LIG1       -0.4615
     32 H          -1.9318   12.5339    0.0002 H       1  LIG1        0.1029
     33 H          -3.9639    8.7159    0.0012 H       1  LIG1        0.0656
     34 H          -4.4314   11.4046    0.0011 H       1  LIG1        0.0649
@<TRIPOS>BOND
     1    13    10    1
     2    17     9    1
     3     8     3    1
     4    10     9   ar
     5    10    12   ar
     6     9    11   ar
     7     7     2    1
     8     3     2   ar
     9     3     4   ar
    10    25    20    1
    11    26    21    1
    12    21    20   ar
    13    21    22   ar
    14    20    19   ar
    15     2     1   ar
    16    31    30   ar
    17    31    27   ar
    18    19    12    1
    19    19    23   ar
    20    12    15   ar
    21    32    30    1
    22    22    23   ar
    23    22    27    1
    24    23    24    1
    25    11     4    1
    26    11    14   ar
    27    30    29   ar
    28     4     5   ar
    29    27    28   ar
    30    29    28   ar
    31    29    34    1
    32    28    33    1
    33     1     5   ar
    34     1     6    1
    35    15    14   ar
    36    15    18    1
    37    14    16    1
