@<TRIPOS>MOLECULE
mol_data/opt/cam/geoms/mol2/54-13-8-.out
 33 36 0 0 0
SMALL
GASTEIGER

@<TRIPOS>ATOM
      1 C          -2.1489   -1.9799    0.0014 C.ar    1  LIG1       -0.0237
      2 C          -0.7891   -1.9794    0.0003 C.ar    1  LIG1       -0.0541
      3 C          -0.2428   -0.6664   -0.0002 C.ar    1  LIG1       -0.0469
      4 C          -1.1891    0.3233    0.0005 C.ar    1  LIG1        0.0193
      5 S          -2.7838   -0.3794    0.0017 S.2     1  LIG1       -0.0967
      6 H          -2.8188   -2.8274    0.0021 H       1  LIG1        0.0693
      7 H          -0.1899   -2.8814   -0.0001 H       1  LIG1        0.0623
      8 H           0.8221   -0.4718   -0.0012 H       1  LIG1        0.0629
      9 C          -2.0714    2.6695   -0.0008 C.ar    1  LIG1       -0.0529
     10 C          -1.8763    4.0385   -0.0010 C.ar    1  LIG1       -0.0520
     11 C          -0.9922    1.7781    0.0004 C.ar    1  LIG1       -0.0113
     12 C          -0.5900    4.5879    0.0000 C.ar    1  LIG1       -0.0017
     13 H          -2.7409    4.6924   -0.0020 H       1  LIG1        0.0624
     14 C           0.2944    2.3290    0.0014 C.ar    1  LIG1       -0.0529
     15 C           0.4902    3.6985    0.0012 C.ar    1  LIG1       -0.0520
     16 H           1.1616    1.6789    0.0025 H       1  LIG1        0.0624
     17 H          -3.0878    2.2893   -0.0017 H       1  LIG1        0.0624
     18 H           1.5108    4.0677    0.0022 H       1  LIG1        0.0624
     19 C          -0.4043    6.0382   -0.0002 C.ar    1  LIG1        0.0470
     20 C          -1.3440    7.0656    0.0004 C.ar    1  LIG1       -0.0357
     21 C          -0.6547    8.2877    0.0000 C.ar    1  LIG1       -0.0326
     22 C           0.6967    7.9910   -0.0012 C.ar    1  LIG1        0.0879
     23 N           0.8253    6.6260   -0.0011 N.ar    1  LIG1       -0.3516
     24 H           1.7253    6.1717   -0.0019 H       1  LIG1        0.1660
     25 H          -2.4159    6.9393    0.0012 H       1  LIG1        0.0639
     26 H          -1.0721    9.2829    0.0004 H       1  LIG1        0.0640
     27 C           1.8610    8.8359   -0.0022 C.ar    1  LIG1        0.2193
     28 N           1.6854   10.1724   -0.0021 N.ar    1  LIG1       -0.1243
     29 C           3.9429   10.2998   -0.0037 C.ar    1  LIG1        0.1605
     30 N           3.0607    8.2261   -0.0031 N.ar    1  LIG1       -0.1243
     31 N           2.7582   10.9174   -0.0029 N.ar    1  LIG1       -0.1338
     32 N           4.1302    8.9823   -0.0039 N.ar    1  LIG1       -0.1338
     33 H           4.8266   10.9269   -0.0047 H       1  LIG1        0.1085
@<TRIPOS>BOND
     1    33    29    1
     2    32    29   ar
     3    32    30   ar
     4    29    31   ar
     5    30    27   ar
     6    31    28   ar
     7    27    28   ar
     8    27    22    1
     9    13    10    1
    10    24    23    1
    11    17     9    1
    12     8     3    1
    13    22    23   ar
    14    22    21   ar
    15    23    19   ar
    16    10     9   ar
    17    10    12   ar
    18     9    11   ar
    19     3     2   ar
    20     3     4   ar
    21    19    12    1
    22    19    20   ar
    23     7     2    1
    24    21    20   ar
    25    21    26    1
    26    12    15   ar
    27     2     1   ar
    28    11     4    1
    29    11    14   ar
    30    20    25    1
    31     4     5   ar
    32    15    14   ar
    33    15    18    1
    34    14    16    1
    35     1     5   ar
    36     1     6    1
