@<TRIPOS>MOLECULE
mol_data/opt/cam/geoms/mol2/54-13.out
 27 29 0 0 0
SMALL
GASTEIGER

@<TRIPOS>ATOM
      1 C          -2.0699   -1.9586    0.0012 C.ar    1  LIG1       -0.0237
      2 C          -0.7108   -1.9319   -0.0003 C.ar    1  LIG1       -0.0541
      3 C          -0.1885   -0.6084   -0.0007 C.ar    1  LIG1       -0.0469
      4 C          -1.1522    0.3641    0.0004 C.ar    1  LIG1        0.0193
      5 S          -2.7338   -0.3687    0.0021 S.2     1  LIG1       -0.0967
      6 H          -2.7239   -2.8184    0.0018 H       1  LIG1        0.0693
      7 H          -0.0945   -2.8223   -0.0011 H       1  LIG1        0.0623
      8 H           0.8724   -0.3938   -0.0020 H       1  LIG1        0.0629
      9 C          -2.0747    2.6940   -0.0010 C.ar    1  LIG1       -0.0529
     10 C          -1.9024    4.0685   -0.0011 C.ar    1  LIG1       -0.0520
     11 C          -0.9824    1.8227    0.0004 C.ar    1  LIG1       -0.0113
     12 C          -0.6283    4.6448    0.0004 C.ar    1  LIG1       -0.0017
     13 H          -2.7919    4.6908   -0.0025 H       1  LIG1        0.0624
     14 C           0.2945    2.3993    0.0019 C.ar    1  LIG1       -0.0529
     15 C           0.4662    3.7702    0.0019 C.ar    1  LIG1       -0.0520
     16 H           1.1734    1.7647    0.0033 H       1  LIG1        0.0624
     17 H          -3.0850    2.2971   -0.0024 H       1  LIG1        0.0624
     18 H           1.4726    4.1734    0.0032 H       1  LIG1        0.0624
     19 C          -0.4205    6.0917    0.0004 C.ar    1  LIG1        0.0465
     20 C           0.7439    6.8357   -0.0003 C.ar    1  LIG1       -0.0364
     21 C           0.3902    8.2060   -0.0002 C.ar    1  LIG1       -0.0438
     22 C          -0.9805    8.2715    0.0012 C.ar    1  LIG1        0.0022
     23 N          -1.4606    6.9926    0.0012 N.ar    1  LIG1       -0.3607
     24 H          -2.4361    6.7495    0.0023 H       1  LIG1        0.1653
     25 H          -1.6490    9.1188    0.0019 H       1  LIG1        0.0807
     26 H           1.7473    6.4369   -0.0011 H       1  LIG1        0.0639
     27 H           1.0654    9.0489   -0.0009 H       1  LIG1        0.0633
@<TRIPOS>BOND
     1    13    10    1
     2    17     9    1
     3     8     3    1
     4    26    20    1
     5     7     2    1
     6    10     9   ar
     7    10    12   ar
     8     9    11   ar
     9    27    21    1
    10     3     2   ar
    11     3     4   ar
    12     2     1   ar
    13    20    21   ar
    14    20    19   ar
    15    21    22   ar
    16    12    19    1
    17    12    15   ar
    18    19    23   ar
    19    11     4    1
    20    11    14   ar
    21     4     5   ar
    22     1     6    1
    23     1     5   ar
    24    22    23   ar
    25    22    25    1
    26    23    24    1
    27    15    14   ar
    28    15    18    1
    29    14    16    1
