@<TRIPOS>MOLECULE
mol_data/opt/cam/geoms/mol2/54-44.out
 39 42 0 0 0
SMALL
GASTEIGER

@<TRIPOS>ATOM
      1 C          -2.0569   -2.0905   -0.1028 C.ar    1  LIG1       -0.0237
      2 C          -0.7090   -2.0536    0.0754 C.ar    1  LIG1       -0.0541
      3 C          -0.1988   -0.7257    0.1237 C.ar    1  LIG1       -0.0469
      4 C          -1.1630    0.2340   -0.0181 C.ar    1  LIG1        0.0193
      5 S          -2.7265   -0.5060   -0.2074 S.2     1  LIG1       -0.0967
      6 H          -2.6985   -2.9566   -0.1765 H       1  LIG1        0.0693
      7 H          -0.0933   -2.9404    0.1616 H       1  LIG1        0.0623
      8 H           0.8526   -0.4890    0.2312 H       1  LIG1        0.0629
      9 C          -1.8544    2.5307   -0.7371 C.ar    1  LIG1       -0.0530
     10 C          -1.6805    3.9055   -0.7298 C.ar    1  LIG1       -0.0534
     11 C          -0.9985    1.6933   -0.0155 C.ar    1  LIG1       -0.0113
     12 C          -0.6414    4.4997   -0.0084 C.ar    1  LIG1       -0.0178
     13 H          -2.3435    4.5276   -1.3219 H       1  LIG1        0.0624
     14 C           0.0363    2.2867    0.7150 C.ar    1  LIG1       -0.0530
     15 C           0.2139    3.6605    0.7123 C.ar    1  LIG1       -0.0534
     16 H           0.6910    1.6632    1.3143 H       1  LIG1        0.0624
     17 H          -2.6512    2.0978   -1.3334 H       1  LIG1        0.0624
     18 H           1.0089    4.0945    1.3097 H       1  LIG1        0.0624
     19 C           0.8248    6.5338   -0.0182 C.ar    1  LIG1       -0.0535
     20 C           1.0006    7.9089   -0.0139 C.ar    1  LIG1       -0.0535
     21 C          -0.4537    5.9693   -0.0047 C.ar    1  LIG1       -0.0178
     22 C          -0.0945    8.7768    0.0020 C.ar    1  LIG1       -0.0178
     23 H           2.0057    8.3180   -0.0081 H       1  LIG1        0.0624
     24 C          -1.5490    6.8374    0.0123 C.ar    1  LIG1       -0.0535
     25 C          -1.3728    8.2125    0.0144 C.ar    1  LIG1       -0.0535
     26 H          -2.5540    6.4290    0.0400 H       1  LIG1        0.0624
     27 H           1.6945    5.8856   -0.0482 H       1  LIG1        0.0624
     28 H          -2.2426    8.8614    0.0112 H       1  LIG1        0.0624
     29 C           1.1021   10.8431   -0.7586 C.ar    1  LIG1       -0.0540
     30 C           1.2790   12.2203   -0.7558 C.ar    1  LIG1       -0.0612
     31 C           0.0937   10.2479    0.0052 C.ar    1  LIG1       -0.0179
     32 C           0.4496   13.0310    0.0105 C.ar    1  LIG1       -0.0617
     33 H           2.0634   12.6626   -1.3618 H       1  LIG1        0.0618
     34 C          -0.7328   11.0748    0.7716 C.ar    1  LIG1       -0.0540
     35 C          -0.5575   12.4522    0.7741 C.ar    1  LIG1       -0.0612
     36 H          -1.5058   10.6299    1.3899 H       1  LIG1        0.0624
     37 H           0.5872   14.1073    0.0125 H       1  LIG1        0.0618
     38 H           1.7385   10.2203   -1.3790 H       1  LIG1        0.0624
     39 H          -1.2057   13.0753    1.3821 H       1  LIG1        0.0618
@<TRIPOS>BOND
     1    38    29    1
     2    33    30    1
     3    17     9    1
     4    13    10    1
     5    29    30   ar
     6    29    31   ar
     7    30    32   ar
     8     9    10   ar
     9     9    11   ar
    10    10    12   ar
    11     5     1   ar
    12     5     4   ar
    13     6     1    1
    14     1     2   ar
    15    27    19    1
    16    19    20   ar
    17    19    21   ar
    18     4    11    1
    19     4     3   ar
    20    11    14   ar
    21    20    23    1
    22    20    22   ar
    23    12    21    1
    24    12    15   ar
    25    21    24   ar
    26    22    31    1
    27    22    25   ar
    28    31    34   ar
    29    32    37    1
    30    32    35   ar
    31    28    25    1
    32    24    25   ar
    33    24    26    1
    34     2     3   ar
    35     2     7    1
    36     3     8    1
    37    15    14   ar
    38    15    18    1
    39    14    16    1
    40    34    35   ar
    41    34    36    1
    42    35    39    1
