@<TRIPOS>MOLECULE
mol_data/opt/cam/geoms/mol2/54-4-12.out
 36 39 0 0 0
SMALL
GASTEIGER

@<TRIPOS>ATOM
      1 C          -2.0988   -2.0368    0.0694 C.ar    1  LIG1       -0.0237
      2 C          -0.7455   -2.0156   -0.0645 C.ar    1  LIG1       -0.0541
      3 C          -0.2190   -0.6936   -0.0997 C.ar    1  LIG1       -0.0469
      4 C          -1.1762    0.2774    0.0081 C.ar    1  LIG1        0.0193
      5 S          -2.7520   -0.4447    0.1626 S.2     1  LIG1       -0.0967
      6 H          -2.7525   -2.8953    0.1220 H       1  LIG1        0.0693
      7 H          -0.1389   -2.9091   -0.1446 H       1  LIG1        0.0623
      8 H           0.8325   -0.4689   -0.2296 H       1  LIG1        0.0629
      9 C          -1.9858    2.5993   -0.4647 C.ar    1  LIG1       -0.0530
     10 C          -1.7960    3.9719   -0.4623 C.ar    1  LIG1       -0.0534
     11 C          -0.9952    1.7346    0.0105 C.ar    1  LIG1       -0.0113
     12 C          -0.6071    4.5374    0.0073 C.ar    1  LIG1       -0.0178
     13 H          -2.5719    4.6157   -0.8629 H       1  LIG1        0.0624
     14 C           0.1915    2.2991    0.4900 C.ar    1  LIG1       -0.0530
     15 C           0.3827    3.6709    0.4818 C.ar    1  LIG1       -0.0534
     16 H           0.9610    1.6540    0.9003 H       1  LIG1        0.0624
     17 H          -2.9075    2.1902   -0.8661 H       1  LIG1        0.0624
     18 H           1.3028    4.0812    0.8847 H       1  LIG1        0.0624
     19 C          -1.4540    6.8802    0.2951 C.ar    1  LIG1       -0.0534
     20 C          -1.2672    8.2531    0.2936 C.ar    1  LIG1       -0.0505
     21 C          -0.4039    6.0043    0.0058 C.ar    1  LIG1       -0.0178
     22 C          -0.0153    8.8013    0.0016 C.ar    1  LIG1        0.0173
     23 H          -2.0933    8.9136    0.5292 H       1  LIG1        0.0625
     24 C           0.8465    6.5596   -0.2863 C.ar    1  LIG1       -0.0534
     25 C           1.0392    7.9302   -0.2888 C.ar    1  LIG1       -0.0505
     26 H           1.6747    5.9061   -0.5399 H       1  LIG1        0.0624
     27 H          -2.4291    6.4783    0.5500 H       1  LIG1        0.0624
     28 H           2.0189    8.3294   -0.5295 H       1  LIG1        0.0625
     29 C           0.1889   10.2454   -0.0004 C.ar    1  LIG1        0.1348
     30 C           1.2726   11.0423   -0.2219 C.ar    1  LIG1       -0.0159
     31 C           0.8261   12.3906   -0.0784 C.ar    1  LIG1       -0.0233
     32 C          -0.4930   12.3180    0.2195 C.ar    1  LIG1        0.0926
     33 O          -0.8959   11.0249    0.2704 O.2     1  LIG1       -0.4629
     34 H          -1.2529   13.0574    0.4154 H       1  LIG1        0.1029
     35 H           2.2732   10.7136   -0.4579 H       1  LIG1        0.0655
     36 H           1.4133   13.2903   -0.1836 H       1  LIG1        0.0649
@<TRIPOS>BOND
     1    17     9    1
     2    13    10    1
     3    26    24    1
     4    28    25    1
     5     9    10   ar
     6     9    11   ar
     7    10    12   ar
     8    35    30    1
     9    25    24   ar
    10    25    22   ar
    11    24    21   ar
    12     8     3    1
    13    30    31   ar
    14    30    29   ar
    15    36    31    1
    16     7     2    1
    17     3     2   ar
    18     3     4   ar
    19    31    32   ar
    20     2     1   ar
    21    29    22    1
    22    29    33   ar
    23    22    20   ar
    24    21    12    1
    25    21    19   ar
    26    12    15   ar
    27     4    11    1
    28     4     5   ar
    29    11    14   ar
    30     1     6    1
    31     1     5   ar
    32    32    33   ar
    33    32    34    1
    34    20    19   ar
    35    20    23    1
    36    19    27    1
    37    15    14   ar
    38    15    18    1
    39    14    16    1
