@<TRIPOS>MOLECULE
mol_data/opt/cam/geoms/mol2/54-4-5-.out
 36 39 0 0 0
SMALL
GASTEIGER

@<TRIPOS>ATOM
      1 C          -2.0946   -2.0512    0.0564 C.ar    1  LIG1       -0.0237
      2 C          -0.7349   -2.0270    0.0281 C.ar    1  LIG1       -0.0541
      3 C          -0.2109   -0.7038    0.0040 C.ar    1  LIG1       -0.0469
      4 C          -1.1764    0.2650    0.0146 C.ar    1  LIG1        0.0193
      5 S          -2.7574   -0.4605    0.0616 S.2     1  LIG1       -0.0967
      6 H          -2.7479   -2.9114    0.0773 H       1  LIG1        0.0693
      7 H          -0.1216   -2.9194    0.0161 H       1  LIG1        0.0623
      8 H           0.8468   -0.4769   -0.0484 H       1  LIG1        0.0629
      9 C          -1.9487    2.5716   -0.5790 C.ar    1  LIG1       -0.0530
     10 C          -1.7634    3.9448   -0.5918 C.ar    1  LIG1       -0.0534
     11 C          -0.9999    1.7226   -0.0013 C.ar    1  LIG1       -0.0113
     12 C          -0.6204    4.5259   -0.0356 C.ar    1  LIG1       -0.0178
     13 H          -2.5038    4.5757   -1.0724 H       1  LIG1        0.0624
     14 C           0.1401    2.3030    0.5644 C.ar    1  LIG1       -0.0530
     15 C           0.3277    3.6751    0.5412 C.ar    1  LIG1       -0.0534
     16 H           0.8734    1.6705    1.0532 H       1  LIG1        0.0624
     17 H          -2.8315    2.1491   -1.0482 H       1  LIG1        0.0624
     18 H           1.2090    4.0987    1.0116 H       1  LIG1        0.0624
     19 C          -1.4941    6.8712    0.1293 C.ar    1  LIG1       -0.0534
     20 C          -1.3097    8.2437    0.1070 C.ar    1  LIG1       -0.0530
     21 C          -0.4210    5.9935   -0.0527 C.ar    1  LIG1       -0.0178
     22 C          -0.0389    8.7964   -0.0830 C.ar    1  LIG1       -0.0113
     23 H          -2.1641    8.9008    0.2285 H       1  LIG1        0.0624
     24 C           0.8461    6.5477   -0.2537 C.ar    1  LIG1       -0.0534
     25 C           1.0355    7.9204   -0.2640 C.ar    1  LIG1       -0.0530
     26 H           1.6955    5.8933   -0.4196 H       1  LIG1        0.0624
     27 H          -2.4878    6.4714    0.3031 H       1  LIG1        0.0624
     28 H           2.0350    8.3189   -0.4062 H       1  LIG1        0.0624
     29 C           0.1445   10.2535   -0.0833 C.ar    1  LIG1        0.0193
     30 C          -0.5885   11.1980    0.5812 C.ar    1  LIG1       -0.0469
     31 C          -0.1359   12.5287    0.3566 C.ar    1  LIG1       -0.0541
     32 C           0.9376   12.5829   -0.4768 C.ar    1  LIG1       -0.0237
     33 S           1.4092   11.0124   -1.0068 S.2     1  LIG1       -0.0967
     34 H           1.4791   13.4547   -0.8143 H       1  LIG1        0.0693
     35 H          -1.4131   10.9464    1.2368 H       1  LIG1        0.0629
     36 H          -0.5887   13.4040    0.8056 H       1  LIG1        0.0623
@<TRIPOS>BOND
     1    13    10    1
     2    17     9    1
     3    33    32   ar
     4    33    29   ar
     5    34    32    1
     6    10     9   ar
     7    10    12   ar
     8     9    11   ar
     9    32    31   ar
    10    26    24    1
    11    28    25    1
    12    25    24   ar
    13    25    22   ar
    14    24    21   ar
    15    29    22    1
    16    29    30   ar
    17    22    20   ar
    18    21    12    1
    19    21    19   ar
    20     8     3    1
    21    12    15   ar
    22    11     4    1
    23    11    14   ar
    24     3     4   ar
    25     3     2   ar
    26     4     5   ar
    27     7     2    1
    28     2     1   ar
    29     1     5   ar
    30     1     6    1
    31    20    19   ar
    32    20    23    1
    33    19    27    1
    34    31    30   ar
    35    31    36    1
    36    15    14   ar
    37    15    18    1
    38    14    16    1
    39    30    35    1
