@<TRIPOS>MOLECULE
mol_data/opt/cam/geoms/mol2/54-4.out
 29 31 0 0 0
SMALL
GASTEIGER

@<TRIPOS>ATOM
      1 C          -2.0607   -1.9737    0.1085 C.ar    1  LIG1       -0.0237
      2 C          -0.7135   -1.9422   -0.0755 C.ar    1  LIG1       -0.0541
      3 C          -0.1983   -0.6162   -0.1265 C.ar    1  LIG1       -0.0469
      4 C          -1.1579    0.3475    0.0192 C.ar    1  LIG1        0.0193
      5 S          -2.7215   -0.3867    0.2300 S.2     1  LIG1       -0.0967
      6 H          -2.7057   -2.8372    0.1830 H       1  LIG1        0.0693
      7 H          -0.1038   -2.8311   -0.1803 H       1  LIG1        0.0623
      8 H           0.8460   -0.3832   -0.2945 H       1  LIG1        0.0629
      9 C          -2.0008    2.6643   -0.4181 C.ar    1  LIG1       -0.0530
     10 C          -1.8210    4.0384   -0.4185 C.ar    1  LIG1       -0.0534
     11 C          -0.9875    1.8061    0.0191 C.ar    1  LIG1       -0.0113
     12 C          -0.6204    4.6111    0.0096 C.ar    1  LIG1       -0.0178
     13 H          -2.6155    4.6781   -0.7884 H       1  LIG1        0.0624
     14 C           0.2114    2.3780    0.4573 C.ar    1  LIG1       -0.0530
     15 C           0.3921    3.7513    0.4456 C.ar    1  LIG1       -0.0534
     16 H           0.9998    1.7374    0.8377 H       1  LIG1        0.0624
     17 H          -2.9332    2.2493   -0.7874 H       1  LIG1        0.0624
     18 H           1.3233    4.1682    0.8153 H       1  LIG1        0.0624
     19 C           0.8011    6.6421   -0.3549 C.ar    1  LIG1       -0.0540
     20 C           0.9818    8.0188   -0.3597 C.ar    1  LIG1       -0.0612
     21 C          -0.4280    6.0812    0.0047 C.ar    1  LIG1       -0.0179
     22 C          -0.0644    8.8632   -0.0061 C.ar    1  LIG1       -0.0617
     23 H           1.9419    8.4339   -0.6492 H       1  LIG1        0.0618
     24 C          -1.4711    6.9419    0.3591 C.ar    1  LIG1       -0.0540
     25 C          -1.2919    8.3188    0.3531 C.ar    1  LIG1       -0.0612
     26 H          -2.4250    6.5250    0.6654 H       1  LIG1        0.0624
     27 H           0.0763    9.9391   -0.0103 H       1  LIG1        0.0618
     28 H           1.6157    5.9917   -0.6568 H       1  LIG1        0.0624
     29 H          -2.1129    8.9687    0.6386 H       1  LIG1        0.0618
@<TRIPOS>BOND
     1    13    10    1
     2    17     9    1
     3    28    19    1
     4    23    20    1
     5    10     9   ar
     6    10    12   ar
     7     9    11   ar
     8    20    19   ar
     9    20    22   ar
    10    19    21   ar
    11     8     3    1
    12     7     2    1
    13     3     2   ar
    14     3     4   ar
    15     2     1   ar
    16    27    22    1
    17    22    25   ar
    18    21    12    1
    19    21    24   ar
    20    12    15   ar
    21    11     4    1
    22    11    14   ar
    23     4     5   ar
    24     1     6    1
    25     1     5   ar
    26    25    24   ar
    27    25    29    1
    28    24    26    1
    29    15    14   ar
    30    15    18    1
    31    14    16    1
