@<TRIPOS>MOLECULE
mol_data/opt/cam/geoms/mol2/54-5-13.out
 34 37 0 0 0
SMALL
GASTEIGER

@<TRIPOS>ATOM
      1 C          -2.1125   -2.0432    0.0015 C.ar    1  LIG1       -0.0237
      2 C          -0.7531   -2.0205   -0.0002 C.ar    1  LIG1       -0.0541
      3 C          -0.2274   -0.6988   -0.0008 C.ar    1  LIG1       -0.0469
      4 C          -1.1887    0.2762    0.0006 C.ar    1  LIG1        0.0193
      5 S          -2.7722   -0.4522    0.0027 S.2     1  LIG1       -0.0967
      6 H          -2.7687   -2.9014    0.0023 H       1  LIG1        0.0693
      7 H          -0.1394   -2.9127   -0.0012 H       1  LIG1        0.0623
      8 H           0.8341   -0.4872   -0.0024 H       1  LIG1        0.0629
      9 C          -2.1084    2.6078   -0.0005 C.ar    1  LIG1       -0.0529
     10 C          -1.9368    3.9801   -0.0006 C.ar    1  LIG1       -0.0529
     11 C          -1.0152    1.7341    0.0005 C.ar    1  LIG1       -0.0113
     12 C          -0.6597    4.5536    0.0002 C.ar    1  LIG1       -0.0113
     13 H          -2.8157    4.6146   -0.0015 H       1  LIG1        0.0624
     14 C           0.2613    2.3071    0.0013 C.ar    1  LIG1       -0.0529
     15 C           0.4336    3.6796    0.0012 C.ar    1  LIG1       -0.0529
     16 H           1.1400    1.6724    0.0022 H       1  LIG1        0.0624
     17 H          -3.1186    2.2110   -0.0013 H       1  LIG1        0.0624
     18 H           1.4440    4.0760    0.0020 H       1  LIG1        0.0624
     19 C          -0.4871    6.0090    0.0001 C.ar    1  LIG1        0.0200
     20 C          -1.4455    6.9855    0.0006 C.ar    1  LIG1       -0.0463
     21 C          -0.9222    8.3035    0.0004 C.ar    1  LIG1       -0.0449
     22 C           0.4467    8.3463   -0.0002 C.ar    1  LIG1        0.0360
     23 S           1.0993    6.7370   -0.0008 S.2     1  LIG1       -0.0868
     24 H          -2.5078    6.7772    0.0012 H       1  LIG1        0.0629
     25 H          -1.5529    9.1849    0.0008 H       1  LIG1        0.0630
     26 C           1.3259    9.4975   -0.0006 C.ar    1  LIG1        0.0531
     27 C           2.7037    9.5907   -0.0008 C.ar    1  LIG1       -0.0359
     28 C           3.0453   10.9643   -0.0007 C.ar    1  LIG1       -0.0438
     29 C           1.8722   11.6767   -0.0013 C.ar    1  LIG1        0.0022
     30 N           0.8378   10.7834   -0.0009 N.ar    1  LIG1       -0.3603
     31 H          -0.1376   11.0288   -0.0011 H       1  LIG1        0.1653
     32 H           1.6905   12.7404   -0.0017 H       1  LIG1        0.0807
     33 H           3.3883    8.7548   -0.0006 H       1  LIG1        0.0639
     34 H           4.0406   11.3831   -0.0005 H       1  LIG1        0.0633
@<TRIPOS>BOND
     1     8     3    1
     2    32    29    1
     3    13    10    1
     4    29    30   ar
     5    29    28   ar
     6    17     9    1
     7     7     2    1
     8    31    30    1
     9    30    26   ar
    10     3     2   ar
    11     3     4   ar
    12    23    22   ar
    13    23    19   ar
    14    27    28   ar
    15    27    33    1
    16    27    26   ar
    17    28    34    1
    18    10     9   ar
    19    10    12   ar
    20    26    22    1
    21     9    11   ar
    22     2     1   ar
    23    22    21   ar
    24    19    12    1
    25    19    20   ar
    26    12    15   ar
    27    21    20   ar
    28    21    25    1
    29    11     4    1
    30    11    14   ar
    31     4     5   ar
    32    20    24    1
    33    15    14   ar
    34    15    18    1
    35    14    16    1
    36     1     6    1
    37     1     5   ar
