@<TRIPOS>MOLECULE
mol_data/opt/cam/geoms/mol2/54-55-.out
 33 36 0 0 0
SMALL
GASTEIGER

@<TRIPOS>ATOM
      1 C          -2.0717   -2.0421    0.0016 C.ar    1  LIG1       -0.0237
      2 C          -0.7121   -2.0273    0.0007 C.ar    1  LIG1       -0.0541
      3 C          -0.1792   -0.7085    0.0001 C.ar    1  LIG1       -0.0469
      4 C          -1.1355    0.2715    0.0006 C.ar    1  LIG1        0.0193
      5 S          -2.7229   -0.4478    0.0018 S.2     1  LIG1       -0.0967
      6 H          -2.7328   -2.8965    0.0022 H       1  LIG1        0.0693
      7 H          -0.1034   -2.9230    0.0003 H       1  LIG1        0.0623
      8 H           0.8835   -0.5027   -0.0008 H       1  LIG1        0.0629
      9 C          -2.0402    2.6079   -0.0011 C.ar    1  LIG1       -0.0529
     10 C          -1.8573    3.9800   -0.0014 C.ar    1  LIG1       -0.0529
     11 C          -0.9537    1.7283    0.0003 C.ar    1  LIG1       -0.0113
     12 C          -0.5778    4.5440   -0.0003 C.ar    1  LIG1       -0.0113
     13 H          -2.7332    4.6209   -0.0027 H       1  LIG1        0.0624
     14 C           0.3282    2.2930    0.0015 C.ar    1  LIG1       -0.0529
     15 C           0.5114    3.6627    0.0012 C.ar    1  LIG1       -0.0529
     16 H           1.2017    1.6511    0.0029 H       1  LIG1        0.0624
     17 H          -3.0533    2.2188   -0.0022 H       1  LIG1        0.0624
     18 H           1.5228    4.0526    0.0024 H       1  LIG1        0.0624
     19 C          -0.3702    5.9951   -0.0006 C.ar    1  LIG1        0.0199
     20 C           0.8087    6.6914   -0.0016 C.ar    1  LIG1       -0.0463
     21 C           0.6425    8.0986   -0.0017 C.ar    1  LIG1       -0.0458
     22 C          -0.6683    8.4921   -0.0007 C.ar    1  LIG1        0.0265
     23 S          -1.7157    7.1038    0.0004 S.2     1  LIG1       -0.0877
     24 H           1.7811    6.2160   -0.0025 H       1  LIG1        0.0629
     25 H           1.4702    8.7977   -0.0026 H       1  LIG1        0.0629
     26 C          -1.2150    9.8371   -0.0005 C.ar    1  LIG1        0.0259
     27 C          -2.5271   10.2281   -0.0006 C.ar    1  LIG1       -0.0464
     28 C          -2.6948   11.6407   -0.0003 C.ar    1  LIG1       -0.0541
     29 C          -1.5108   12.3093    0.0001 C.ar    1  LIG1       -0.0237
     30 S          -0.1673   11.2284    0.0001 S.2     1  LIG1       -0.0961
     31 H          -1.3441   13.3767    0.0005 H       1  LIG1        0.0693
     32 H          -3.3523    9.5260   -0.0010 H       1  LIG1        0.0629
     33 H          -3.6594   12.1326   -0.0004 H       1  LIG1        0.0623
@<TRIPOS>BOND
     1    13    10    1
     2    25    21    1
     3    24    20    1
     4    17     9    1
     5    21    20   ar
     6    21    22   ar
     7    20    19   ar
     8    10     9   ar
     9    10    12   ar
    10     9    11   ar
    11    32    27    1
    12     8     3    1
    13    22    26    1
    14    22    23   ar
    15    27    26   ar
    16    27    28   ar
    17    19    12    1
    18    19    23   ar
    19    26    30   ar
    20    33    28    1
    21    28    29   ar
    22    12    15   ar
    23     3     4   ar
    24     3     2   ar
    25    30    29   ar
    26    29    31    1
    27    11     4    1
    28    11    14   ar
    29     7     2    1
    30     4     5   ar
    31     2     1   ar
    32    15    14   ar
    33    15    18    1
    34    14    16    1
    35     1     5   ar
    36     1     6    1
