@<TRIPOS>MOLECULE
mol_data/opt/cam/geoms/mol2/54-8-.out
 25 27 0 0 0
SMALL
GASTEIGER

@<TRIPOS>ATOM
      1 C          -2.0815   -1.9140    0.0013 C.ar    1  LIG1       -0.0237
      2 C          -0.7212   -1.8969   -0.0001 C.ar    1  LIG1       -0.0541
      3 C          -0.1926   -0.5775   -0.0006 C.ar    1  LIG1       -0.0469
      4 C          -1.1524    0.3997    0.0004 C.ar    1  LIG1        0.0193
      5 S          -2.7376   -0.3235    0.0018 S.2     1  LIG1       -0.0967
      6 H          -2.7402   -2.7703    0.0020 H       1  LIG1        0.0693
      7 H          -0.1108   -2.7912   -0.0007 H       1  LIG1        0.0623
      8 H           0.8695   -0.3688   -0.0017 H       1  LIG1        0.0629
      9 C          -2.0670    2.7305   -0.0003 C.ar    1  LIG1       -0.0529
     10 C          -1.8905    4.1025   -0.0003 C.ar    1  LIG1       -0.0503
     11 C          -0.9726    1.8565    0.0004 C.ar    1  LIG1       -0.0113
     12 C          -0.6056    4.6487    0.0002 C.ar    1  LIG1        0.0227
     13 H          -2.7474    4.7651   -0.0009 H       1  LIG1        0.0625
     14 C           0.3120    2.4176    0.0010 C.ar    1  LIG1       -0.0529
     15 C           0.4951    3.7877    0.0009 C.ar    1  LIG1       -0.0503
     16 H           1.1835    1.7737    0.0017 H       1  LIG1        0.0624
     17 H          -3.0770    2.3344   -0.0009 H       1  LIG1        0.0624
     18 H           1.4940    4.2067    0.0014 H       1  LIG1        0.0625
     19 C          -0.4131    6.1078    0.0001 C.ar    1  LIG1        0.2033
     20 N          -1.5053    6.8893   -0.0004 N.ar    1  LIG1       -0.1258
     21 C          -0.0796    8.6366    0.0003 C.ar    1  LIG1        0.1605
     22 N           0.8443    6.5794    0.0007 N.ar    1  LIG1       -0.1258
     23 N          -1.3336    8.1875   -0.0004 N.ar    1  LIG1       -0.1339
     24 N           1.0149    7.8780    0.0007 N.ar    1  LIG1       -0.1339
     25 H           0.0620    9.7113   -0.0000 H       1  LIG1        0.1085
@<TRIPOS>BOND
     1     8     3    1
     2    13    10    1
     3    17     9    1
     4     7     2    1
     5     3     2   ar
     6     3     4   ar
     7    23    20   ar
     8    23    21   ar
     9    20    19   ar
    10    10     9   ar
    11    10    12   ar
    12     9    11   ar
    13     2     1   ar
    14    25    21    1
    15    19    12    1
    16    19    22   ar
    17    12    15   ar
    18    21    24   ar
    19    11     4    1
    20    11    14   ar
    21     4     5   ar
    22    22    24   ar
    23    15    14   ar
    24    15    18    1
    25    14    16    1
    26     1     5   ar
    27     1     6    1
