@<TRIPOS>MOLECULE
mol_data/opt/cam/geoms/mol2/54-8-4-.out
 35 38 0 0 0
SMALL
GASTEIGER

@<TRIPOS>ATOM
      1 C          -2.1145   -1.9884    0.0023 C.ar    1  LIG1       -0.0237
      2 C          -0.7542   -1.9789    0.0008 C.ar    1  LIG1       -0.0541
      3 C          -0.2179   -0.6624   -0.0000 C.ar    1  LIG1       -0.0469
      4 C          -1.1718    0.3205    0.0009 C.ar    1  LIG1        0.0193
      5 S          -2.7613   -0.3938    0.0026 S.2     1  LIG1       -0.0967
      6 H          -2.7781   -2.8409    0.0033 H       1  LIG1        0.0693
      7 H          -0.1488   -2.8766    0.0003 H       1  LIG1        0.0623
      8 H           0.8453   -0.4597   -0.0013 H       1  LIG1        0.0629
      9 C          -2.0732    2.6567   -0.0003 C.ar    1  LIG1       -0.0529
     10 C          -1.8892    4.0279   -0.0007 C.ar    1  LIG1       -0.0503
     11 C          -0.9840    1.7765    0.0004 C.ar    1  LIG1       -0.0113
     12 C          -0.6015    4.5676   -0.0004 C.ar    1  LIG1        0.0227
     13 H          -2.7423    4.6952   -0.0013 H       1  LIG1        0.0625
     14 C           0.3034    2.3308    0.0008 C.ar    1  LIG1       -0.0529
     15 C           0.4939    3.7000    0.0004 C.ar    1  LIG1       -0.0503
     16 H           1.1716    1.6823    0.0015 H       1  LIG1        0.0624
     17 H          -3.0855    2.2662   -0.0007 H       1  LIG1        0.0624
     18 H           1.4951    4.1136    0.0006 H       1  LIG1        0.0625
     19 C          -0.4011    6.0253   -0.0009 C.ar    1  LIG1        0.2034
     20 N          -1.4844    6.8168   -0.0015 N.ar    1  LIG1       -0.1252
     21 C          -0.0500    8.5790   -0.0017 C.ar    1  LIG1        0.2034
     22 N           0.8556    6.4951   -0.0006 N.ar    1  LIG1       -0.1252
     23 N          -1.3063    8.1091   -0.0020 N.ar    1  LIG1       -0.1252
     24 N           1.0328    7.7876   -0.0010 N.ar    1  LIG1       -0.1252
     25 C          -0.9503   10.9003   -0.0029 C.ar    1  LIG1       -0.0509
     26 C          -0.7577   12.2740   -0.0034 C.ar    1  LIG1       -0.0611
     27 C           0.1508   10.0402   -0.0022 C.ar    1  LIG1        0.0226
     28 C           0.5300   12.8001   -0.0031 C.ar    1  LIG1       -0.0617
     29 H          -1.6165   12.9370   -0.0039 H       1  LIG1        0.0618
     30 C           1.4430   10.5715   -0.0019 C.ar    1  LIG1       -0.0509
     31 C           1.6281   11.9462   -0.0024 C.ar    1  LIG1       -0.0611
     32 H           2.2906    9.8971   -0.0014 H       1  LIG1        0.0625
     33 H           0.6777   13.8752   -0.0035 H       1  LIG1        0.0618
     34 H          -1.9484   10.4796   -0.0031 H       1  LIG1        0.0625
     35 H           2.6339   12.3530   -0.0022 H       1  LIG1        0.0618
@<TRIPOS>BOND
     1    29    26    1
     2    33    28    1
     3    26    28   ar
     4    26    25   ar
     5    28    31   ar
     6    34    25    1
     7    25    27   ar
     8    31    35    1
     9    31    30   ar
    10    27    30   ar
    11    27    21    1
    12    23    21   ar
    13    23    20   ar
    14    30    32    1
    15    21    24   ar
    16    20    19   ar
    17     8     3    1
    18    13    10    1
    19    24    22   ar
    20    19    22   ar
    21    19    12    1
    22    10    12   ar
    23    10     9   ar
    24    17     9    1
    25    12    15   ar
    26     9    11   ar
    27     3     2   ar
    28     3     4   ar
    29     7     2    1
    30    15    18    1
    31    15    14   ar
    32    11    14   ar
    33    11     4    1
    34     2     1   ar
    35    14    16    1
    36     4     5   ar
    37     1     5   ar
    38     1     6    1
