@<TRIPOS>MOLECULE
mol_data/opt/cam/geoms/mol2/54.out
 19 20 0 0 0
SMALL
GASTEIGER

@<TRIPOS>ATOM
      1 C          -2.0358   -1.8762   -0.0003 C.ar    1  LIG1       -0.0237
      2 C          -0.6775   -1.8312   -0.0013 C.ar    1  LIG1       -0.0541
      3 C          -0.1739   -0.5007   -0.0004 C.ar    1  LIG1       -0.0469
      4 C          -1.1496    0.4587    0.0013 C.ar    1  LIG1        0.0193
      5 S          -2.7214   -0.2959    0.0019 S.2     1  LIG1       -0.0967
      6 H          -2.6786   -2.7444   -0.0007 H       1  LIG1        0.0693
      7 H          -0.0493   -2.7133   -0.0027 H       1  LIG1        0.0623
      8 H           0.8841   -0.2719   -0.0011 H       1  LIG1        0.0629
      9 C           0.2722    2.5071    0.0039 C.ar    1  LIG1       -0.0535
     10 C           0.4244    3.8853    0.0050 C.ar    1  LIG1       -0.0612
     11 C          -0.9999    1.9221    0.0025 C.ar    1  LIG1       -0.0113
     12 C          -0.6900    4.7167    0.0050 C.ar    1  LIG1       -0.0617
     13 H           1.4221    4.3123    0.0060 H       1  LIG1        0.0618
     14 C          -2.1113    2.7717    0.0025 C.ar    1  LIG1       -0.0535
     15 C          -1.9587    4.1509    0.0037 C.ar    1  LIG1       -0.0612
     16 H          -3.1125    2.3525    0.0014 H       1  LIG1        0.0624
     17 H          -0.5700    5.7948    0.0059 H       1  LIG1        0.0618
     18 H           1.1553    1.8785    0.0041 H       1  LIG1        0.0624
     19 H          -2.8387    4.7857    0.0036 H       1  LIG1        0.0618
@<TRIPOS>BOND
     1     7     2    1
     2     2     3   ar
     3     2     1   ar
     4     8     3    1
     5     6     1    1
     6     3     4   ar
     7     1     5   ar
     8     4     5   ar
     9     4    11    1
    10    16    14    1
    11    14    11   ar
    12    14    15   ar
    13    11     9   ar
    14    19    15    1
    15    15    12   ar
    16     9    18    1
    17     9    10   ar
    18    12    10   ar
    19    12    17    1
    20    10    13    1
