@<TRIPOS>MOLECULE
mol_data/opt/cam/geoms/mol2/5412-12-.out
 33 36 0 0 0
SMALL
GASTEIGER

@<TRIPOS>ATOM
      1 C          -2.1163   -1.9994    0.3738 C.ar    1  LIG1       -0.0237
      2 C          -0.8841   -1.9782   -0.2018 C.ar    1  LIG1       -0.0541
      3 C          -0.3832   -0.6575   -0.3762 C.ar    1  LIG1       -0.0469
      4 C          -1.2383    0.3133    0.0687 C.ar    1  LIG1        0.0193
      5 S          -2.6822   -0.4087    0.7197 S.2     1  LIG1       -0.0967
      6 H          -2.7256   -2.8573    0.6188 H       1  LIG1        0.0693
      7 H          -0.3494   -2.8709   -0.5017 H       1  LIG1        0.0623
      8 H           0.5678   -0.4322   -0.8428 H       1  LIG1        0.0629
      9 C           0.2377    2.3154    0.1153 C.ar    1  LIG1       -0.0529
     10 C           0.4370    3.6846    0.0796 C.ar    1  LIG1       -0.0505
     11 C          -1.0484    1.7684    0.0488 C.ar    1  LIG1       -0.0113
     12 C          -0.6493    4.5611   -0.0103 C.ar    1  LIG1        0.0173
     13 H           1.4410    4.0888    0.1337 H       1  LIG1        0.0625
     14 C          -2.1317    2.6499   -0.0414 C.ar    1  LIG1       -0.0529
     15 C          -1.9375    4.0194   -0.0663 C.ar    1  LIG1       -0.0505
     16 H          -3.1403    2.2552   -0.1105 H       1  LIG1        0.0624
     17 H           1.0924    1.6554    0.2162 H       1  LIG1        0.0624
     18 H          -2.7977    4.6762   -0.1393 H       1  LIG1        0.0625
     19 C          -0.4449    6.0018   -0.0419 C.ar    1  LIG1        0.1358
     20 C          -1.2853    7.0741   -0.1269 C.ar    1  LIG1       -0.0151
     21 C          -0.4698    8.2382   -0.1132 C.ar    1  LIG1       -0.0122
     22 C           0.8188    7.8002   -0.0202 C.ar    1  LIG1        0.1705
     23 O           0.8426    6.4443    0.0233 O.2     1  LIG1       -0.4517
     24 H          -2.3622    7.0416   -0.1921 H       1  LIG1        0.0656
     25 H          -0.7945    9.2663   -0.1654 H       1  LIG1        0.0657
     26 C           2.0845    8.4895    0.0369 C.ar    1  LIG1        0.1697
     27 C           2.4163    9.8120    0.0209 C.ar    1  LIG1       -0.0128
     28 C           3.8398    9.8661    0.1042 C.ar    1  LIG1       -0.0232
     29 C           4.2629    8.5802    0.1644 C.ar    1  LIG1        0.0927
     30 O           3.2073    7.7294    0.1244 O.2     1  LIG1       -0.4598
     31 H           5.2350    8.1196    0.2351 H       1  LIG1        0.1029
     32 H           1.7307   10.6434   -0.0423 H       1  LIG1        0.0656
     33 H           4.4611   10.7487    0.1175 H       1  LIG1        0.0649
@<TRIPOS>BOND
     1     8     3    1
     2     7     2    1
     3     3     2   ar
     4     3     4   ar
     5     2     1   ar
     6    24    20    1
     7    25    21    1
     8    18    15    1
     9    20    21   ar
    10    20    19   ar
    11    21    22   ar
    12    16    14    1
    13    15    14   ar
    14    15    12   ar
    15    32    27    1
    16    19    12    1
    17    19    23   ar
    18    14    11   ar
    19    22    23   ar
    20    22    26    1
    21    12    10   ar
    22    27    26   ar
    23    27    28   ar
    24    26    30   ar
    25    11     4    1
    26    11     9   ar
    27     4     5   ar
    28    10     9   ar
    29    10    13    1
    30    28    33    1
    31    28    29   ar
    32     9    17    1
    33    30    29   ar
    34    29    31    1
    35     1     6    1
    36     1     5   ar
