@<TRIPOS>MOLECULE
mol_data/opt/cam/geoms/mol2/5412-12.out
 33 36 0 0 0
SMALL
GASTEIGER

@<TRIPOS>ATOM
      1 C          -2.1609   -1.9908   -0.0008 C.ar    1  LIG1       -0.0237
      2 C          -0.8013   -1.9779   -0.0023 C.ar    1  LIG1       -0.0541
      3 C          -0.2663   -0.6600   -0.0012 C.ar    1  LIG1       -0.0469
      4 C          -1.2207    0.3218    0.0011 C.ar    1  LIG1        0.0193
      5 S          -2.8095   -0.3953    0.0021 S.2     1  LIG1       -0.0967
      6 H          -2.8233   -2.8442   -0.0012 H       1  LIG1        0.0693
      7 H          -0.1940   -2.8745   -0.0043 H       1  LIG1        0.0623
      8 H           0.7967   -0.4556   -0.0023 H       1  LIG1        0.0629
      9 C           0.2464    2.3396    0.0044 C.ar    1  LIG1       -0.0529
     10 C           0.4337    3.7103    0.0060 C.ar    1  LIG1       -0.0505
     11 C          -1.0364    1.7787    0.0028 C.ar    1  LIG1       -0.0113
     12 C          -0.6593    4.5828    0.0061 C.ar    1  LIG1        0.0173
     13 H           1.4377    4.1175    0.0072 H       1  LIG1        0.0625
     14 C          -2.1254    2.6587    0.0030 C.ar    1  LIG1       -0.0529
     15 C          -1.9434    4.0295    0.0045 C.ar    1  LIG1       -0.0505
     16 H          -3.1378    2.2677    0.0017 H       1  LIG1        0.0624
     17 H           1.1178    1.6949    0.0046 H       1  LIG1        0.0624
     18 H          -2.8124    4.6789    0.0045 H       1  LIG1        0.0625
     19 C          -0.4693    6.0252    0.0077 C.ar    1  LIG1        0.1358
     20 C          -1.3240    7.0893    0.0084 C.ar    1  LIG1       -0.0151
     21 C          -0.5229    8.2644    0.0101 C.ar    1  LIG1       -0.0122
     22 C           0.7715    7.8393    0.0104 C.ar    1  LIG1        0.1705
     23 O           0.8172    6.4820    0.0090 O.2     1  LIG1       -0.4517
     24 H          -2.4024    7.0438    0.0077 H       1  LIG1        0.0656
     25 H          -0.8527    9.2917    0.0110 H       1  LIG1        0.0657
     26 C           2.0338    8.5301    0.0119 C.ar    1  LIG1        0.1697
     27 C           3.3285    8.1079    0.0125 C.ar    1  LIG1       -0.0128
     28 C           4.1297    9.2902    0.0141 C.ar    1  LIG1       -0.0232
     29 C           3.2656   10.3335    0.0145 C.ar    1  LIG1        0.0927
     30 O           1.9825    9.8889    0.0131 O.2     1  LIG1       -0.4598
     31 H           3.3917   11.4041    0.0155 H       1  LIG1        0.1029
     32 H           3.6615    7.0817    0.0118 H       1  LIG1        0.0656
     33 H           5.2076    9.3498    0.0150 H       1  LIG1        0.0649
@<TRIPOS>BOND
     1     7     2    1
     2     2     3   ar
     3     2     1   ar
     4     8     3    1
     5     3     4   ar
     6     6     1    1
     7     1     5   ar
     8     4     5   ar
     9     4    11    1
    10    16    14    1
    11    11    14   ar
    12    11     9   ar
    13    14    15   ar
    14     9    17    1
    15     9    10   ar
    16    18    15    1
    17    15    12   ar
    18    10    12   ar
    19    10    13    1
    20    12    19    1
    21    19    20   ar
    22    19    23   ar
    23    24    20    1
    24    20    21   ar
    25    23    22   ar
    26    21    22   ar
    27    21    25    1
    28    22    26    1
    29    32    27    1
    30    26    27   ar
    31    26    30   ar
    32    27    28   ar
    33    30    29   ar
    34    28    29   ar
    35    28    33    1
    36    29    31    1
