@<TRIPOS>MOLECULE
mol_data/opt/cam/geoms/mol2/541313-.out
 35 38 0 0 0
SMALL
GASTEIGER

@<TRIPOS>ATOM
      1 C          -1.8234   -2.0771    0.2034 C.ar    1  LIG1       -0.0237
      2 C          -0.7297   -1.9282   -0.5911 C.ar    1  LIG1       -0.0541
      3 C          -0.3208   -0.5701   -0.7125 C.ar    1  LIG1       -0.0469
      4 C          -1.1065    0.3010   -0.0089 C.ar    1  LIG1        0.0193
      5 S          -2.3672   -0.5635    0.8234 S.2     1  LIG1       -0.0967
      6 H          -2.3418   -2.9882    0.4645 H       1  LIG1        0.0693
      7 H          -0.2322   -2.7544   -1.0838 H       1  LIG1        0.0623
      8 H           0.5117   -0.2458   -1.3247 H       1  LIG1        0.0629
      9 C           0.2770    2.3704   -0.0233 C.ar    1  LIG1       -0.0529
     10 C           0.4123    3.7453    0.0434 C.ar    1  LIG1       -0.0520
     11 C          -0.9774    1.7597    0.0945 C.ar    1  LIG1       -0.0113
     12 C          -0.6972    4.5714    0.2592 C.ar    1  LIG1       -0.0017
     13 H           1.3923    4.1942   -0.0783 H       1  LIG1        0.0624
     14 C          -2.0862    2.5839    0.3058 C.ar    1  LIG1       -0.0529
     15 C          -1.9476    3.9595    0.3970 C.ar    1  LIG1       -0.0520
     16 H          -3.0738    2.1425    0.3956 H       1  LIG1        0.0624
     17 H           1.1583    1.7534   -0.1628 H       1  LIG1        0.0624
     18 H          -2.8266    4.5638    0.5992 H       1  LIG1        0.0624
     19 C          -0.5392    6.0206    0.3414 C.ar    1  LIG1        0.0469
     20 C           0.5501    6.7939    0.6875 C.ar    1  LIG1       -0.0358
     21 C           0.1602    8.1520    0.6184 C.ar    1  LIG1       -0.0344
     22 C          -1.1622    8.1869    0.2236 C.ar    1  LIG1        0.0633
     23 N          -1.5737    6.8879    0.0736 N.ar    1  LIG1       -0.3530
     24 H          -2.4488    6.6263   -0.3504 H       1  LIG1        0.1659
     25 H           1.5103    6.4159    1.0066 H       1  LIG1        0.0639
     26 H           0.7631    9.0103    0.8789 H       1  LIG1        0.0639
     27 C          -2.0608    9.2957   -0.0281 C.ar    1  LIG1        0.0629
     28 C          -3.4331    9.3984    0.0705 C.ar    1  LIG1       -0.0350
     29 C          -3.7932   10.7192   -0.3018 C.ar    1  LIG1       -0.0438
     30 C          -2.6363   11.3863   -0.6142 C.ar    1  LIG1        0.0022
     31 N          -1.5924   10.5174   -0.4431 N.ar    1  LIG1       -0.3595
     32 H          -0.6286   10.7052   -0.6638 H       1  LIG1        0.1654
     33 H          -2.4710   12.4008   -0.9422 H       1  LIG1        0.0807
     34 H          -4.0985    8.6198    0.4155 H       1  LIG1        0.0639
     35 H          -4.7895   11.1354   -0.3250 H       1  LIG1        0.0633
@<TRIPOS>BOND
     1     8     3    1
     2     7     2    1
     3    33    30    1
     4     3     2   ar
     5     3     4   ar
     6    32    31    1
     7    30    31   ar
     8    30    29   ar
     9     2     1   ar
    10    31    27   ar
    11    24    23    1
    12    35    29    1
    13    29    28   ar
    14    17     9    1
    15    13    10    1
    16    27    28   ar
    17    27    22    1
    18     9    10   ar
    19     9    11   ar
    20     4    11    1
    21     4     5   ar
    22    10    12   ar
    23    28    34    1
    24    23    22   ar
    25    23    19   ar
    26    11    14   ar
    27     1     6    1
    28     1     5   ar
    29    22    21   ar
    30    12    19    1
    31    12    15   ar
    32    14    16    1
    33    14    15   ar
    34    19    20   ar
    35    15    18    1
    36    21    20   ar
    37    21    26    1
    38    20    25    1
