@<TRIPOS>MOLECULE
mol_data/opt/cam/geoms/mol2/5413.out
 27 29 0 0 0
SMALL
GASTEIGER

@<TRIPOS>ATOM
      1 C          -2.0314   -1.9756   -0.0012 C.ar    1  LIG1       -0.0237
      2 C          -0.6731   -1.9234   -0.0023 C.ar    1  LIG1       -0.0541
      3 C          -0.1756   -0.5904   -0.0010 C.ar    1  LIG1       -0.0469
      4 C          -1.1573    0.3639    0.0011 C.ar    1  LIG1        0.0193
      5 S          -2.7249   -0.3984    0.0014 S.2     1  LIG1       -0.0967
      6 H          -2.6693   -2.8474   -0.0019 H       1  LIG1        0.0693
      7 H          -0.0402   -2.8022   -0.0040 H       1  LIG1        0.0623
      8 H           0.8811   -0.3560   -0.0017 H       1  LIG1        0.0629
      9 C           0.2511    2.4258    0.0053 C.ar    1  LIG1       -0.0529
     10 C           0.3972    3.7996    0.0070 C.ar    1  LIG1       -0.0520
     11 C          -1.0148    1.8254    0.0028 C.ar    1  LIG1       -0.0113
     12 C          -0.7135    4.6537    0.0063 C.ar    1  LIG1       -0.0017
     13 H           1.3958    4.2216    0.0090 H       1  LIG1        0.0624
     14 C          -2.1232    2.6761    0.0022 C.ar    1  LIG1       -0.0529
     15 C          -1.9766    4.0536    0.0039 C.ar    1  LIG1       -0.0520
     16 H          -3.1259    2.2604    0.0001 H       1  LIG1        0.0624
     17 H           1.1417    1.8077    0.0061 H       1  LIG1        0.0624
     18 H          -2.8776    4.6592    0.0029 H       1  LIG1        0.0624
     19 C          -0.5328    6.1042    0.0081 C.ar    1  LIG1        0.0465
     20 C           0.6174    6.8698    0.0084 C.ar    1  LIG1       -0.0364
     21 C           0.2382    8.2333    0.0101 C.ar    1  LIG1       -0.0438
     22 C          -1.1335    8.2731    0.0115 C.ar    1  LIG1        0.0022
     23 N          -1.5896    6.9854    0.0100 N.ar    1  LIG1       -0.3607
     24 H          -2.5604    6.7241    0.0107 H       1  LIG1        0.1653
     25 H          -1.8177    9.1077    0.0133 H       1  LIG1        0.0807
     26 H           1.6282    6.4899    0.0070 H       1  LIG1        0.0639
     27 H           0.8975    9.0886    0.0105 H       1  LIG1        0.0633
@<TRIPOS>BOND
     1     7     2    1
     2     2     1   ar
     3     2     3   ar
     4     6     1    1
     5     8     3    1
     6     1     5   ar
     7     3     4   ar
     8    16    14    1
     9     4     5   ar
    10     4    11    1
    11    14    11   ar
    12    14    15   ar
    13    11     9   ar
    14    18    15    1
    15    15    12   ar
    16     9    17    1
    17     9    10   ar
    18    12    10   ar
    19    12    19    1
    20    10    13    1
    21    26    20    1
    22    19    20   ar
    23    19    23   ar
    24    20    21   ar
    25    23    24    1
    26    23    22   ar
    27    21    27    1
    28    21    22   ar
    29    22    25    1
