@<TRIPOS>MOLECULE
mol_data/opt/cam/geoms/mol2/544-13.out
 37 40 0 0 0
SMALL
GASTEIGER

@<TRIPOS>ATOM
      1 C          -2.0671   -2.0702    0.0066 C.ar    1  LIG1       -0.0237
      2 C          -0.7078   -2.0250    0.0140 C.ar    1  LIG1       -0.0541
      3 C          -0.2036   -0.6938    0.0104 C.ar    1  LIG1       -0.0469
      4 C          -1.1838    0.2602    0.0006 C.ar    1  LIG1        0.0193
      5 S          -2.7541   -0.4897    0.0026 S.2     1  LIG1       -0.0967
      6 H          -2.7075   -2.9403    0.0059 H       1  LIG1        0.0693
      7 H          -0.0805   -2.9078    0.0135 H       1  LIG1        0.0623
      8 H           0.8515   -0.4506   -0.0130 H       1  LIG1        0.0629
      9 C           0.0869    2.3156    0.5929 C.ar    1  LIG1       -0.0530
     10 C           0.2532    3.6906    0.5818 C.ar    1  LIG1       -0.0534
     11 C          -1.0297    1.7205   -0.0033 C.ar    1  LIG1       -0.0113
     12 C          -0.6937    4.5303   -0.0134 C.ar    1  LIG1       -0.0178
     13 H           1.1161    4.1251    1.0757 H       1  LIG1        0.0624
     14 C          -1.9772    2.5580   -0.5997 C.ar    1  LIG1       -0.0530
     15 C          -1.8129    3.9339   -0.6011 C.ar    1  LIG1       -0.0534
     16 H          -2.8414    2.1244   -1.0928 H       1  LIG1        0.0624
     17 H           0.8182    1.6919    1.0959 H       1  LIG1        0.0624
     18 H          -2.5509    4.5558   -1.0969 H       1  LIG1        0.0624
     19 C          -1.6081    6.8599    0.1418 C.ar    1  LIG1       -0.0534
     20 C          -1.4440    8.2364    0.1343 C.ar    1  LIG1       -0.0521
     21 C          -0.5177    6.0009   -0.0168 C.ar    1  LIG1       -0.0178
     22 C          -0.1783    8.8124   -0.0167 C.ar    1  LIG1       -0.0017
     23 H          -2.3200    8.8715    0.2264 H       1  LIG1        0.0624
     24 C           0.7460    6.5784   -0.1792 C.ar    1  LIG1       -0.0534
     25 C           0.9145    7.9527   -0.1718 C.ar    1  LIG1       -0.0521
     26 H           1.6100    5.9382   -0.3248 H       1  LIG1        0.0624
     27 H          -2.6000    6.4435    0.2844 H       1  LIG1        0.0624
     28 H           1.9086    8.3734   -0.2786 H       1  LIG1        0.0624
     29 C           0.0111   10.2625   -0.0173 C.ar    1  LIG1        0.0465
     30 C           0.9791   11.0483   -0.6074 C.ar    1  LIG1       -0.0364
     31 C           0.6866   12.4015   -0.3039 C.ar    1  LIG1       -0.0438
     32 C          -0.4489   12.4103    0.4661 C.ar    1  LIG1        0.0022
     33 N          -0.8574   11.1146    0.6246 N.ar    1  LIG1       -0.3607
     34 H          -1.6121   10.8147    1.2188 H       1  LIG1        0.1653
     35 H          -0.9945   13.2270    0.9133 H       1  LIG1        0.0807
     36 H           1.7883   10.6856   -1.2243 H       1  LIG1        0.0639
     37 H           1.2421   13.2712   -0.6225 H       1  LIG1        0.0633
@<TRIPOS>BOND
     1    36    30    1
     2    18    15    1
     3    16    14    1
     4    37    31    1
     5    30    31   ar
     6    30    29   ar
     7    15    14   ar
     8    15    12   ar
     9    14    11   ar
    10    26    24    1
    11    31    32   ar
    12    28    25    1
    13    24    25   ar
    14    24    21   ar
    15    25    22   ar
    16    29    22    1
    17    29    33   ar
    18    21    12    1
    19    21    19   ar
    20    22    20   ar
    21    12    10   ar
    22     8     3    1
    23    11     4    1
    24    11     9   ar
    25     4     5   ar
    26     4     3   ar
    27     5     1   ar
    28     6     1    1
    29     1     2   ar
    30     3     2   ar
    31     7     2    1
    32    20    19   ar
    33    20    23    1
    34    19    27    1
    35    32    33   ar
    36    32    35    1
    37    10     9   ar
    38    10    13    1
    39     9    17    1
    40    33    34    1
