@<TRIPOS>MOLECULE
mol_data/opt/cam/geoms/mol2/544.out
 29 31 0 0 0
SMALL
GASTEIGER

@<TRIPOS>ATOM
      1 C          -2.0187   -1.9912    0.1125 C.ar    1  LIG1       -0.0237
      2 C          -0.6727   -1.9334   -0.0744 C.ar    1  LIG1       -0.0541
      3 C          -0.1834   -0.5977   -0.1258 C.ar    1  LIG1       -0.0469
      4 C          -1.1611    0.3471    0.0229 C.ar    1  LIG1        0.0193
      5 S          -2.7098   -0.4173    0.2366 S.2     1  LIG1       -0.0967
      6 H          -2.6466   -2.8670    0.1878 H       1  LIG1        0.0693
      7 H          -0.0462   -2.8103   -0.1812 H       1  LIG1        0.0623
      8 H           0.8558   -0.3445   -0.2960 H       1  LIG1        0.0629
      9 C           0.1698    2.4035    0.4587 C.ar    1  LIG1       -0.0530
     10 C           0.3238    3.7801    0.4476 C.ar    1  LIG1       -0.0534
     11 C          -1.0190    1.8087    0.0234 C.ar    1  LIG1       -0.0113
     12 C          -0.7065    4.6204    0.0151 C.ar    1  LIG1       -0.0178
     13 H           1.2477    4.2147    0.8150 H       1  LIG1        0.0624
     14 C          -2.0500    2.6474   -0.4104 C.ar    1  LIG1       -0.0530
     15 C          -1.8969    4.0247   -0.4102 C.ar    1  LIG1       -0.0534
     16 H          -2.9752    2.2146   -0.7774 H       1  LIG1        0.0624
     17 H           0.9717    1.7781    0.8364 H       1  LIG1        0.0624
     18 H          -2.7046    4.6492   -0.7775 H       1  LIG1        0.0624
     19 C           0.6744    6.6788   -0.3520 C.ar    1  LIG1       -0.0540
     20 C           0.8283    8.0587   -0.3561 C.ar    1  LIG1       -0.0612
     21 C          -0.5426    6.0939    0.0107 C.ar    1  LIG1       -0.0179
     22 C          -0.2329    8.8824    0.0011 C.ar    1  LIG1       -0.0617
     23 H           1.7795    8.4925   -0.6480 H       1  LIG1        0.0618
     24 C          -1.6012    6.9340    0.3688 C.ar    1  LIG1       -0.0540
     25 C          -1.4487    8.3140    0.3633 C.ar    1  LIG1       -0.0612
     26 H          -2.5460    6.4984    0.6775 H       1  LIG1        0.0624
     27 H          -0.1132    9.9608   -0.0026 H       1  LIG1        0.0618
     28 H           1.5005    6.0445   -0.6567 H       1  LIG1        0.0624
     29 H          -2.2813    8.9478    0.6517 H       1  LIG1        0.0618
@<TRIPOS>BOND
     1    18    15    1
     2    16    14    1
     3    28    19    1
     4    23    20    1
     5    14    15   ar
     6    14    11   ar
     7    15    12   ar
     8    20    19   ar
     9    20    22   ar
    10    19    21   ar
    11     8     3    1
    12     7     2    1
    13     3     2   ar
    14     3     4   ar
    15     2     1   ar
    16    27    22    1
    17    22    25   ar
    18    21    12    1
    19    21    24   ar
    20    12    10   ar
    21     4    11    1
    22     4     5   ar
    23    11     9   ar
    24     1     6    1
    25     1     5   ar
    26    25    24   ar
    27    25    29    1
    28    24    26    1
    29    10     9   ar
    30    10    13    1
    31     9    17    1
