@<TRIPOS>MOLECULE
mol_data/opt/cam/geoms/mol2/545-5-.out
 33 36 0 0 0
SMALL
GASTEIGER

@<TRIPOS>ATOM
      1 C          -2.0617   -2.0435    0.0438 C.ar    1  LIG1       -0.0237
      2 C          -0.7423   -1.9798   -0.2808 C.ar    1  LIG1       -0.0541
      3 C          -0.2523   -0.6443   -0.3224 C.ar    1  LIG1       -0.0469
      4 C          -1.2030    0.2944   -0.0287 C.ar    1  LIG1        0.0193
      5 S          -2.7258   -0.4762    0.3118 S.2     1  LIG1       -0.0967
      6 H          -2.6840   -2.9208    0.1449 H       1  LIG1        0.0693
      7 H          -0.1363   -2.8519   -0.4929 H       1  LIG1        0.0623
      8 H           0.7649   -0.3857   -0.5898 H       1  LIG1        0.0629
      9 C           0.1809    2.3259    0.3544 C.ar    1  LIG1       -0.0529
     10 C           0.3423    3.7002    0.3947 C.ar    1  LIG1       -0.0529
     11 C          -1.0518    1.7534    0.0238 C.ar    1  LIG1       -0.0113
     12 C          -0.7241    4.5607    0.1124 C.ar    1  LIG1       -0.0113
     13 H           1.3046    4.1133    0.6799 H       1  LIG1        0.0624
     14 C          -2.1178    2.6138   -0.2592 C.ar    1  LIG1       -0.0529
     15 C          -1.9571    3.9881   -0.2186 C.ar    1  LIG1       -0.0529
     16 H          -3.0798    2.2002   -0.5445 H       1  LIG1        0.0624
     17 H           1.0160    1.6832    0.6110 H       1  LIG1        0.0624
     18 H          -2.7924    4.6304   -0.4754 H       1  LIG1        0.0624
     19 C          -0.5734    6.0184    0.1651 C.ar    1  LIG1        0.0199
     20 C          -1.5275    6.9597    0.4413 C.ar    1  LIG1       -0.0463
     21 C          -1.0349    8.2897    0.4245 C.ar    1  LIG1       -0.0458
     22 C           0.2980    8.3699    0.1258 C.ar    1  LIG1        0.0265
     23 S           0.9566    6.7844   -0.1497 S.2     1  LIG1       -0.0877
     24 H          -2.5493    6.7037    0.6929 H       1  LIG1        0.0629
     25 H          -1.6342    9.1606    0.6594 H       1  LIG1        0.0629
     26 C           1.1064    9.5736    0.0079 C.ar    1  LIG1        0.0259
     27 C           0.6968   10.8099   -0.4131 C.ar    1  LIG1       -0.0464
     28 C           1.7333   11.7839   -0.3855 C.ar    1  LIG1       -0.0541
     29 C           2.9195   11.2766    0.0464 C.ar    1  LIG1       -0.0237
     30 S           2.7902    9.6050    0.4457 S.2     1  LIG1       -0.0961
     31 H           3.8658   11.7867    0.1529 H       1  LIG1        0.0693
     32 H          -0.3116   11.0052   -0.7560 H       1  LIG1        0.0629
     33 H           1.6000   12.8151   -0.6880 H       1  LIG1        0.0623
@<TRIPOS>BOND
     1    32    27    1
     2    33    28    1
     3     8     3    1
     4    16    14    1
     5     7     2    1
     6    18    15    1
     7    27    28   ar
     8    27    26   ar
     9    28    29   ar
    10     3     2   ar
    11     3     4   ar
    12     2     1   ar
    13    14    15   ar
    14    14    11   ar
    15    15    12   ar
    16    23    22   ar
    17    23    19   ar
    18     4    11    1
    19     4     5   ar
    20    26    22    1
    21    26    30   ar
    22    11     9   ar
    23     1     6    1
    24     1     5   ar
    25    29    31    1
    26    29    30   ar
    27    12    19    1
    28    12    10   ar
    29    22    21   ar
    30    19    20   ar
    31     9    10   ar
    32     9    17    1
    33    10    13    1
    34    21    20   ar
    35    21    25    1
    36    20    24    1
