@<TRIPOS>MOLECULE
mol_data/opt/cam/geoms/mol2/545-8-.out
 32 35 0 0 0
SMALL
GASTEIGER

@<TRIPOS>ATOM
      1 C          -2.0779   -2.0229   -0.0021 C.ar    1  LIG1       -0.0237
      2 C          -0.7186   -1.9815   -0.0026 C.ar    1  LIG1       -0.0541
      3 C          -0.2123   -0.6528   -0.0009 C.ar    1  LIG1       -0.0469
      4 C          -1.1883    0.3078    0.0007 C.ar    1  LIG1        0.0193
      5 S          -2.7611   -0.4428    0.0000 S.2     1  LIG1       -0.0967
      6 H          -2.7219   -2.8904   -0.0030 H       1  LIG1        0.0693
      7 H          -0.0925   -2.8650   -0.0040 H       1  LIG1        0.0623
      8 H           0.8461   -0.4261   -0.0011 H       1  LIG1        0.0629
      9 C           0.2346    2.3573    0.0051 C.ar    1  LIG1       -0.0529
     10 C           0.3877    3.7315    0.0069 C.ar    1  LIG1       -0.0529
     11 C          -1.0350    1.7674    0.0027 C.ar    1  LIG1       -0.0113
     12 C          -0.7189    4.5884    0.0066 C.ar    1  LIG1       -0.0113
     13 H           1.3926    4.1415    0.0088 H       1  LIG1        0.0624
     14 C          -2.1410    2.6250    0.0024 C.ar    1  LIG1       -0.0529
     15 C          -1.9883    3.9996    0.0043 C.ar    1  LIG1       -0.0529
     16 H          -3.1453    2.2139    0.0005 H       1  LIG1        0.0624
     17 H           1.1216    1.7347    0.0056 H       1  LIG1        0.0624
     18 H          -2.8760    4.6213    0.0038 H       1  LIG1        0.0624
     19 C          -0.5661    6.0478    0.0086 C.ar    1  LIG1        0.0200
     20 C          -1.5545    7.0039    0.0099 C.ar    1  LIG1       -0.0462
     21 C          -1.0585    8.3251    0.0117 C.ar    1  LIG1       -0.0432
     22 C           0.3102    8.3758    0.0118 C.ar    1  LIG1        0.0604
     23 S           1.0050    6.7888    0.0096 S.2     1  LIG1       -0.0850
     24 H          -2.6111    6.7714    0.0097 H       1  LIG1        0.0629
     25 H          -1.6708    9.2174    0.0130 H       1  LIG1        0.0630
     26 C           1.1445    9.5603    0.0134 C.ar    1  LIG1        0.2098
     27 N           0.5315   10.7580    0.0150 N.ar    1  LIG1       -0.1253
     28 C           2.6106   11.6394    0.0166 C.ar    1  LIG1        0.1605
     29 N           2.4767    9.3888    0.0133 N.ar    1  LIG1       -0.1253
     30 N           1.2895   11.8239    0.0166 N.ar    1  LIG1       -0.1339
     31 N           3.2292   10.4603    0.0148 N.ar    1  LIG1       -0.1339
     32 H           3.2336   12.5262    0.0175 H       1  LIG1        0.1085
@<TRIPOS>BOND
     1     7     2    1
     2     6     1    1
     3     2     1   ar
     4     2     3   ar
     5     1     5   ar
     6     8     3    1
     7     3     4   ar
     8     5     4   ar
     9    16    14    1
    10     4    11    1
    11    14    11   ar
    12    14    15   ar
    13    11     9   ar
    14    18    15    1
    15    15    12   ar
    16     9    17    1
    17     9    10   ar
    18    12    10   ar
    19    12    19    1
    20    10    13    1
    21    19    23   ar
    22    19    20   ar
    23    23    22   ar
    24    24    20    1
    25    20    21   ar
    26    21    22   ar
    27    21    25    1
    28    22    26    1
    29    29    26   ar
    30    29    31   ar
    31    26    27   ar
    32    31    28   ar
    33    27    30   ar
    34    28    30   ar
    35    28    32    1
