@<TRIPOS>MOLECULE
mol_data/opt/cam/geoms/mol2/545-.out
 26 28 0 0 0
SMALL
GASTEIGER

@<TRIPOS>ATOM
      1 C          -2.0308   -1.9728   -0.0016 C.ar    1  LIG1       -0.0237
      2 C          -0.6726   -1.9205   -0.0021 C.ar    1  LIG1       -0.0541
      3 C          -0.1759   -0.5879   -0.0006 C.ar    1  LIG1       -0.0469
      4 C          -1.1574    0.3665    0.0010 C.ar    1  LIG1        0.0193
      5 S          -2.7253   -0.3964    0.0009 S.2     1  LIG1       -0.0967
      6 H          -2.6689   -2.8445   -0.0025 H       1  LIG1        0.0693
      7 H          -0.0400   -2.7994   -0.0036 H       1  LIG1        0.0623
      8 H           0.8807   -0.3529   -0.0009 H       1  LIG1        0.0629
      9 C           0.2486    2.4272    0.0045 C.ar    1  LIG1       -0.0529
     10 C           0.3922    3.8029    0.0062 C.ar    1  LIG1       -0.0529
     11 C          -1.0156    1.8275    0.0028 C.ar    1  LIG1       -0.0113
     12 C          -0.7187    4.6535    0.0063 C.ar    1  LIG1       -0.0113
     13 H           1.3939    4.2206    0.0075 H       1  LIG1        0.0624
     14 C          -2.1265    2.6782    0.0030 C.ar    1  LIG1       -0.0529
     15 C          -1.9829    4.0538    0.0047 C.ar    1  LIG1       -0.0529
     16 H          -3.1282    2.2605    0.0016 H       1  LIG1        0.0624
     17 H           1.1400    1.8106    0.0046 H       1  LIG1        0.0624
     18 H          -2.8743    4.6704    0.0046 H       1  LIG1        0.0624
     19 C          -0.5769    6.1146    0.0081 C.ar    1  LIG1        0.0193
     20 C          -1.5584    7.0689    0.0097 C.ar    1  LIG1       -0.0469
     21 C          -1.0617    8.4015    0.0112 C.ar    1  LIG1       -0.0541
     22 C           0.2965    8.4538    0.0107 C.ar    1  LIG1       -0.0237
     23 S           0.9909    6.8774    0.0085 S.2     1  LIG1       -0.0967
     24 H           0.9346    9.3255    0.0115 H       1  LIG1        0.0693
     25 H          -2.6151    6.8340    0.0099 H       1  LIG1        0.0629
     26 H          -1.6943    9.2804    0.0125 H       1  LIG1        0.0623
@<TRIPOS>BOND
     1     7     2    1
     2     6     1    1
     3     2     1   ar
     4     2     3   ar
     5     1     5   ar
     6     8     3    1
     7     3     4   ar
     8     5     4   ar
     9     4    11    1
    10    16    14    1
    11    11    14   ar
    12    11     9   ar
    13    14    15   ar
    14     9    17    1
    15     9    10   ar
    16    18    15    1
    17    15    12   ar
    18    10    12   ar
    19    10    13    1
    20    12    19    1
    21    19    23   ar
    22    19    20   ar
    23    23    22   ar
    24    20    25    1
    25    20    21   ar
    26    22    21   ar
    27    22    24    1
    28    21    26    1
