@<TRIPOS>MOLECULE
mol_data/opt/cam/geoms/mol2/545.out
 26 28 0 0 0
SMALL
GASTEIGER

@<TRIPOS>ATOM
      1 C          -2.0217   -1.9603    0.1872 C.ar    1  LIG1       -0.0237
      2 C          -0.7062   -1.9073   -0.1545 C.ar    1  LIG1       -0.0541
      3 C          -0.2150   -0.5741   -0.2370 C.ar    1  LIG1       -0.0469
      4 C          -1.1609    0.3735    0.0430 C.ar    1  LIG1        0.0193
      5 S          -2.6806   -0.3853    0.4215 S.2     1  LIG1       -0.0967
      6 H          -2.6440   -2.8336    0.3186 H       1  LIG1        0.0693
      7 H          -0.1040   -2.7858   -0.3507 H       1  LIG1        0.0623
      8 H           0.7993   -0.3240   -0.5228 H       1  LIG1        0.0629
      9 C           0.2315    2.4118    0.3545 C.ar    1  LIG1       -0.0529
     10 C           0.3960    3.7859    0.3561 C.ar    1  LIG1       -0.0529
     11 C          -1.0068    1.8334    0.0536 C.ar    1  LIG1       -0.0113
     12 C          -0.6707    4.6409    0.0569 C.ar    1  LIG1       -0.0113
     13 H           1.3585    4.2082    0.6240 H       1  LIG1        0.0624
     14 C          -2.0748    2.6879   -0.2354 C.ar    1  LIG1       -0.0529
     15 C          -1.9102    4.0633   -0.2337 C.ar    1  LIG1       -0.0529
     16 H          -3.0429    2.2697   -0.4916 H       1  LIG1        0.0624
     17 H           1.0670    1.7736    0.6211 H       1  LIG1        0.0624
     18 H          -2.7521    4.6989   -0.4887 H       1  LIG1        0.0624
     19 C          -0.4759    6.0959    0.0498 C.ar    1  LIG1        0.0193
     20 C           0.6669    6.7942   -0.2290 C.ar    1  LIG1       -0.0469
     21 C           0.5043    8.2055   -0.1430 C.ar    1  LIG1       -0.0541
     22 C          -0.7614    8.5667    0.2000 C.ar    1  LIG1       -0.0237
     23 S          -1.7733    7.1911    0.4313 S.2     1  LIG1       -0.0967
     24 H          -1.1599    9.5619    0.3341 H       1  LIG1        0.0693
     25 H           1.5933    6.3124   -0.5164 H       1  LIG1        0.0629
     26 H           1.2967    8.9174   -0.3378 H       1  LIG1        0.0623
@<TRIPOS>BOND
     1     8     3    1
     2    25    20    1
     3    16    14    1
     4    18    15    1
     5     7     2    1
     6    26    21    1
     7     3     2   ar
     8     3     4   ar
     9    14    15   ar
    10    14    11   ar
    11    15    12   ar
    12    20    21   ar
    13    20    19   ar
    14     2     1   ar
    15    21    22   ar
    16     4    11    1
    17     4     5   ar
    18    19    12    1
    19    19    23   ar
    20    11     9   ar
    21    12    10   ar
    22     1     6    1
    23     1     5   ar
    24    22    24    1
    25    22    23   ar
    26     9    10   ar
    27     9    17    1
    28    10    13    1
