@<TRIPOS>MOLECULE
mol_data/opt/cam/geoms/mol2/548-12.out
 32 35 0 0 0
SMALL
GASTEIGER

@<TRIPOS>ATOM
      1 C          -2.0074   -1.9874   -0.0017 C.ar    1  LIG1       -0.0237
      2 C          -0.6483   -1.9306   -0.0028 C.ar    1  LIG1       -0.0541
      3 C          -0.1580   -0.5964   -0.0013 C.ar    1  LIG1       -0.0469
      4 C          -1.1454    0.3528    0.0009 C.ar    1  LIG1        0.0193
      5 S          -2.7091   -0.4161    0.0010 S.2     1  LIG1       -0.0967
      6 H          -2.6409   -2.8625   -0.0024 H       1  LIG1        0.0693
      7 H          -0.0120   -2.8068   -0.0046 H       1  LIG1        0.0623
      8 H           0.8976   -0.3568   -0.0020 H       1  LIG1        0.0629
      9 C           0.2590    2.4133    0.0044 C.ar    1  LIG1       -0.0529
     10 C           0.4017    3.7884    0.0062 C.ar    1  LIG1       -0.0503
     11 C          -1.0083    1.8144    0.0029 C.ar    1  LIG1       -0.0113
     12 C          -0.7233    4.6174    0.0066 C.ar    1  LIG1        0.0227
     13 H           1.3880    4.2362    0.0074 H       1  LIG1        0.0625
     14 C          -2.1274    2.6563    0.0032 C.ar    1  LIG1       -0.0529
     15 C          -1.9914    4.0330    0.0051 C.ar    1  LIG1       -0.0503
     16 H          -3.1256    2.2309    0.0020 H       1  LIG1        0.0624
     17 H           1.1493    1.7955    0.0043 H       1  LIG1        0.0624
     18 H          -2.8673    4.6703    0.0054 H       1  LIG1        0.0625
     19 C          -0.5746    6.0811    0.0086 C.ar    1  LIG1        0.2034
     20 N          -1.6848    6.8333    0.0089 N.ar    1  LIG1       -0.1251
     21 C          -0.3159    8.6336    0.0119 C.ar    1  LIG1        0.2381
     22 N           0.6681    6.5935    0.0099 N.ar    1  LIG1       -0.1251
     23 N          -1.5593    8.1338    0.0106 N.ar    1  LIG1       -0.1220
     24 N           0.8022    7.8891    0.0116 N.ar    1  LIG1       -0.1220
     25 C          -0.1331   10.0716    0.0139 C.ar    1  LIG1        0.1751
     26 C           0.9948   10.8380    0.0155 C.ar    1  LIG1       -0.0126
     27 C           0.5522   12.1903    0.0170 C.ar    1  LIG1       -0.0232
     28 C          -0.8057   12.1385    0.0161 C.ar    1  LIG1        0.0927
     29 O          -1.2385   10.8606    0.0143 O.2     1  LIG1       -0.4597
     30 H          -1.5745   12.8949    0.0167 H       1  LIG1        0.1029
     31 H           2.0070   10.4647    0.0156 H       1  LIG1        0.0656
     32 H           1.1617   13.0811    0.0185 H       1  LIG1        0.0649
@<TRIPOS>BOND
     1     7     2    1
     2     2     1   ar
     3     2     3   ar
     4     6     1    1
     5     8     3    1
     6     1     5   ar
     7     3     4   ar
     8     4     5   ar
     9     4    11    1
    10    16    14    1
    11    11    14   ar
    12    11     9   ar
    13    14    15   ar
    14    17     9    1
    15     9    10   ar
    16    15    18    1
    17    15    12   ar
    18    10    12   ar
    19    10    13    1
    20    12    19    1
    21    19    20   ar
    22    19    22   ar
    23    20    23   ar
    24    22    24   ar
    25    23    21   ar
    26    24    21   ar
    27    21    25    1
    28    25    29   ar
    29    25    26   ar
    30    29    28   ar
    31    26    31    1
    32    26    27   ar
    33    28    30    1
    34    28    27   ar
    35    27    32    1
