@<TRIPOS>MOLECULE
mol_data/opt/cam/geoms/mol2/548-.out
 25 27 0 0 0
SMALL
GASTEIGER

@<TRIPOS>ATOM
      1 C          -2.0441   -1.9311   -0.0010 C.ar    1  LIG1       -0.0237
      2 C          -0.6844   -1.8889   -0.0021 C.ar    1  LIG1       -0.0541
      3 C          -0.1802   -0.5600   -0.0009 C.ar    1  LIG1       -0.0469
      4 C          -1.1579    0.3993    0.0011 C.ar    1  LIG1        0.0193
      5 S          -2.7295   -0.3530    0.0013 S.2     1  LIG1       -0.0967
      6 H          -2.6868   -2.7995   -0.0015 H       1  LIG1        0.0693
      7 H          -0.0575   -2.7717   -0.0037 H       1  LIG1        0.0623
      8 H           0.8779   -0.3316   -0.0016 H       1  LIG1        0.0629
      9 C           0.2689    2.4439    0.0043 C.ar    1  LIG1       -0.0529
     10 C           0.4266    3.8172    0.0059 C.ar    1  LIG1       -0.0503
     11 C          -1.0051    1.8592    0.0028 C.ar    1  LIG1       -0.0113
     12 C          -0.6898    4.6577    0.0061 C.ar    1  LIG1        0.0227
     13 H           1.4176    4.2546    0.0070 H       1  LIG1        0.0625
     14 C          -2.1155    2.7128    0.0031 C.ar    1  LIG1       -0.0529
     15 C          -1.9644    4.0879    0.0047 C.ar    1  LIG1       -0.0503
     16 H          -3.1180    2.2981    0.0019 H       1  LIG1        0.0624
     17 H           1.1522    1.8163    0.0043 H       1  LIG1        0.0624
     18 H          -2.8333    4.7345    0.0048 H       1  LIG1        0.0625
     19 C          -0.5243    6.1201    0.0078 C.ar    1  LIG1        0.2033
     20 N          -1.6308    6.8813    0.0081 N.ar    1  LIG1       -0.1258
     21 C          -0.2377    8.6547    0.0110 C.ar    1  LIG1        0.1605
     22 N           0.7242    6.6149    0.0091 N.ar    1  LIG1       -0.1258
     23 N          -1.4830    8.1825    0.0097 N.ar    1  LIG1       -0.1339
     24 N           0.8707    7.9164    0.0107 N.ar    1  LIG1       -0.1339
     25 H          -0.1159    9.7318    0.0121 H       1  LIG1        0.1085
@<TRIPOS>BOND
     1     7     2    1
     2     2     1   ar
     3     2     3   ar
     4     8     3    1
     5     6     1    1
     6     1     5   ar
     7     3     4   ar
     8     4     5   ar
     9     4    11    1
    10    16    14    1
    11    11    14   ar
    12    11     9   ar
    13    14    15   ar
    14     9    17    1
    15     9    10   ar
    16    15    18    1
    17    15    12   ar
    18    10    12   ar
    19    10    13    1
    20    12    19    1
    21    19    20   ar
    22    19    22   ar
    23    20    23   ar
    24    22    24   ar
    25    23    21   ar
    26    24    21   ar
    27    21    25    1
