@<TRIPOS>MOLECULE
mol_data/opt/cam/geoms/mol2/55-.out
 16 17 0 0 0
SMALL
GASTEIGER

@<TRIPOS>ATOM
      1 C          -2.0419   -1.8469   -0.0004 C.ar    1  LIG1       -0.0237
      2 C          -0.6838   -1.7975   -0.0008 C.ar    1  LIG1       -0.0541
      3 C          -0.1830   -0.4659   -0.0000 C.ar    1  LIG1       -0.0464
      4 C          -1.1664    0.4852    0.0009 C.ar    1  LIG1        0.0259
      5 S          -2.7372   -0.2682    0.0010 S.2     1  LIG1       -0.0961
      6 H          -2.6817   -2.7173   -0.0008 H       1  LIG1        0.0693
      7 H          -0.0536   -2.6781   -0.0016 H       1  LIG1        0.0623
      8 H           0.8727   -0.2219   -0.0003 H       1  LIG1        0.0629
      9 C          -1.0335    1.9327    0.0019 C.ar    1  LIG1        0.0259
     10 C          -2.0169    2.8838    0.0024 C.ar    1  LIG1       -0.0464
     11 C          -1.5161    4.2154    0.0032 C.ar    1  LIG1       -0.0541
     12 C          -0.1580    4.2648    0.0033 C.ar    1  LIG1       -0.0237
     13 S           0.5373    2.6861    0.0025 S.2     1  LIG1       -0.0961
     14 H           0.4818    5.1352    0.0038 H       1  LIG1        0.0693
     15 H          -3.0726    2.6398    0.0022 H       1  LIG1        0.0629
     16 H          -2.1463    5.0960    0.0037 H       1  LIG1        0.0623
@<TRIPOS>BOND
     1     7     2    1
     2     2     1   ar
     3     2     3   ar
     4     6     1    1
     5     1     5   ar
     6     8     3    1
     7     3     4   ar
     8     4     5   ar
     9     4     9    1
    10     9    10   ar
    11     9    13   ar
    12    15    10    1
    13    10    11   ar
    14    13    12   ar
    15    11    12   ar
    16    11    16    1
    17    12    14    1
