@<TRIPOS>MOLECULE
mol_data/opt/cam/geoms/mol2/55-13.out
 24 26 0 0 0
SMALL
GASTEIGER

@<TRIPOS>ATOM
      1 C          -2.0891   -1.9351   -0.0006 C.ar    1  LIG1       -0.0237
      2 C          -0.7305   -1.8900   -0.0013 C.ar    1  LIG1       -0.0541
      3 C          -0.2246   -0.5600   -0.0005 C.ar    1  LIG1       -0.0464
      4 C          -1.2061    0.3945    0.0008 C.ar    1  LIG1        0.0259
      5 S          -2.7792   -0.3537    0.0010 S.2     1  LIG1       -0.0961
      6 H          -2.7311   -2.8038   -0.0010 H       1  LIG1        0.0693
      7 H          -0.1031   -2.7725   -0.0024 H       1  LIG1        0.0623
      8 H           0.8321   -0.3206   -0.0009 H       1  LIG1        0.0629
      9 C          -1.0674    1.8394    0.0019 C.ar    1  LIG1        0.0265
     10 C          -2.0443    2.7963    0.0029 C.ar    1  LIG1       -0.0458
     11 C          -1.5390    4.1221    0.0038 C.ar    1  LIG1       -0.0449
     12 C          -0.1710    4.1848    0.0036 C.ar    1  LIG1        0.0361
     13 S           0.5091    2.5842    0.0023 S.2     1  LIG1       -0.0863
     14 H          -3.1021    2.5615    0.0029 H       1  LIG1        0.0629
     15 H          -2.1818    4.9945    0.0048 H       1  LIG1        0.0630
     16 C           0.6921    5.3481    0.0043 C.ar    1  LIG1        0.0531
     17 C           2.0684    5.4591    0.0057 C.ar    1  LIG1       -0.0359
     18 C           2.3922    6.8371    0.0056 C.ar    1  LIG1       -0.0438
     19 C           1.2099    7.5341    0.0047 C.ar    1  LIG1        0.0022
     20 N           0.1871    6.6273    0.0037 N.ar    1  LIG1       -0.3603
     21 H          -0.7914    6.8602    0.0024 H       1  LIG1        0.1653
     22 H           1.0141    8.5953    0.0044 H       1  LIG1        0.0807
     23 H           2.7640    4.6322    0.0066 H       1  LIG1        0.0639
     24 H           3.3819    7.2688    0.0063 H       1  LIG1        0.0633
@<TRIPOS>BOND
     1     7     2    1
     2     2     1   ar
     3     2     3   ar
     4     6     1    1
     5     8     3    1
     6     1     5   ar
     7     3     4   ar
     8     4     5   ar
     9     4     9    1
    10     9    13   ar
    11     9    10   ar
    12    13    12   ar
    13    21    20    1
    14    10    14    1
    15    10    11   ar
    16    12    11   ar
    17    12    16    1
    18    20    16   ar
    19    20    19   ar
    20    11    15    1
    21    16    17   ar
    22    22    19    1
    23    19    18   ar
    24    18    17   ar
    25    18    24    1
    26    17    23    1
