@<TRIPOS>MOLECULE
mol_data/opt/cam/geoms/mol2/55-4-.out
 26 28 0 0 0
SMALL
GASTEIGER

@<TRIPOS>ATOM
      1 C          -2.1596   -1.9213   -0.3277 C.ar    1  LIG1       -0.0237
      2 C          -0.8131   -1.9218   -0.1358 C.ar    1  LIG1       -0.0541
      3 C          -0.2803   -0.6120    0.0228 C.ar    1  LIG1       -0.0464
      4 C          -1.2299    0.3708   -0.0528 C.ar    1  LIG1        0.0259
      5 S          -2.8017   -0.3209   -0.3353 S.2     1  LIG1       -0.0961
      6 H          -2.8156   -2.7681   -0.4676 H       1  LIG1        0.0693
      7 H          -0.2153   -2.8239   -0.0987 H       1  LIG1        0.0623
      8 H           0.7667   -0.4042    0.2075 H       1  LIG1        0.0629
      9 C          -1.0598    1.8091    0.0644 C.ar    1  LIG1        0.0265
     10 C          -1.9803    2.7539    0.4284 C.ar    1  LIG1       -0.0458
     11 C          -1.4571    4.0728    0.4404 C.ar    1  LIG1       -0.0463
     12 C          -0.1372    4.1418    0.0888 C.ar    1  LIG1        0.0199
     13 S           0.4705    2.5556   -0.2890 S.2     1  LIG1       -0.0877
     14 H          -2.9973    2.5069    0.7087 H       1  LIG1        0.0629
     15 H          -2.0316    4.9413    0.7378 H       1  LIG1        0.0629
     16 C           0.1637    6.5763   -0.3092 C.ar    1  LIG1       -0.0535
     17 C           0.9586    7.7113   -0.3749 C.ar    1  LIG1       -0.0612
     18 C           0.7203    5.3308    0.0037 C.ar    1  LIG1       -0.0113
     19 C           2.3272    7.6240   -0.1441 C.ar    1  LIG1       -0.0617
     20 H           0.5081    8.6677   -0.6199 H       1  LIG1        0.0618
     21 C           2.0978    5.2557    0.2345 C.ar    1  LIG1       -0.0535
     22 C           2.8930    6.3907    0.1569 C.ar    1  LIG1       -0.0612
     23 H           2.5463    4.3023    0.4953 H       1  LIG1        0.0624
     24 H           2.9489    8.5113   -0.2017 H       1  LIG1        0.0618
     25 H          -0.8977    6.6468   -0.5216 H       1  LIG1        0.0624
     26 H           3.9594    6.3113    0.3414 H       1  LIG1        0.0618
@<TRIPOS>BOND
     1    20    17    1
     2    25    16    1
     3     6     1    1
     4    17    16   ar
     5    17    19   ar
     6     5     1   ar
     7     5     4   ar
     8     1     2   ar
     9    16    18   ar
    10    13     9   ar
    11    13    12   ar
    12    24    19    1
    13    19    22   ar
    14     2     7    1
    15     2     3   ar
    16     4     3   ar
    17     4     9    1
    18    18    12    1
    19    18    21   ar
    20     3     8    1
    21     9    10   ar
    22    12    11   ar
    23    22    21   ar
    24    22    26    1
    25    21    23    1
    26    10    11   ar
    27    10    14    1
    28    11    15    1
