@<TRIPOS>MOLECULE
mol_data/opt/cam/geoms/mol2/55-4.out
 26 28 0 0 0
SMALL
GASTEIGER

@<TRIPOS>ATOM
      1 C          -2.1308   -1.9285   -0.3262 C.ar    1  LIG1       -0.0237
      2 C          -0.7846   -1.9181   -0.1334 C.ar    1  LIG1       -0.0541
      3 C          -0.2624   -0.6040    0.0247 C.ar    1  LIG1       -0.0464
      4 C          -1.2199    0.3710   -0.0515 C.ar    1  LIG1        0.0259
      5 S          -2.7859   -0.3334   -0.3346 S.2     1  LIG1       -0.0961
      6 H          -2.7797   -2.7807   -0.4663 H       1  LIG1        0.0693
      7 H          -0.1796   -2.8154   -0.0956 H       1  LIG1        0.0623
      8 H           0.7828   -0.3873    0.2096 H       1  LIG1        0.0629
      9 C          -1.0616    1.8107    0.0655 C.ar    1  LIG1        0.0265
     10 C          -1.9899    2.7481    0.4283 C.ar    1  LIG1       -0.0458
     11 C          -1.4772    4.0710    0.4408 C.ar    1  LIG1       -0.0463
     12 C          -0.1578    4.1507    0.0900 C.ar    1  LIG1        0.0199
     13 S           0.4630    2.5691   -0.2869 S.2     1  LIG1       -0.0877
     14 H          -3.0052    2.4930    0.7075 H       1  LIG1        0.0629
     15 H          -2.0589    4.9349    0.7377 H       1  LIG1        0.0629
     16 C           2.0683    5.2823    0.2367 C.ar    1  LIG1       -0.0535
     17 C           2.8545    6.4234    0.1589 C.ar    1  LIG1       -0.0612
     18 C           0.6904    5.3463    0.0049 C.ar    1  LIG1       -0.0113
     19 C           2.2791    7.6521   -0.1430 C.ar    1  LIG1       -0.0617
     20 H           3.9214    6.3526    0.3442 H       1  LIG1        0.0618
     21 C           0.1242    6.5871   -0.3090 C.ar    1  LIG1       -0.0535
     22 C           0.9101    7.7284   -0.3747 C.ar    1  LIG1       -0.0612
     23 H          -0.9376    6.6492   -0.5220 H       1  LIG1        0.0624
     24 H           2.8938    8.5442   -0.2007 H       1  LIG1        0.0618
     25 H           2.5241    4.3326    0.4982 H       1  LIG1        0.0624
     26 H           0.4520    8.6811   -0.6205 H       1  LIG1        0.0618
@<TRIPOS>BOND
     1    26    22    1
     2    23    21    1
     3     6     1    1
     4    22    21   ar
     5    22    19   ar
     6     5     1   ar
     7     5     4   ar
     8     1     2   ar
     9    21    18   ar
    10    13     9   ar
    11    13    12   ar
    12    24    19    1
    13    19    17   ar
    14     2     7    1
    15     2     3   ar
    16     4     3   ar
    17     4     9    1
    18    18    12    1
    19    18    16   ar
    20     3     8    1
    21     9    10   ar
    22    12    11   ar
    23    17    16   ar
    24    17    20    1
    25    16    25    1
    26    10    11   ar
    27    10    14    1
    28    11    15    1
