@<TRIPOS>MOLECULE
mol_data/opt/cam/geoms/mol2/55-5.out
 23 25 0 0 0
SMALL
GASTEIGER

@<TRIPOS>ATOM
      1 C          -2.1212   -1.9279   -0.0000 C.ar    1  LIG1       -0.0237
      2 C          -0.7618   -1.9012   -0.0010 C.ar    1  LIG1       -0.0541
      3 C          -0.2390   -0.5782   -0.0005 C.ar    1  LIG1       -0.0464
      4 C          -1.2084    0.3886    0.0008 C.ar    1  LIG1        0.0259
      5 S          -2.7910   -0.3387    0.0010 S.2     1  LIG1       -0.0961
      6 H          -2.7744   -2.7882   -0.0001 H       1  LIG1        0.0693
      7 H          -0.1462   -2.7919   -0.0019 H       1  LIG1        0.0623
      8 H           0.8207   -0.3523   -0.0010 H       1  LIG1        0.0629
      9 C          -1.0517    1.8317    0.0017 C.ar    1  LIG1        0.0265
     10 C          -2.0188    2.7998    0.0024 C.ar    1  LIG1       -0.0458
     11 C          -1.4989    4.1183    0.0033 C.ar    1  LIG1       -0.0458
     12 C          -0.1314    4.1658    0.0030 C.ar    1  LIG1        0.0265
     13 S           0.5327    2.5555    0.0018 S.2     1  LIG1       -0.0872
     14 H          -3.0790    2.5764    0.0025 H       1  LIG1        0.0629
     15 H          -2.1213    5.0051    0.0040 H       1  LIG1        0.0629
     16 C           0.7389    5.3276    0.0036 C.ar    1  LIG1        0.0259
     17 C           2.1073    5.3726    0.0040 C.ar    1  LIG1       -0.0464
     18 C           2.6281    6.6964    0.0045 C.ar    1  LIG1       -0.0541
     19 C           1.6527    7.6436    0.0044 C.ar    1  LIG1       -0.0237
     20 S           0.0786    6.9392    0.0041 S.2     1  LIG1       -0.0961
     21 H           1.7624    8.7183    0.0046 H       1  LIG1        0.0693
     22 H           2.7277    4.4843    0.0039 H       1  LIG1        0.0629
     23 H           3.6860    6.9273    0.0047 H       1  LIG1        0.0623
@<TRIPOS>BOND
     1     7     2    1
     2     8     3    1
     3     2     3   ar
     4     2     1   ar
     5     3     4   ar
     6     6     1    1
     7     1     5   ar
     8     4     5   ar
     9     4     9    1
    10     9    13   ar
    11     9    10   ar
    12    13    12   ar
    13    10    14    1
    14    10    11   ar
    15    12    11   ar
    16    12    16    1
    17    11    15    1
    18    16    17   ar
    19    16    20   ar
    20    22    17    1
    21    17    18   ar
    22    20    19   ar
    23    19    18   ar
    24    19    21    1
    25    18    23    1
