@<TRIPOS>MOLECULE
mol_data/opt/cam/geoms/mol2/55-5-.out
 23 25 0 0 0
SMALL
GASTEIGER

@<TRIPOS>ATOM
      1 C          -2.0958   -1.9304   -0.0003 C.ar    1  LIG1       -0.0237
      2 C          -0.7369   -1.8888   -0.0015 C.ar    1  LIG1       -0.0541
      3 C          -0.2283   -0.5603   -0.0008 C.ar    1  LIG1       -0.0464
      4 C          -1.2081    0.3961    0.0008 C.ar    1  LIG1        0.0259
      5 S          -2.7826   -0.3484    0.0014 S.2     1  LIG1       -0.0961
      6 H          -2.7396   -2.7979   -0.0004 H       1  LIG1        0.0693
      7 H          -0.1116   -2.7727   -0.0027 H       1  LIG1        0.0623
      8 H           0.8289   -0.3231   -0.0016 H       1  LIG1        0.0629
      9 C          -1.0666    1.8407    0.0020 C.ar    1  LIG1        0.0265
     10 C          -2.0431    2.8001    0.0031 C.ar    1  LIG1       -0.0458
     11 C          -1.5374    4.1232    0.0041 C.ar    1  LIG1       -0.0458
     12 C          -0.1692    4.1852    0.0037 C.ar    1  LIG1        0.0265
     13 S           0.5082    2.5815    0.0019 S.2     1  LIG1       -0.0872
     14 H          -3.1010    2.5659    0.0033 H       1  LIG1        0.0629
     15 H          -2.1689    5.0025    0.0053 H       1  LIG1        0.0629
     16 C           0.6650    5.3762    0.0043 C.ar    1  LIG1        0.0259
     17 C           0.2513    6.6828    0.0033 C.ar    1  LIG1       -0.0464
     18 C           1.3252    7.6139    0.0046 C.ar    1  LIG1       -0.0541
     19 C           2.5447    7.0112    0.0066 C.ar    1  LIG1       -0.0237
     20 S           2.4034    5.2938    0.0068 S.2     1  LIG1       -0.0961
     21 H           3.5213    7.4726    0.0079 H       1  LIG1        0.0693
     22 H          -0.7920    6.9718    0.0015 H       1  LIG1        0.0629
     23 H           1.1903    8.6883    0.0040 H       1  LIG1        0.0623
@<TRIPOS>BOND
     1     7     2    1
     2     8     3    1
     3     2     3   ar
     4     2     1   ar
     5     3     4   ar
     6     6     1    1
     7     1     5   ar
     8     4     5   ar
     9     4     9    1
    10    22    17    1
    11    13     9   ar
    12    13    12   ar
    13     9    10   ar
    14    10    14    1
    15    10    11   ar
    16    17    16   ar
    17    17    18   ar
    18    12    11   ar
    19    12    16    1
    20    23    18    1
    21    11    15    1
    22    16    20   ar
    23    18    19   ar
    24    19    20   ar
    25    19    21    1
