@<TRIPOS>MOLECULE
mol_data/opt/cam/geoms/mol2/55-88.out
 28 31 0 0 0
SMALL
GASTEIGER

@<TRIPOS>ATOM
      1 C          -2.1190   -1.9207   -0.0001 C.ar    1  LIG1       -0.0237
      2 C          -0.7582   -1.8942   -0.0006 C.ar    1  LIG1       -0.0541
      3 C          -0.2384   -0.5722   -0.0001 C.ar    1  LIG1       -0.0464
      4 C          -1.2112    0.3928    0.0008 C.ar    1  LIG1        0.0259
      5 S          -2.7921   -0.3362    0.0008 S.2     1  LIG1       -0.0961
      6 H          -2.7706   -2.7825   -0.0004 H       1  LIG1        0.0693
      7 H          -0.1424   -2.7845   -0.0013 H       1  LIG1        0.0623
      8 H           0.8210   -0.3444   -0.0003 H       1  LIG1        0.0629
      9 C          -1.0531    1.8352    0.0017 C.ar    1  LIG1        0.0266
     10 C          -2.0380    2.7968    0.0022 C.ar    1  LIG1       -0.0457
     11 C          -1.5286    4.1111    0.0030 C.ar    1  LIG1       -0.0432
     12 C          -0.1574    4.1481    0.0030 C.ar    1  LIG1        0.0604
     13 S           0.5262    2.5529    0.0022 S.2     1  LIG1       -0.0845
     14 H          -3.0953    2.5624    0.0020 H       1  LIG1        0.0629
     15 H          -2.1310    5.0102    0.0034 H       1  LIG1        0.0630
     16 C           0.6850    5.3196    0.0037 C.ar    1  LIG1        0.2099
     17 N           2.0176    5.1373    0.0037 N.ar    1  LIG1       -0.1246
     18 C           2.1800    7.3894    0.0050 C.ar    1  LIG1        0.2435
     19 N           0.0887    6.5277    0.0044 N.ar    1  LIG1       -0.1246
     20 N           2.7794    6.1958    0.0044 N.ar    1  LIG1       -0.1218
     21 N           0.8556    7.5809    0.0050 N.ar    1  LIG1       -0.1218
     22 C           3.0491    8.5965    0.0058 C.ar    1  LIG1        0.2434
     23 N           4.3718    8.4011    0.0056 N.ar    1  LIG1       -0.1224
     24 C           4.5292   10.6518    0.0067 C.ar    1  LIG1        0.1605
     25 N           2.4444    9.7890    0.0065 N.ar    1  LIG1       -0.1224
     26 N           5.1369    9.4663    0.0061 N.ar    1  LIG1       -0.1338
     27 N           3.2123   10.8523    0.0071 N.ar    1  LIG1       -0.1338
     28 H           5.1628   11.5316    0.0076 H       1  LIG1        0.1085
@<TRIPOS>BOND
     1     7     2    1
     2     2     1   ar
     3     2     3   ar
     4     6     1    1
     5     8     3    1
     6     1     5   ar
     7     3     4   ar
     8     5     4   ar
     9     4     9    1
    10     9    10   ar
    11     9    13   ar
    12    14    10    1
    13    10    11   ar
    14    13    12   ar
    15    11    12   ar
    16    11    15    1
    17    12    16    1
    18    17    16   ar
    19    17    20   ar
    20    16    19   ar
    21    20    18   ar
    22    19    21   ar
    23    18    21   ar
    24    18    22    1
    25    23    22   ar
    26    23    26   ar
    27    22    25   ar
    28    26    24   ar
    29    25    27   ar
    30    24    27   ar
    31    24    28    1
