@<TRIPOS>MOLECULE
mol_data/opt/cam/geoms/mol2/55-8.out
 22 24 0 0 0
SMALL
GASTEIGER

@<TRIPOS>ATOM
      1 C          -2.0876   -1.8896   -0.0002 C.ar    1  LIG1       -0.0237
      2 C          -0.7273   -1.8574   -0.0007 C.ar    1  LIG1       -0.0541
      3 C          -0.2123   -0.5329   -0.0001 C.ar    1  LIG1       -0.0464
      4 C          -1.1882    0.4283    0.0008 C.ar    1  LIG1        0.0259
      5 S          -2.7663   -0.3067    0.0008 S.2     1  LIG1       -0.0961
      6 H          -2.7359   -2.7538   -0.0004 H       1  LIG1        0.0693
      7 H          -0.1077   -2.7452   -0.0014 H       1  LIG1        0.0623
      8 H           0.8462   -0.3012   -0.0004 H       1  LIG1        0.0629
      9 C          -1.0359    1.8721    0.0017 C.ar    1  LIG1        0.0266
     10 C          -2.0221    2.8300    0.0022 C.ar    1  LIG1       -0.0457
     11 C          -1.5155    4.1477    0.0031 C.ar    1  LIG1       -0.0432
     12 C          -0.1466    4.1886    0.0032 C.ar    1  LIG1        0.0604
     13 S           0.5418    2.5960    0.0022 S.2     1  LIG1       -0.0845
     14 H          -3.0790    2.5934    0.0020 H       1  LIG1        0.0629
     15 H          -2.1206    5.0448    0.0036 H       1  LIG1        0.0630
     16 C           0.6975    5.3656    0.0040 C.ar    1  LIG1        0.2098
     17 N           2.0279    5.1807    0.0038 N.ar    1  LIG1       -0.1253
     18 C           2.1845    7.4296    0.0050 C.ar    1  LIG1        0.1605
     19 N           0.0964    6.5693    0.0046 N.ar    1  LIG1       -0.1253
     20 N           2.7913    6.2443    0.0045 N.ar    1  LIG1       -0.1339
     21 N           0.8652    7.6274    0.0052 N.ar    1  LIG1       -0.1339
     22 H           2.8162    8.3101    0.0059 H       1  LIG1        0.1085
@<TRIPOS>BOND
     1     7     2    1
     2     2     1   ar
     3     2     3   ar
     4     6     1    1
     5     8     3    1
     6     1     5   ar
     7     3     4   ar
     8     5     4   ar
     9     4     9    1
    10     9    13   ar
    11     9    10   ar
    12    14    10    1
    13    13    12   ar
    14    10    11   ar
    15    11    12   ar
    16    11    15    1
    17    12    16    1
    18    17    16   ar
    19    17    20   ar
    20    16    19   ar
    21    20    18   ar
    22    19    21   ar
    23    18    21   ar
    24    18    22    1
