@<TRIPOS>MOLECULE
mol_data/opt/cam/geoms/mol2/55-8-4-.out
 32 35 0 0 0
SMALL
GASTEIGER

@<TRIPOS>ATOM
      1 C          -2.1460   -1.9547    0.0005 C.ar    1  LIG1       -0.0237
      2 C          -0.7857   -1.9277   -0.0002 C.ar    1  LIG1       -0.0541
      3 C          -0.2652   -0.6051    0.0002 C.ar    1  LIG1       -0.0464
      4 C          -1.2369    0.3602    0.0010 C.ar    1  LIG1        0.0259
      5 S          -2.8181   -0.3686    0.0012 S.2     1  LIG1       -0.0961
      6 H          -2.7979   -2.8161    0.0004 H       1  LIG1        0.0693
      7 H          -0.1697   -2.8180   -0.0008 H       1  LIG1        0.0623
      8 H           0.7941   -0.3774   -0.0002 H       1  LIG1        0.0629
      9 C          -1.0791    1.8036    0.0017 C.ar    1  LIG1        0.0266
     10 C          -2.0602    2.7657    0.0021 C.ar    1  LIG1       -0.0457
     11 C          -1.5480    4.0820    0.0027 C.ar    1  LIG1       -0.0432
     12 C          -0.1792    4.1175    0.0027 C.ar    1  LIG1        0.0604
     13 S           0.5021    2.5219    0.0020 S.2     1  LIG1       -0.0845
     14 H          -3.1182    2.5337    0.0019 H       1  LIG1        0.0629
     15 H          -2.1496    4.9814    0.0030 H       1  LIG1        0.0630
     16 C           0.6712    5.2907    0.0032 C.ar    1  LIG1        0.2099
     17 N           0.0820    6.4986    0.0037 N.ar    1  LIG1       -0.1247
     18 C           2.1843    7.3690    0.0041 C.ar    1  LIG1        0.2034
     19 N           1.9999    5.1052    0.0032 N.ar    1  LIG1       -0.1247
     20 N           0.8530    7.5490    0.0042 N.ar    1  LIG1       -0.1252
     21 N           2.7659    6.1608    0.0036 N.ar    1  LIG1       -0.1252
     22 C           2.4856    9.8406    0.0051 C.ar    1  LIG1       -0.0509
     23 C           3.3038   10.9608    0.0057 C.ar    1  LIG1       -0.0611
     24 C           3.0503    8.5626    0.0047 C.ar    1  LIG1        0.0226
     25 C           4.6873   10.8169    0.0057 C.ar    1  LIG1       -0.0617
     26 H           2.8595   11.9506    0.0060 H       1  LIG1        0.0618
     27 C           4.4404    8.4213    0.0047 C.ar    1  LIG1       -0.0509
     28 C           5.2524    9.5458    0.0052 C.ar    1  LIG1       -0.0611
     29 H           4.8694    7.4267    0.0043 H       1  LIG1        0.0625
     30 H           5.3249   11.6950    0.0061 H       1  LIG1        0.0618
     31 H           1.4071    9.9411    0.0051 H       1  LIG1        0.0625
     32 H           6.3311    9.4295    0.0053 H       1  LIG1        0.0618
@<TRIPOS>BOND
     1     7     2    1
     2     2     3   ar
     3     2     1   ar
     4     8     3    1
     5     3     4   ar
     6     6     1    1
     7     1     5   ar
     8     4     5   ar
     9     4     9    1
    10     9    13   ar
    11     9    10   ar
    12    14    10    1
    13    13    12   ar
    14    10    11   ar
    15    11    12   ar
    16    11    15    1
    17    12    16    1
    18    19    16   ar
    19    19    21   ar
    20    16    17   ar
    21    21    18   ar
    22    17    20   ar
    23    18    20   ar
    24    18    24    1
    25    29    27    1
    26    24    27   ar
    27    24    22   ar
    28    27    28   ar
    29    31    22    1
    30    22    23   ar
    31    28    32    1
    32    28    25   ar
    33    23    25   ar
    34    23    26    1
    35    25    30    1
