@<TRIPOS>MOLECULE
mol_data/opt/cam/geoms/mol2/5512.out
 23 25 0 0 0
SMALL
GASTEIGER

@<TRIPOS>ATOM
      1 C          -2.0044   -1.9230   -0.0003 C.ar    1  LIG1       -0.0237
      2 C          -0.6448   -1.8792   -0.0009 C.ar    1  LIG1       -0.0541
      3 C          -0.1372   -0.5515   -0.0003 C.ar    1  LIG1       -0.0464
      4 C          -1.1182    0.4056    0.0008 C.ar    1  LIG1        0.0259
      5 S          -2.6900   -0.3420    0.0014 S.2     1  LIG1       -0.0961
      6 H          -2.6480   -2.7904   -0.0006 H       1  LIG1        0.0693
      7 H          -0.0189   -2.7628   -0.0018 H       1  LIG1        0.0623
      8 H           0.9192   -0.3144   -0.0007 H       1  LIG1        0.0629
      9 C          -0.9455    1.8497    0.0015 C.ar    1  LIG1        0.0266
     10 C           0.2344    2.5477    0.0014 C.ar    1  LIG1       -0.0457
     11 C           0.0588    3.9523    0.0022 C.ar    1  LIG1       -0.0434
     12 C          -1.2572    4.3299    0.0028 C.ar    1  LIG1        0.0550
     13 S          -2.3001    2.9421    0.0025 S.2     1  LIG1       -0.0847
     14 H           1.2051    2.0682    0.0009 H       1  LIG1        0.0629
     15 H           0.8777    4.6611    0.0023 H       1  LIG1        0.0630
     16 C          -1.8038    5.6667    0.0037 C.ar    1  LIG1        0.1413
     17 C          -1.2435    6.9101    0.0043 C.ar    1  LIG1       -0.0154
     18 C          -2.3269    7.8395    0.0050 C.ar    1  LIG1       -0.0233
     19 C          -3.4612    7.0990    0.0048 C.ar    1  LIG1        0.0926
     20 O          -3.1607    5.7758    0.0040 O.2     1  LIG1       -0.4624
     21 H          -4.5110    7.3438    0.0051 H       1  LIG1        0.1029
     22 H          -0.1880    7.1357    0.0042 H       1  LIG1        0.0655
     23 H          -2.2638    8.9172    0.0057 H       1  LIG1        0.0649
@<TRIPOS>BOND
     1     7     2    1
     2     2     3   ar
     3     2     1   ar
     4     8     3    1
     5     6     1    1
     6     3     4   ar
     7     1     5   ar
     8     4     5   ar
     9     4     9    1
    10    14    10    1
    11    10     9   ar
    12    10    11   ar
    13     9    13   ar
    14    11    15    1
    15    11    12   ar
    16    13    12   ar
    17    12    16    1
    18    16    20   ar
    19    16    17   ar
    20    20    19   ar
    21    22    17    1
    22    17    18   ar
    23    19    18   ar
    24    19    21    1
    25    18    23    1
