@<TRIPOS>MOLECULE
mol_data/opt/cam/geoms/mol2/551212-.out
 30 33 0 0 0
SMALL
GASTEIGER

@<TRIPOS>ATOM
      1 C          -1.9262   -1.9848    0.0001 C.ar    1  LIG1       -0.0237
      2 C          -0.5672   -1.9268   -0.0009 C.ar    1  LIG1       -0.0541
      3 C          -0.0734   -0.5940   -0.0006 C.ar    1  LIG1       -0.0464
      4 C          -1.0643    0.3529    0.0007 C.ar    1  LIG1        0.0259
      5 S          -2.6283   -0.4110    0.0015 S.2     1  LIG1       -0.0961
      6 H          -2.5608   -2.8589    0.0001 H       1  LIG1        0.0693
      7 H           0.0678   -2.8039   -0.0019 H       1  LIG1        0.0623
      8 H           0.9804   -0.3456   -0.0013 H       1  LIG1        0.0629
      9 C          -0.9066    1.7983    0.0014 C.ar    1  LIG1        0.0266
     10 C           0.2664    2.5088    0.0013 C.ar    1  LIG1       -0.0457
     11 C           0.0772    3.9109    0.0021 C.ar    1  LIG1       -0.0434
     12 C          -1.2435    4.2758    0.0028 C.ar    1  LIG1        0.0550
     13 S          -2.2723    2.8769    0.0025 S.2     1  LIG1       -0.0847
     14 H           1.2419    2.0392    0.0007 H       1  LIG1        0.0629
     15 H           0.8889    4.6277    0.0021 H       1  LIG1        0.0630
     16 C          -1.8009    5.6049    0.0037 C.ar    1  LIG1        0.1424
     17 C          -1.2528    6.8554    0.0043 C.ar    1  LIG1       -0.0146
     18 C          -2.3373    7.7755    0.0051 C.ar    1  LIG1       -0.0121
     19 C          -3.4753    7.0258    0.0050 C.ar    1  LIG1        0.1706
     20 O          -3.1608    5.7029    0.0041 O.2     1  LIG1       -0.4512
     21 H          -0.1991    7.0896    0.0042 H       1  LIG1        0.0656
     22 H          -2.2900    8.8534    0.0058 H       1  LIG1        0.0657
     23 C          -4.8746    7.3580    0.0055 C.ar    1  LIG1        0.1697
     24 C          -6.0107    6.6072    0.0054 C.ar    1  LIG1       -0.0128
     25 C          -7.0964    7.5349    0.0062 C.ar    1  LIG1       -0.0232
     26 C          -6.5401    8.7701    0.0067 C.ar    1  LIG1        0.0927
     27 O          -5.1849    8.6819    0.0063 O.2     1  LIG1       -0.4598
     28 H          -6.9457    9.7689    0.0073 H       1  LIG1        0.1029
     29 H          -6.0589    5.5293    0.0049 H       1  LIG1        0.0656
     30 H          -8.1514    7.3064    0.0064 H       1  LIG1        0.0649
@<TRIPOS>BOND
     1     7     2    1
     2     8     3    1
     3     2     3   ar
     4     2     1   ar
     5     3     4   ar
     6     1     6    1
     7     1     5   ar
     8    14    10    1
     9     4     9    1
    10     4     5   ar
    11    10     9   ar
    12    10    11   ar
    13     9    13   ar
    14    11    15    1
    15    11    12   ar
    16    13    12   ar
    17    12    16    1
    18    16    20   ar
    19    16    17   ar
    20    20    19   ar
    21    21    17    1
    22    17    18   ar
    23    29    24    1
    24    19    18   ar
    25    19    23    1
    26    18    22    1
    27    24    23   ar
    28    24    25   ar
    29    23    27   ar
    30    25    30    1
    31    25    26   ar
    32    27    26   ar
    33    26    28    1
