@<TRIPOS>MOLECULE
mol_data/opt/cam/geoms/mol2/5512-.out
 23 25 0 0 0
SMALL
GASTEIGER

@<TRIPOS>ATOM
      1 C          -2.0288   -1.9121   -0.0000 C.ar    1  LIG1       -0.0237
      2 C          -0.6689   -1.8799   -0.0008 C.ar    1  LIG1       -0.0541
      3 C          -0.1500   -0.5565   -0.0005 C.ar    1  LIG1       -0.0464
      4 C          -1.1229    0.4086    0.0006 C.ar    1  LIG1        0.0259
      5 S          -2.7010   -0.3254    0.0009 S.2     1  LIG1       -0.0961
      6 H          -2.6798   -2.7740   -0.0000 H       1  LIG1        0.0693
      7 H          -0.0505   -2.7688   -0.0016 H       1  LIG1        0.0623
      8 H           0.9083   -0.3280   -0.0010 H       1  LIG1        0.0629
      9 C          -0.9372    1.8509    0.0014 C.ar    1  LIG1        0.0266
     10 C           0.2457    2.5420    0.0014 C.ar    1  LIG1       -0.0457
     11 C           0.0809    3.9492    0.0022 C.ar    1  LIG1       -0.0434
     12 C          -1.2313    4.3355    0.0028 C.ar    1  LIG1        0.0550
     13 S          -2.2847    2.9557    0.0023 S.2     1  LIG1       -0.0847
     14 H           1.2127    2.0551    0.0009 H       1  LIG1        0.0629
     15 H           0.8966    4.6601    0.0024 H       1  LIG1        0.0630
     16 C          -1.7590    5.6800    0.0037 C.ar    1  LIG1        0.1413
     17 C          -3.0180    6.2029    0.0042 C.ar    1  LIG1       -0.0154
     18 C          -2.8648    7.6223    0.0051 C.ar    1  LIG1       -0.0233
     19 C          -1.5309    7.8567    0.0050 C.ar    1  LIG1        0.0926
     20 O          -0.8424    6.6874    0.0042 O.2     1  LIG1       -0.4624
     21 H          -0.9336    8.7542    0.0055 H       1  LIG1        0.1029
     22 H          -3.9425    5.6449    0.0040 H       1  LIG1        0.0655
     23 H          -3.6481    8.3650    0.0057 H       1  LIG1        0.0649
@<TRIPOS>BOND
     1     7     2    1
     2     8     3    1
     3     2     3   ar
     4     2     1   ar
     5     3     4   ar
     6     6     1    1
     7     1     5   ar
     8     4     5   ar
     9     4     9    1
    10    14    10    1
    11     9    10   ar
    12     9    13   ar
    13    10    11   ar
    14    11    15    1
    15    11    12   ar
    16    13    12   ar
    17    12    16    1
    18    16    20   ar
    19    16    17   ar
    20    22    17    1
    21    20    19   ar
    22    17    18   ar
    23    19    18   ar
    24    19    21    1
    25    18    23    1
