@<TRIPOS>MOLECULE
mol_data/opt/cam/geoms/mol2/5513-.out
 24 26 0 0 0
SMALL
GASTEIGER

@<TRIPOS>ATOM
      1 C          -2.0240   -1.9332    0.0001 C.ar    1  LIG1       -0.0237
      2 C          -0.6642   -1.9025   -0.0006 C.ar    1  LIG1       -0.0541
      3 C          -0.1432   -0.5798   -0.0003 C.ar    1  LIG1       -0.0464
      4 C          -1.1145    0.3870    0.0007 C.ar    1  LIG1        0.0259
      5 S          -2.6937   -0.3451    0.0012 S.2     1  LIG1       -0.0961
      6 H          -2.6762   -2.7942    0.0001 H       1  LIG1        0.0693
      7 H          -0.0468   -2.7923   -0.0014 H       1  LIG1        0.0623
      8 H           0.9155   -0.3530   -0.0008 H       1  LIG1        0.0629
      9 C          -0.9286    1.8293    0.0013 C.ar    1  LIG1        0.0265
     10 C           0.2530    2.5200    0.0013 C.ar    1  LIG1       -0.0458
     11 C           0.0861    3.9280    0.0020 C.ar    1  LIG1       -0.0449
     12 C          -1.2256    4.3234    0.0025 C.ar    1  LIG1        0.0361
     13 S          -2.2736    2.9374    0.0020 S.2     1  LIG1       -0.0863
     14 H           1.2211    2.0352    0.0009 H       1  LIG1        0.0629
     15 H           0.9222    4.6176    0.0021 H       1  LIG1        0.0630
     16 C          -1.7789    5.6620    0.0033 C.ar    1  LIG1        0.0531
     17 C          -3.0864    6.1060    0.0035 C.ar    1  LIG1       -0.0359
     18 C          -3.0635    7.5213    0.0048 C.ar    1  LIG1       -0.0438
     19 C          -1.7468    7.9084    0.0046 C.ar    1  LIG1        0.0022
     20 N          -0.9765    6.7791    0.0040 N.ar    1  LIG1       -0.3603
     21 H           0.0291    6.7658    0.0041 H       1  LIG1        0.1653
     22 H          -1.2977    8.8896    0.0051 H       1  LIG1        0.0807
     23 H          -3.9632    5.4743    0.0031 H       1  LIG1        0.0639
     24 H          -3.9178    8.1816    0.0054 H       1  LIG1        0.0633
@<TRIPOS>BOND
     1     7     2    1
     2     8     3    1
     3     2     3   ar
     4     2     1   ar
     5     3     4   ar
     6     6     1    1
     7     1     5   ar
     8     4     5   ar
     9     4     9    1
    10    14    10    1
    11     9    10   ar
    12     9    13   ar
    13    10    11   ar
    14    11    15    1
    15    11    12   ar
    16    13    12   ar
    17    12    16    1
    18    23    17    1
    19    16    17   ar
    20    16    20   ar
    21    17    18   ar
    22    20    21    1
    23    20    19   ar
    24    19    18   ar
    25    19    22    1
    26    18    24    1
