@<TRIPOS>MOLECULE
mol_data/opt/cam/geoms/mol2/5513-4-.out
 34 37 0 0 0
SMALL
GASTEIGER

@<TRIPOS>ATOM
      1 C          -2.0910   -2.0443    0.0011 C.ar    1  LIG1       -0.0237
      2 C          -0.7309   -2.0309   -0.0002 C.ar    1  LIG1       -0.0541
      3 C          -0.1931   -0.7151   -0.0002 C.ar    1  LIG1       -0.0464
      4 C          -1.1521    0.2641    0.0010 C.ar    1  LIG1        0.0259
      5 S          -2.7405   -0.4478    0.0024 S.2     1  LIG1       -0.0961
      6 H          -2.7540   -2.8969    0.0014 H       1  LIG1        0.0693
      7 H          -0.1250   -2.9285   -0.0011 H       1  LIG1        0.0623
      8 H           0.8684   -0.5020   -0.0012 H       1  LIG1        0.0629
      9 C          -0.9474    1.7036    0.0013 C.ar    1  LIG1        0.0265
     10 C           0.2437    2.3786    0.0007 C.ar    1  LIG1       -0.0458
     11 C           0.0960    3.7881    0.0012 C.ar    1  LIG1       -0.0449
     12 C          -1.2107    4.2013    0.0021 C.ar    1  LIG1        0.0361
     13 S          -2.2774    2.8290    0.0025 S.2     1  LIG1       -0.0863
     14 H           1.2051    1.8806   -0.0000 H       1  LIG1        0.0629
     15 H           0.9416    4.4659    0.0008 H       1  LIG1        0.0630
     16 C          -1.7451    5.5454    0.0028 C.ar    1  LIG1        0.0536
     17 C          -3.0482    6.0062    0.0036 C.ar    1  LIG1       -0.0353
     18 C          -3.0047    7.4144    0.0039 C.ar    1  LIG1       -0.0358
     19 C          -1.6772    7.8034    0.0035 C.ar    1  LIG1        0.0469
     20 N          -0.9311    6.6505    0.0028 N.ar    1  LIG1       -0.3537
     21 H           0.0734    6.6145    0.0023 H       1  LIG1        0.1659
     22 H          -3.9340    5.3876    0.0038 H       1  LIG1        0.0639
     23 H          -3.8574    8.0763    0.0045 H       1  LIG1        0.0639
     24 C          -1.8906   10.2752    0.0031 C.ar    1  LIG1       -0.0526
     25 C          -1.3421   11.5476    0.0033 C.ar    1  LIG1       -0.0611
     26 C          -1.0746    9.1365    0.0036 C.ar    1  LIG1       -0.0017
     27 C           0.0383   11.7208    0.0039 C.ar    1  LIG1       -0.0617
     28 H          -1.9984   12.4119    0.0028 H       1  LIG1        0.0618
     29 C           0.3121    9.3267    0.0043 C.ar    1  LIG1       -0.0526
     30 C           0.8610   10.6019    0.0044 C.ar    1  LIG1       -0.0611
     31 H           0.9873    8.4765    0.0048 H       1  LIG1        0.0624
     32 H           0.4670   12.7172    0.0040 H       1  LIG1        0.0618
     33 H          -2.9686   10.1598    0.0025 H       1  LIG1        0.0624
     34 H           1.9400   10.7188    0.0049 H       1  LIG1        0.0618
@<TRIPOS>BOND
     1     8     3    1
     2     7     2    1
     3     3     2   ar
     4     3     4   ar
     5     2     1   ar
     6    14    10    1
     7    10    11   ar
     8    10     9   ar
     9    15    11    1
    10     4     9    1
    11     4     5   ar
    12     1     6    1
    13     1     5   ar
    14    11    12   ar
    15     9    13   ar
    16    12    13   ar
    17    12    16    1
    18    21    20    1
    19    33    24    1
    20    20    16   ar
    21    20    19   ar
    22    16    17   ar
    23    28    25    1
    24    24    25   ar
    25    24    26   ar
    26    25    27   ar
    27    19    26    1
    28    19    18   ar
    29    17    22    1
    30    17    18   ar
    31    26    29   ar
    32    27    32    1
    33    27    30   ar
    34    18    23    1
    35    29    30   ar
    36    29    31    1
    37    30    34    1
