@<TRIPOS>MOLECULE
mol_data/opt/cam/geoms/mol2/555-.out
 23 25 0 0 0
SMALL
GASTEIGER

@<TRIPOS>ATOM
      1 C          -1.9945   -1.9507    0.0002 C.ar    1  LIG1       -0.0237
      2 C          -0.6351   -1.9029   -0.0010 C.ar    1  LIG1       -0.0541
      3 C          -0.1314   -0.5738   -0.0007 C.ar    1  LIG1       -0.0464
      4 C          -1.1153    0.3802    0.0007 C.ar    1  LIG1        0.0259
      5 S          -2.6848   -0.3719    0.0014 S.2     1  LIG1       -0.0961
      6 H          -2.6355   -2.8202    0.0003 H       1  LIG1        0.0693
      7 H          -0.0066   -2.7847   -0.0020 H       1  LIG1        0.0623
      8 H           0.9242   -0.3333   -0.0014 H       1  LIG1        0.0629
      9 C          -0.9460    1.8244    0.0014 C.ar    1  LIG1        0.0265
     10 C           0.2291    2.5280    0.0013 C.ar    1  LIG1       -0.0458
     11 C           0.0467    3.9326    0.0022 C.ar    1  LIG1       -0.0458
     12 C          -1.2681    4.3140    0.0030 C.ar    1  LIG1        0.0265
     13 S          -2.3030    2.9148    0.0026 S.2     1  LIG1       -0.0872
     14 H           1.2022    2.0535    0.0007 H       1  LIG1        0.0629
     15 H           0.8669    4.6406    0.0022 H       1  LIG1        0.0629
     16 C          -1.8287    5.6529    0.0040 C.ar    1  LIG1        0.0259
     17 C          -3.1450    6.0301    0.0043 C.ar    1  LIG1       -0.0464
     18 C          -3.3274    7.4408    0.0055 C.ar    1  LIG1       -0.0541
     19 C          -2.1509    8.1221    0.0060 C.ar    1  LIG1       -0.0237
     20 S          -0.7958    7.0551    0.0049 S.2     1  LIG1       -0.0961
     21 H          -1.9956    9.1911    0.0069 H       1  LIG1        0.0693
     22 H          -3.9631    5.3197    0.0038 H       1  LIG1        0.0629
     23 H          -4.2972    7.9224    0.0059 H       1  LIG1        0.0623
@<TRIPOS>BOND
     1     7     2    1
     2     8     3    1
     3     2     3   ar
     4     2     1   ar
     5     3     4   ar
     6     1     6    1
     7     1     5   ar
     8    14    10    1
     9     4     5   ar
    10     4     9    1
    11    10     9   ar
    12    10    11   ar
    13     9    13   ar
    14    11    15    1
    15    11    12   ar
    16    13    12   ar
    17    12    16    1
    18    22    17    1
    19    16    17   ar
    20    16    20   ar
    21    17    18   ar
    22    20    19   ar
    23    18    23    1
    24    18    19   ar
    25    19    21    1
