@<TRIPOS>MOLECULE
mol_data/opt/cam/geoms/mol2/555-5-.out
 30 33 0 0 0
SMALL
GASTEIGER

@<TRIPOS>ATOM
      1 C          -1.9930   -2.0459    0.0001 C.ar    1  LIG1       -0.0237
      2 C          -0.6335   -1.9996   -0.0013 C.ar    1  LIG1       -0.0541
      3 C          -0.1283   -0.6711   -0.0010 C.ar    1  LIG1       -0.0464
      4 C          -1.1113    0.2840    0.0006 C.ar    1  LIG1        0.0259
      5 S          -2.6817   -0.4664    0.0019 S.2     1  LIG1       -0.0961
      6 H          -2.6349   -2.9146    0.0002 H       1  LIG1        0.0693
      7 H          -0.0060   -2.8821   -0.0026 H       1  LIG1        0.0623
      8 H           0.9275   -0.4317   -0.0020 H       1  LIG1        0.0629
      9 C          -0.9404    1.7277    0.0014 C.ar    1  LIG1        0.0265
     10 C           0.2358    2.4301    0.0009 C.ar    1  LIG1       -0.0458
     11 C           0.0557    3.8343    0.0018 C.ar    1  LIG1       -0.0458
     12 C          -1.2595    4.2175    0.0030 C.ar    1  LIG1        0.0265
     13 S          -2.2966    2.8193    0.0030 S.2     1  LIG1       -0.0872
     14 H           1.2082    1.9542   -0.0001 H       1  LIG1        0.0629
     15 H           0.8769    4.5412    0.0016 H       1  LIG1        0.0629
     16 C          -1.8173    5.5544    0.0042 C.ar    1  LIG1        0.0265
     17 C          -3.1325    5.9376    0.0052 C.ar    1  LIG1       -0.0458
     18 C          -3.3126    7.3419    0.0063 C.ar    1  LIG1       -0.0458
     19 C          -2.1364    8.0443    0.0062 C.ar    1  LIG1        0.0265
     20 S          -0.7802    6.9527    0.0046 S.2     1  LIG1       -0.0872
     21 H          -3.9537    5.2308    0.0052 H       1  LIG1        0.0629
     22 H          -4.2850    7.8178    0.0073 H       1  LIG1        0.0629
     23 C          -1.9655    9.4880    0.0070 C.ar    1  LIG1        0.0259
     24 C          -2.9485   10.4431    0.0061 C.ar    1  LIG1       -0.0464
     25 C          -2.4433   11.7715    0.0074 C.ar    1  LIG1       -0.0541
     26 C          -1.0838   11.8178    0.0094 C.ar    1  LIG1       -0.0237
     27 S          -0.3951   10.2384    0.0098 S.2     1  LIG1       -0.0961
     28 H          -0.4419   12.6866    0.0106 H       1  LIG1        0.0693
     29 H          -4.0043   10.2037    0.0043 H       1  LIG1        0.0629
     30 H          -3.0708   12.6540    0.0069 H       1  LIG1        0.0623
@<TRIPOS>BOND
     1     7     2    1
     2     8     3    1
     3     2     3   ar
     4     2     1   ar
     5     3     4   ar
     6    14    10    1
     7     1     6    1
     8     1     5   ar
     9     4     9    1
    10     4     5   ar
    11    10     9   ar
    12    10    11   ar
    13     9    13   ar
    14    15    11    1
    15    11    12   ar
    16    13    12   ar
    17    12    16    1
    18    16    20   ar
    19    16    17   ar
    20    29    24    1
    21    20    19   ar
    22    21    17    1
    23    17    18   ar
    24    24    23   ar
    25    24    25   ar
    26    19    18   ar
    27    19    23    1
    28    18    22    1
    29    30    25    1
    30    23    27   ar
    31    25    26   ar
    32    26    27   ar
    33    26    28    1
