@<TRIPOS>MOLECULE
mol_data/opt/cam/geoms/mol2/558-5-.out
 29 32 0 0 0
SMALL
GASTEIGER

@<TRIPOS>ATOM
      1 C          -1.9861   -1.9594   -0.0000 C.ar    1  LIG1       -0.0237
      2 C          -0.6259   -1.9122   -0.0010 C.ar    1  LIG1       -0.0541
      3 C          -0.1242   -0.5834   -0.0007 C.ar    1  LIG1       -0.0464
      4 C          -1.1102    0.3692    0.0005 C.ar    1  LIG1        0.0259
      5 S          -2.6788   -0.3835    0.0009 S.2     1  LIG1       -0.0961
      6 H          -2.6260   -2.8297    0.0000 H       1  LIG1        0.0693
      7 H           0.0026   -2.7937   -0.0019 H       1  LIG1        0.0623
      8 H           0.9311   -0.3419   -0.0013 H       1  LIG1        0.0629
      9 C          -0.9396    1.8131    0.0013 C.ar    1  LIG1        0.0266
     10 C           0.2485    2.5061    0.0013 C.ar    1  LIG1       -0.0457
     11 C           0.0748    3.9066    0.0022 C.ar    1  LIG1       -0.0432
     12 C          -1.2436    4.2786    0.0029 C.ar    1  LIG1        0.0604
     13 S          -2.2938    2.8989    0.0023 S.2     1  LIG1       -0.0845
     14 H           1.2170    2.0230    0.0007 H       1  LIG1        0.0629
     15 H           0.8790    4.6306    0.0023 H       1  LIG1        0.0630
     16 C          -1.7792    5.6243    0.0039 C.ar    1  LIG1        0.2099
     17 N          -3.1149    5.7698    0.0045 N.ar    1  LIG1       -0.1247
     18 C          -2.7362    8.0033    0.0058 C.ar    1  LIG1        0.2099
     19 N          -0.9112    6.6503    0.0043 N.ar    1  LIG1       -0.1247
     20 N          -3.6036    6.9780    0.0054 N.ar    1  LIG1       -0.1247
     21 N          -1.4009    7.8579    0.0052 N.ar    1  LIG1       -0.1247
     22 C          -3.2736    9.3520    0.0068 C.ar    1  LIG1        0.0598
     23 C          -4.5931    9.7180    0.0074 C.ar    1  LIG1       -0.0438
     24 C          -4.7680   11.1256    0.0085 C.ar    1  LIG1       -0.0540
     25 C          -3.5798   11.7959    0.0088 C.ar    1  LIG1       -0.0236
     26 S          -2.2273   10.7349    0.0071 S.2     1  LIG1       -0.0934
     27 H          -3.4241   12.8655    0.0097 H       1  LIG1        0.0693
     28 H          -5.3944    8.9909    0.0071 H       1  LIG1        0.0630
     29 H          -5.7332   11.6158    0.0092 H       1  LIG1        0.0623
@<TRIPOS>BOND
     1     7     2    1
     2     8     3    1
     3     2     3   ar
     4     2     1   ar
     5     3     4   ar
     6     1     6    1
     7     1     5   ar
     8     4     5   ar
     9     4     9    1
    10    14    10    1
    11    10     9   ar
    12    10    11   ar
    13     9    13   ar
    14    11    15    1
    15    11    12   ar
    16    13    12   ar
    17    12    16    1
    18    16    19   ar
    19    16    17   ar
    20    19    21   ar
    21    17    20   ar
    22    21    18   ar
    23    20    18   ar
    24    18    22    1
    25    22    26   ar
    26    22    23   ar
    27    26    25   ar
    28    28    23    1
    29    23    24   ar
    30    24    25   ar
    31    24    29    1
    32    25    27    1
