@<TRIPOS>MOLECULE
mol_data/opt/cam/geoms/mol2/558-4-.out
 32 35 0 0 0
SMALL
GASTEIGER

@<TRIPOS>ATOM
      1 C          -2.0097   -1.9720   -0.0002 C.ar    1  LIG1       -0.0237
      2 C          -0.6492   -1.9356   -0.0007 C.ar    1  LIG1       -0.0541
      3 C          -0.1371   -0.6107   -0.0002 C.ar    1  LIG1       -0.0464
      4 C          -1.1156    0.3495    0.0007 C.ar    1  LIG1        0.0259
      5 S          -2.6901   -0.3908    0.0007 S.2     1  LIG1       -0.0961
      6 H          -2.6564   -2.8372   -0.0004 H       1  LIG1        0.0693
      7 H          -0.0276   -2.8220   -0.0013 H       1  LIG1        0.0623
      8 H           0.9200   -0.3773   -0.0004 H       1  LIG1        0.0629
      9 C          -0.9335    1.7921    0.0014 C.ar    1  LIG1        0.0266
     10 C           0.2601    2.4755    0.0016 C.ar    1  LIG1       -0.0457
     11 C           0.0976    3.8773    0.0024 C.ar    1  LIG1       -0.0432
     12 C          -1.2178    4.2597    0.0027 C.ar    1  LIG1        0.0604
     13 S          -2.2790    2.8886    0.0020 S.2     1  LIG1       -0.0845
     14 H           1.2247    1.9846    0.0013 H       1  LIG1        0.0629
     15 H           0.9073    4.5951    0.0027 H       1  LIG1        0.0630
     16 C          -1.7430    5.6097    0.0035 C.ar    1  LIG1        0.2099
     17 N          -3.0755    5.7670    0.0036 N.ar    1  LIG1       -0.1247
     18 C          -2.6804    8.0040    0.0048 C.ar    1  LIG1        0.2034
     19 N          -0.8670    6.6290    0.0040 N.ar    1  LIG1       -0.1247
     20 N          -3.5490    6.9823    0.0043 N.ar    1  LIG1       -0.1252
     21 N          -1.3470    7.8407    0.0046 N.ar    1  LIG1       -0.1252
     22 C          -4.5966    9.5929    0.0058 C.ar    1  LIG1       -0.0509
     23 C          -5.0978   10.8862    0.0065 C.ar    1  LIG1       -0.0611
     24 C          -3.2160    9.3780    0.0056 C.ar    1  LIG1        0.0226
     25 C          -4.2298   11.9730    0.0071 C.ar    1  LIG1       -0.0617
     26 H          -6.1708   11.0464    0.0067 H       1  LIG1        0.0618
     27 C          -2.3466   10.4717    0.0062 C.ar    1  LIG1       -0.0509
     28 C          -2.8549   11.7623    0.0069 C.ar    1  LIG1       -0.0611
     29 H          -1.2777   10.2962    0.0060 H       1  LIG1        0.0625
     30 H          -4.6246   12.9838    0.0076 H       1  LIG1        0.0618
     31 H          -5.2633    8.7392    0.0053 H       1  LIG1        0.0625
     32 H          -2.1748   12.6076    0.0073 H       1  LIG1        0.0618
@<TRIPOS>BOND
     1     7     2    1
     2     2     1   ar
     3     2     3   ar
     4     8     3    1
     5     6     1    1
     6     1     5   ar
     7     3     4   ar
     8     4     5   ar
     9     4     9    1
    10    14    10    1
    11     9    10   ar
    12     9    13   ar
    13    10    11   ar
    14    13    12   ar
    15    11    12   ar
    16    11    15    1
    17    12    16    1
    18    16    17   ar
    19    16    19   ar
    20    17    20   ar
    21    19    21   ar
    22    20    18   ar
    23    21    18   ar
    24    18    24    1
    25    31    22    1
    26    24    22   ar
    27    24    27   ar
    28    22    23   ar
    29    29    27    1
    30    27    28   ar
    31    23    26    1
    32    23    25   ar
    33    28    25   ar
    34    28    32    1
    35    25    30    1
