@<TRIPOS>MOLECULE
mol_data/opt/cam/geoms/mol2/558-.out
 22 24 0 0 0
SMALL
GASTEIGER

@<TRIPOS>ATOM
      1 C          -2.0145   -1.9021   -0.0001 C.ar    1  LIG1       -0.0237
      2 C          -0.6539   -1.8597   -0.0008 C.ar    1  LIG1       -0.0541
      3 C          -0.1482   -0.5327   -0.0004 C.ar    1  LIG1       -0.0464
      4 C          -1.1313    0.4229    0.0006 C.ar    1  LIG1        0.0259
      5 S          -2.7024   -0.3245    0.0009 S.2     1  LIG1       -0.0961
      6 H          -2.6574   -2.7702   -0.0002 H       1  LIG1        0.0693
      7 H          -0.0284   -2.7434   -0.0016 H       1  LIG1        0.0623
      8 H           0.9080   -0.2945   -0.0008 H       1  LIG1        0.0629
      9 C          -0.9557    1.8663    0.0014 C.ar    1  LIG1        0.0266
     10 C           0.2360    2.5544    0.0014 C.ar    1  LIG1       -0.0457
     11 C           0.0674    3.9548    0.0022 C.ar    1  LIG1       -0.0432
     12 C          -1.2502    4.3311    0.0028 C.ar    1  LIG1        0.0604
     13 S          -2.3057    2.9558    0.0023 S.2     1  LIG1       -0.0845
     14 H           1.2023    2.0673    0.0009 H       1  LIG1        0.0629
     15 H           0.8738    4.6764    0.0024 H       1  LIG1        0.0630
     16 C          -1.7798    5.6789    0.0037 C.ar    1  LIG1        0.2098
     17 N          -3.1150    5.8264    0.0042 N.ar    1  LIG1       -0.1253
     18 C          -2.7143    8.0449    0.0055 C.ar    1  LIG1        0.1605
     19 N          -0.9014    6.6980    0.0040 N.ar    1  LIG1       -0.1253
     20 N          -3.5936    7.0448    0.0050 N.ar    1  LIG1       -0.1339
     21 N          -1.3869    7.9126    0.0049 N.ar    1  LIG1       -0.1339
     22 H          -3.1105    9.0535    0.0059 H       1  LIG1        0.1085
@<TRIPOS>BOND
     1     7     2    1
     2     2     3   ar
     3     2     1   ar
     4     8     3    1
     5     3     4   ar
     6     6     1    1
     7     1     5   ar
     8     4     5   ar
     9     4     9    1
    10    14    10    1
    11     9    10   ar
    12     9    13   ar
    13    10    11   ar
    14    11    15    1
    15    11    12   ar
    16    13    12   ar
    17    12    16    1
    18    16    19   ar
    19    16    17   ar
    20    19    21   ar
    21    17    20   ar
    22    21    18   ar
    23    20    18   ar
    24    18    22    1
