@<TRIPOS>MOLECULE
mol_data/opt/cam/geoms/mol2/58-.out
 15 16 0 0 0
SMALL
GASTEIGER

@<TRIPOS>ATOM
      1 C          -2.0406   -1.7851   -0.0004 C.ar    1  LIG1       -0.0236
      2 C          -0.6759   -1.7631   -0.0005 C.ar    1  LIG1       -0.0540
      3 C          -0.1597   -0.4427    0.0001 C.ar    1  LIG1       -0.0438
      4 C          -1.1463    0.5072    0.0008 C.ar    1  LIG1        0.0598
      5 S          -2.7251   -0.2096    0.0007 S.2     1  LIG1       -0.0934
      6 H          -2.6870   -2.6515   -0.0008 H       1  LIG1        0.0693
      7 H          -0.0613   -2.6542   -0.0011 H       1  LIG1        0.0623
      8 H           0.8912   -0.1843    0.0001 H       1  LIG1        0.0630
      9 C          -0.9760    1.9489    0.0015 C.ar    1  LIG1        0.2098
     10 N          -2.0826    2.7091    0.0021 N.ar    1  LIG1       -0.1253
     11 C          -0.6820    4.4756    0.0029 C.ar    1  LIG1        0.1605
     12 N           0.2786    2.4319    0.0017 N.ar    1  LIG1       -0.1253
     13 N          -1.9295    4.0096    0.0028 N.ar    1  LIG1       -0.1339
     14 N           0.4251    3.7325    0.0023 N.ar    1  LIG1       -0.1339
     15 H          -0.5551    5.5520    0.0034 H       1  LIG1        0.1085
@<TRIPOS>BOND
     1     7     2    1
     2     6     1    1
     3     2     1   ar
     4     2     3   ar
     5     1     5   ar
     6     8     3    1
     7     3     4   ar
     8     5     4   ar
     9     4     9    1
    10     9    12   ar
    11     9    10   ar
    12    12    14   ar
    13    10    13   ar
    14    14    11   ar
    15    13    11   ar
    16    11    15    1
