@<TRIPOS>MOLECULE
mol_data/opt/cam/geoms/mol2/58-12.out
 22 24 0 0 0
SMALL
GASTEIGER

@<TRIPOS>ATOM
      1 C          -2.0035   -1.8313   -0.0004 C.ar    1  LIG1       -0.0236
      2 C          -0.6399   -1.7852   -0.0006 C.ar    1  LIG1       -0.0540
      3 C          -0.1460   -0.4555    0.0001 C.ar    1  LIG1       -0.0438
      4 C          -1.1480    0.4778    0.0007 C.ar    1  LIG1        0.0598
      5 S          -2.7143   -0.2664    0.0002 S.2     1  LIG1       -0.0934
      6 H          -2.6352   -2.7084   -0.0008 H       1  LIG1        0.0693
      7 H          -0.0098   -2.6654   -0.0010 H       1  LIG1        0.0623
      8 H           0.9004   -0.1798    0.0002 H       1  LIG1        0.0630
      9 C          -1.0041    1.9225    0.0016 C.ar    1  LIG1        0.2099
     10 N          -2.1189    2.6664    0.0020 N.ar    1  LIG1       -0.1246
     11 C          -0.7541    4.4689    0.0030 C.ar    1  LIG1        0.2381
     12 N           0.2416    2.4312    0.0018 N.ar    1  LIG1       -0.1246
     13 N          -1.9964    3.9673    0.0027 N.ar    1  LIG1       -0.1220
     14 N           0.3676    3.7266    0.0026 N.ar    1  LIG1       -0.1220
     15 C          -0.5732    5.9070    0.0039 C.ar    1  LIG1        0.1751
     16 C           0.5536    6.6751    0.0043 C.ar    1  LIG1       -0.0126
     17 C           0.1088    8.0267    0.0051 C.ar    1  LIG1       -0.0232
     18 C          -1.2489    7.9728    0.0051 C.ar    1  LIG1        0.0927
     19 O          -1.6797    6.6942    0.0044 O.2     1  LIG1       -0.4597
     20 H          -2.0190    8.7279    0.0055 H       1  LIG1        0.1029
     21 H           1.5664    6.3036    0.0041 H       1  LIG1        0.0656
     22 H           0.7169    8.9184    0.0057 H       1  LIG1        0.0649
@<TRIPOS>BOND
     1     7     2    1
     2     6     1    1
     3     2     1   ar
     4     2     3   ar
     5     1     5   ar
     6     3     8    1
     7     3     4   ar
     8     5     4   ar
     9     4     9    1
    10     9    12   ar
    11     9    10   ar
    12    12    14   ar
    13    10    13   ar
    14    14    11   ar
    15    13    11   ar
    16    11    15    1
    17    15    16   ar
    18    15    19   ar
    19    21    16    1
    20    16    17   ar
    21    19    18   ar
    22    18    17   ar
    23    18    20    1
    24    17    22    1
