@<TRIPOS>MOLECULE
mol_data/opt/cam/geoms/mol2/58-13-8.out
 29 32 0 0 0
SMALL
GASTEIGER

@<TRIPOS>ATOM
      1 C          -2.0333   -1.8477   -0.0001 C.ar    1  LIG1       -0.0236
      2 C          -0.6691   -1.8169   -0.0004 C.ar    1  LIG1       -0.0540
      3 C          -0.1604   -0.4933    0.0001 C.ar    1  LIG1       -0.0438
      4 C          -1.1522    0.4514    0.0008 C.ar    1  LIG1        0.0598
      5 S          -2.7269   -0.2755    0.0005 S.2     1  LIG1       -0.0934
      6 H          -2.6748   -2.7177   -0.0003 H       1  LIG1        0.0693
      7 H          -0.0490   -2.7041   -0.0009 H       1  LIG1        0.0623
      8 H           0.8893   -0.2300    0.0001 H       1  LIG1        0.0630
      9 C          -0.9916    1.8934    0.0015 C.ar    1  LIG1        0.2099
     10 N          -2.1031    2.6501    0.0020 N.ar    1  LIG1       -0.1246
     11 C          -0.7209    4.4397    0.0028 C.ar    1  LIG1        0.2194
     12 N           0.2563    2.3901    0.0017 N.ar    1  LIG1       -0.1246
     13 N          -1.9691    3.9456    0.0027 N.ar    1  LIG1       -0.1237
     14 N           0.3909    3.6872    0.0023 N.ar    1  LIG1       -0.1237
     15 C          -0.5494    5.8767    0.0035 C.ar    1  LIG1        0.0880
     16 C          -1.4839    6.9030    0.0040 C.ar    1  LIG1       -0.0325
     17 C          -0.7711    8.1113    0.0048 C.ar    1  LIG1       -0.0325
     18 C           0.5789    7.7904    0.0042 C.ar    1  LIG1        0.0880
     19 N           0.6937    6.4318    0.0035 N.ar    1  LIG1       -0.3491
     20 H           1.5641    5.9180    0.0031 H       1  LIG1        0.1661
     21 H          -2.5541    6.7657    0.0040 H       1  LIG1        0.0640
     22 H          -1.1689    9.1144    0.0055 H       1  LIG1        0.0640
     23 C           1.7525    8.6340    0.0044 C.ar    1  LIG1        0.2193
     24 N           2.9478    8.0215    0.0037 N.ar    1  LIG1       -0.1243
     25 C           3.8319   10.0946    0.0046 C.ar    1  LIG1        0.1605
     26 N           1.5757    9.9670    0.0051 N.ar    1  LIG1       -0.1243
     27 N           4.0186    8.7763    0.0039 N.ar    1  LIG1       -0.1338
     28 N           2.6492   10.7137    0.0053 N.ar    1  LIG1       -0.1338
     29 H           4.7167   10.7203    0.0049 H       1  LIG1        0.1085
@<TRIPOS>BOND
     1     7     2    1
     2     2     1   ar
     3     2     3   ar
     4     6     1    1
     5     1     5   ar
     6     8     3    1
     7     3     4   ar
     8     5     4   ar
     9     4     9    1
    10     9    12   ar
    11     9    10   ar
    12    12    14   ar
    13    10    13   ar
    14    14    11   ar
    15    13    11   ar
    16    11    15    1
    17    20    19    1
    18    15    19   ar
    19    15    16   ar
    20    19    18   ar
    21    24    27   ar
    22    24    23   ar
    23    27    25   ar
    24    16    21    1
    25    16    17   ar
    26    18    23    1
    27    18    17   ar
    28    23    26   ar
    29    25    29    1
    30    25    28   ar
    31    17    22    1
    32    26    28   ar
