@<TRIPOS>MOLECULE
mol_data/opt/cam/geoms/mol2/58-134-.out
 33 36 0 0 0
SMALL
GASTEIGER

@<TRIPOS>ATOM
      1 C          -2.0790   -1.8475   -0.2418 C.ar    1  LIG1       -0.0236
      2 C          -0.7233   -1.8564   -0.0934 C.ar    1  LIG1       -0.0540
      3 C          -0.1814   -0.5481   -0.0015 C.ar    1  LIG1       -0.0438
      4 C          -1.1402    0.4255   -0.0823 C.ar    1  LIG1        0.0598
      5 S          -2.7245   -0.2538   -0.2730 S.2     1  LIG1       -0.0934
      6 H          -2.7401   -2.6975   -0.3354 H       1  LIG1        0.0693
      7 H          -0.1306   -2.7613   -0.0510 H       1  LIG1        0.0623
      8 H           0.8685   -0.3162    0.1194 H       1  LIG1        0.0630
      9 C          -0.9411    1.8634   -0.0244 C.ar    1  LIG1        0.2099
     10 N          -2.0172    2.6543   -0.1232 N.ar    1  LIG1       -0.1246
     11 C          -0.5797    4.4006    0.0818 C.ar    1  LIG1        0.2194
     12 N           0.3179    2.3185    0.1250 N.ar    1  LIG1       -0.1246
     13 N          -1.8349    3.9462   -0.0692 N.ar    1  LIG1       -0.1237
     14 N           0.5042    3.6044    0.1788 N.ar    1  LIG1       -0.1237
     15 C          -0.3947    5.8272    0.1400 C.ar    1  LIG1        0.0879
     16 C           0.7433    6.6014    0.2753 C.ar    1  LIG1       -0.0326
     17 C           0.3336    7.9460    0.2518 C.ar    1  LIG1       -0.0357
     18 C          -1.0475    7.9707    0.1058 C.ar    1  LIG1        0.0470
     19 N          -1.4685    6.6754    0.0462 N.ar    1  LIG1       -0.3516
     20 H          -2.4085    6.3504   -0.1219 H       1  LIG1        0.1660
     21 H           1.7457    6.2170    0.3856 H       1  LIG1        0.0640
     22 H           0.9655    8.8144    0.3640 H       1  LIG1        0.0639
     23 C          -3.3120    8.9686    0.4255 C.ar    1  LIG1       -0.0526
     24 C          -4.1828   10.0469    0.3473 C.ar    1  LIG1       -0.0611
     25 C          -1.9756    9.1007    0.0344 C.ar    1  LIG1       -0.0017
     26 C          -3.7320   11.2788   -0.1120 C.ar    1  LIG1       -0.0617
     27 H          -5.2156    9.9257    0.6573 H       1  LIG1        0.0618
     28 C          -1.5337   10.3444   -0.4285 C.ar    1  LIG1       -0.0526
     29 C          -2.4028   11.4232   -0.4956 C.ar    1  LIG1       -0.0611
     30 H          -0.5051   10.4556   -0.7543 H       1  LIG1        0.0624
     31 H          -4.4120   12.1221   -0.1698 H       1  LIG1        0.0618
     32 H          -3.6700    8.0233    0.8218 H       1  LIG1        0.0624
     33 H          -2.0429   12.3801   -0.8595 H       1  LIG1        0.0618
@<TRIPOS>BOND
     1    33    29    1
     2    30    28    1
     3    29    28   ar
     4    29    26   ar
     5    28    25   ar
     6     6     1    1
     7     5     1   ar
     8     5     4   ar
     9     1     2   ar
    10    31    26    1
    11    10    13   ar
    12    10     9   ar
    13    20    19    1
    14    26    24   ar
    15     2     7    1
    16     2     3   ar
    17     4     9    1
    18     4     3   ar
    19    13    11   ar
    20     9    12   ar
    21     3     8    1
    22    25    18    1
    23    25    23   ar
    24    19    18   ar
    25    19    15   ar
    26    11    15    1
    27    11    14   ar
    28    18    17   ar
    29    12    14   ar
    30    15    16   ar
    31    17    16   ar
    32    17    22    1
    33    16    21    1
    34    24    23   ar
    35    24    27    1
    36    23    32    1
