@<TRIPOS>MOLECULE
mol_data/opt/cam/geoms/mol2/58-4.out
 25 27 0 0 0
SMALL
GASTEIGER

@<TRIPOS>ATOM
      1 C          -2.0442   -1.8539   -0.0011 C.ar    1  LIG1       -0.0236
      2 C          -0.6800   -1.8321   -0.0010 C.ar    1  LIG1       -0.0540
      3 C          -0.1624   -0.5115    0.0001 C.ar    1  LIG1       -0.0438
      4 C          -1.1475    0.4395    0.0006 C.ar    1  LIG1        0.0598
      5 S          -2.7269   -0.2765   -0.0003 S.2     1  LIG1       -0.0934
      6 H          -2.6915   -2.7195   -0.0018 H       1  LIG1        0.0693
      7 H          -0.0657   -2.7234   -0.0015 H       1  LIG1        0.0623
      8 H           0.8887   -0.2543    0.0004 H       1  LIG1        0.0630
      9 C          -0.9771    1.8815    0.0018 C.ar    1  LIG1        0.2099
     10 N          -2.0787    2.6460    0.0022 N.ar    1  LIG1       -0.1247
     11 C          -0.6791    4.4351    0.0038 C.ar    1  LIG1        0.2034
     12 N           0.2742    2.3692    0.0024 N.ar    1  LIG1       -0.1247
     13 N          -1.9260    3.9416    0.0032 N.ar    1  LIG1       -0.1252
     14 N           0.4208    3.6647    0.0034 N.ar    1  LIG1       -0.1252
     15 C           0.7759    6.4557    0.0056 C.ar    1  LIG1       -0.0509
     16 C           0.9347    7.8337    0.0067 C.ar    1  LIG1       -0.0611
     17 C          -0.5059    5.8997    0.0049 C.ar    1  LIG1        0.0226
     18 C          -0.1795    8.6664    0.0071 C.ar    1  LIG1       -0.0617
     19 H           1.9326    8.2595    0.0073 H       1  LIG1        0.0618
     20 C          -1.6232    6.7388    0.0053 C.ar    1  LIG1       -0.0509
     21 C          -1.4569    8.1158    0.0064 C.ar    1  LIG1       -0.0611
     22 H          -2.6133    6.2994    0.0048 H       1  LIG1        0.0625
     23 H          -0.0524    9.7442    0.0080 H       1  LIG1        0.0618
     24 H           1.6364    5.7979    0.0053 H       1  LIG1        0.0625
     25 H          -2.3282    8.7622    0.0067 H       1  LIG1        0.0618
@<TRIPOS>BOND
     1     6     1    1
     2     7     2    1
     3     1     2   ar
     4     1     5   ar
     5     2     3   ar
     6     5     4   ar
     7     3     8    1
     8     3     4   ar
     9     4     9    1
    10     9    10   ar
    11     9    12   ar
    12    10    13   ar
    13    12    14   ar
    14    13    11   ar
    15    14    11   ar
    16    11    17    1
    17    22    20    1
    18    17    20   ar
    19    17    15   ar
    20    24    15    1
    21    20    21   ar
    22    15    16   ar
    23    21    25    1
    24    21    18   ar
    25    16    18   ar
    26    16    19    1
    27    18    23    1
