@<TRIPOS>MOLECULE
mol_data/opt/cam/geoms/mol2/58-4-.out
 25 27 0 0 0
SMALL
GASTEIGER

@<TRIPOS>ATOM
      1 C          -2.0711   -1.8451   -0.0001 C.ar    1  LIG1       -0.0236
      2 C          -0.7068   -1.8342   -0.0001 C.ar    1  LIG1       -0.0540
      3 C          -0.1786   -0.5177    0.0004 C.ar    1  LIG1       -0.0438
      4 C          -1.1560    0.4411    0.0007 C.ar    1  LIG1        0.0598
      5 S          -2.7411   -0.2623    0.0002 S.2     1  LIG1       -0.0934
      6 H          -2.7253   -2.7055   -0.0004 H       1  LIG1        0.0693
      7 H          -0.0996   -2.7304   -0.0003 H       1  LIG1        0.0623
      8 H           0.8745   -0.2689    0.0006 H       1  LIG1        0.0630
      9 C          -0.9741    1.8817    0.0013 C.ar    1  LIG1        0.2099
     10 N          -2.0696    2.6550    0.0014 N.ar    1  LIG1       -0.1247
     11 C          -0.6558    4.4329    0.0023 C.ar    1  LIG1        0.2034
     12 N           0.2810    2.3594    0.0016 N.ar    1  LIG1       -0.1247
     13 N          -1.9066    3.9493    0.0020 N.ar    1  LIG1       -0.1252
     14 N           0.4379    3.6537    0.0021 N.ar    1  LIG1       -0.1252
     15 C          -1.5816    6.7439    0.0030 C.ar    1  LIG1       -0.0509
     16 C          -1.4042    8.1196    0.0036 C.ar    1  LIG1       -0.0611
     17 C          -0.4710    5.8960    0.0029 C.ar    1  LIG1        0.0226
     18 C          -0.1225    8.6600    0.0040 C.ar    1  LIG1       -0.0617
     19 H          -2.2704    8.7729    0.0037 H       1  LIG1        0.0618
     20 C           0.8152    6.4418    0.0033 C.ar    1  LIG1       -0.0509
     21 C           0.9851    7.8185    0.0038 C.ar    1  LIG1       -0.0611
     22 H           1.6705    5.7771    0.0032 H       1  LIG1        0.0625
     23 H           0.0132    9.7367    0.0044 H       1  LIG1        0.0618
     24 H          -2.5751    6.3125    0.0027 H       1  LIG1        0.0625
     25 H           1.9863    8.2363    0.0042 H       1  LIG1        0.0618
@<TRIPOS>BOND
     1     6     1    1
     2     7     2    1
     3     1     2   ar
     4     1     5   ar
     5     2     3   ar
     6     5     4   ar
     7     3     8    1
     8     3     4   ar
     9     4     9    1
    10     9    10   ar
    11     9    12   ar
    12    10    13   ar
    13    12    14   ar
    14    13    11   ar
    15    14    11   ar
    16    11    17    1
    17    24    15    1
    18    17    15   ar
    19    17    20   ar
    20    15    16   ar
    21    22    20    1
    22    20    21   ar
    23    16    19    1
    24    16    18   ar
    25    21    18   ar
    26    21    25    1
    27    18    23    1
