@<TRIPOS>MOLECULE
mol_data/opt/cam/geoms/mol2/58-48.out
 31 34 0 0 0
SMALL
GASTEIGER

@<TRIPOS>ATOM
      1 C          -2.0477   -1.8994   -0.0020 C.ar    1  LIG1       -0.0236
      2 C          -0.6832   -1.8770   -0.0018 C.ar    1  LIG1       -0.0540
      3 C          -0.1667   -0.5566   -0.0005 C.ar    1  LIG1       -0.0438
      4 C          -1.1531    0.3938    0.0002 C.ar    1  LIG1        0.0598
      5 S          -2.7321   -0.3235   -0.0010 S.2     1  LIG1       -0.0934
      6 H          -2.6943   -2.7657   -0.0028 H       1  LIG1        0.0693
      7 H          -0.0685   -2.7680   -0.0025 H       1  LIG1        0.0623
      8 H           0.8842   -0.2988   -0.0001 H       1  LIG1        0.0630
      9 C          -0.9831    1.8344    0.0017 C.ar    1  LIG1        0.2099
     10 N          -2.0855    2.5994    0.0022 N.ar    1  LIG1       -0.1247
     11 C          -0.6856    4.3862    0.0043 C.ar    1  LIG1        0.2034
     12 N           0.2689    2.3226    0.0025 N.ar    1  LIG1       -0.1247
     13 N          -1.9322    3.8947    0.0035 N.ar    1  LIG1       -0.1252
     14 N           0.4148    3.6179    0.0038 N.ar    1  LIG1       -0.1252
     15 C           0.7689    6.4088    0.0067 C.ar    1  LIG1       -0.0503
     16 C           0.9311    7.7833    0.0080 C.ar    1  LIG1       -0.0503
     17 C          -0.5124    5.8515    0.0058 C.ar    1  LIG1        0.0227
     18 C          -0.1855    8.6231    0.0086 C.ar    1  LIG1        0.0227
     19 H           1.9221    8.2200    0.0087 H       1  LIG1        0.0625
     20 C          -1.6290    6.6916    0.0063 C.ar    1  LIG1       -0.0503
     21 C          -1.4669    8.0661    0.0077 C.ar    1  LIG1       -0.0503
     22 H          -2.6199    6.2548    0.0056 H       1  LIG1        0.0625
     23 H           1.6309    5.7534    0.0062 H       1  LIG1        0.0625
     24 H          -2.3290    8.7214    0.0081 H       1  LIG1        0.0625
     25 C          -0.0126   10.0889    0.0101 C.ar    1  LIG1        0.2033
     26 N           1.2375   10.5761    0.0107 N.ar    1  LIG1       -0.1258
     27 C           0.2860   12.6203    0.0123 C.ar    1  LIG1        0.1605
     28 N          -1.1150   10.8535    0.0105 N.ar    1  LIG1       -0.1258
     29 N           1.3911   11.8770    0.0119 N.ar    1  LIG1       -0.1339
     30 N          -0.9617   12.1545    0.0117 N.ar    1  LIG1       -0.1339
     31 H           0.4129   13.6968    0.0136 H       1  LIG1        0.1085
@<TRIPOS>BOND
     1     6     1    1
     2     7     2    1
     3     1     2   ar
     4     1     5   ar
     5     2     3   ar
     6     5     4   ar
     7     3     8    1
     8     3     4   ar
     9     4     9    1
    10     9    10   ar
    11     9    12   ar
    12    10    13   ar
    13    12    14   ar
    14    13    11   ar
    15    14    11   ar
    16    11    17    1
    17    22    20    1
    18    17    20   ar
    19    17    15   ar
    20    23    15    1
    21    20    21   ar
    22    15    16   ar
    23    21    24    1
    24    21    18   ar
    25    16    18   ar
    26    16    19    1
    27    18    25    1
    28    25    28   ar
    29    25    26   ar
    30    28    30   ar
    31    26    29   ar
    32    30    27   ar
    33    29    27   ar
    34    27    31    1
