@<TRIPOS>MOLECULE
mol_data/opt/cam/geoms/mol2/58-4-5.out
 32 35 0 0 0
SMALL
GASTEIGER

@<TRIPOS>ATOM
      1 C          -2.1117   -1.9085    0.0004 C.ar    1  LIG1       -0.0236
      2 C          -0.7474   -1.9082    0.0009 C.ar    1  LIG1       -0.0540
      3 C          -0.2088   -0.5961    0.0012 C.ar    1  LIG1       -0.0438
      4 C          -1.1786    0.3705    0.0009 C.ar    1  LIG1        0.0598
      5 S          -2.7690   -0.3203   -0.0003 S.2     1  LIG1       -0.0934
      6 H          -2.7724   -2.7639    0.0001 H       1  LIG1        0.0693
      7 H          -0.1473   -2.8091    0.0012 H       1  LIG1        0.0623
      8 H           0.8462   -0.3557    0.0018 H       1  LIG1        0.0630
      9 C          -0.9846    1.8094    0.0013 C.ar    1  LIG1        0.2099
     10 N          -2.0738    2.5921    0.0007 N.ar    1  LIG1       -0.1247
     11 C          -0.6448    4.3580    0.0018 C.ar    1  LIG1        0.2034
     12 N           0.2747    2.2766    0.0021 N.ar    1  LIG1       -0.1247
     13 N          -1.9003    3.8849    0.0010 N.ar    1  LIG1       -0.1252
     14 N           0.4430    3.5694    0.0023 N.ar    1  LIG1       -0.1252
     15 C          -1.5446    6.6803    0.0016 C.ar    1  LIG1       -0.0503
     16 C          -1.3552    8.0507    0.0018 C.ar    1  LIG1       -0.0529
     17 C          -0.4480    5.8159    0.0021 C.ar    1  LIG1        0.0227
     18 C          -0.0705    8.6078    0.0027 C.ar    1  LIG1       -0.0113
     19 H          -2.2264    8.6976    0.0012 H       1  LIG1        0.0624
     20 C           0.8394    6.3593    0.0030 C.ar    1  LIG1       -0.0503
     21 C           1.0218    7.7297    0.0033 C.ar    1  LIG1       -0.0529
     22 H           1.6937    5.6935    0.0035 H       1  LIG1        0.0625
     23 H          -2.5452    6.2658    0.0009 H       1  LIG1        0.0625
     24 H           2.0318    8.1223    0.0043 H       1  LIG1        0.0624
     25 C           0.1372   10.0610    0.0029 C.ar    1  LIG1        0.0193
     26 C           1.3192   10.7531    0.0007 C.ar    1  LIG1       -0.0469
     27 C           1.1541   12.1649    0.0016 C.ar    1  LIG1       -0.0541
     28 C          -0.1540   12.5377    0.0044 C.ar    1  LIG1       -0.0237
     29 S          -1.2033   11.1739    0.0065 S.2     1  LIG1       -0.0967
     30 H          -0.5653   13.5368    0.0056 H       1  LIG1        0.0693
     31 H           2.2896   10.2738   -0.0017 H       1  LIG1        0.0629
     32 H           1.9775   12.8681    0.0001 H       1  LIG1        0.0623
@<TRIPOS>BOND
     1    31    26    1
     2     5     1   ar
     3     5     4   ar
     4    32    27    1
     5     6     1    1
     6     1     2   ar
     7    26    27   ar
     8    26    25   ar
     9    10    13   ar
    10    10     9   ar
    11    23    15    1
    12     2     7    1
    13     2     3   ar
    14     4     3   ar
    15     4     9    1
    16    13    11   ar
    17    19    16    1
    18     3     8    1
    19     9    12   ar
    20    15    16   ar
    21    15    17   ar
    22    27    28   ar
    23    11    17    1
    24    11    14   ar
    25    16    18   ar
    26    12    14   ar
    27    17    20   ar
    28    18    25    1
    29    18    21   ar
    30    25    29   ar
    31    20    21   ar
    32    20    22    1
    33    21    24    1
    34    28    30    1
    35    28    29   ar
