@<TRIPOS>MOLECULE
mol_data/opt/cam/geoms/mol2/58-5-.out
 22 24 0 0 0
SMALL
GASTEIGER

@<TRIPOS>ATOM
      1 C          -2.0414   -1.8344   -0.0005 C.ar    1  LIG1       -0.0236
      2 C          -0.6773   -1.8076   -0.0007 C.ar    1  LIG1       -0.0540
      3 C          -0.1643   -0.4852   -0.0000 C.ar    1  LIG1       -0.0438
      4 C          -1.1528    0.4623    0.0007 C.ar    1  LIG1        0.0598
      5 S          -2.7297   -0.2594    0.0003 S.2     1  LIG1       -0.0934
      6 H          -2.6856   -2.7023   -0.0009 H       1  LIG1        0.0693
      7 H          -0.0597   -2.6967   -0.0013 H       1  LIG1        0.0623
      8 H           0.8860   -0.2246   -0.0000 H       1  LIG1        0.0630
      9 C          -0.9875    1.9047    0.0016 C.ar    1  LIG1        0.2099
     10 N          -2.0943    2.6648    0.0022 N.ar    1  LIG1       -0.1247
     11 C          -0.7035    4.4527    0.0032 C.ar    1  LIG1        0.2099
     12 N           0.2620    2.3969    0.0018 N.ar    1  LIG1       -0.1247
     13 N          -1.9530    3.9606    0.0030 N.ar    1  LIG1       -0.1247
     14 N           0.4034    3.6926    0.0027 N.ar    1  LIG1       -0.1247
     15 C          -0.5382    5.8951    0.0041 C.ar    1  LIG1        0.0598
     16 C          -1.5267    6.8426    0.0048 C.ar    1  LIG1       -0.0438
     17 C          -1.0137    8.1651    0.0057 C.ar    1  LIG1       -0.0540
     18 C           0.3504    8.1918    0.0057 C.ar    1  LIG1       -0.0236
     19 S           1.0387    6.6169    0.0044 S.2     1  LIG1       -0.0934
     20 H           0.9946    9.0598    0.0062 H       1  LIG1        0.0693
     21 H          -2.5770    6.5820    0.0047 H       1  LIG1        0.0630
     22 H          -1.6313    9.0542    0.0063 H       1  LIG1        0.0623
@<TRIPOS>BOND
     1     7     2    1
     2     6     1    1
     3     2     1   ar
     4     2     3   ar
     5     1     5   ar
     6     3     8    1
     7     3     4   ar
     8     5     4   ar
     9     4     9    1
    10     9    12   ar
    11     9    10   ar
    12    12    14   ar
    13    10    13   ar
    14    14    11   ar
    15    13    11   ar
    16    11    15    1
    17    15    19   ar
    18    15    16   ar
    19    19    18   ar
    20    21    16    1
    21    16    17   ar
    22    18    17   ar
    23    18    20    1
    24    17    22    1
