@<TRIPOS>MOLECULE
mol_data/opt/cam/geoms/mol2/58-5.out
 22 24 0 0 0
SMALL
GASTEIGER

@<TRIPOS>ATOM
      1 C          -2.0645   -1.8237   -0.0002 C.ar    1  LIG1       -0.0236
      2 C          -0.7002   -1.8152   -0.0006 C.ar    1  LIG1       -0.0540
      3 C          -0.1696   -0.4997   -0.0000 C.ar    1  LIG1       -0.0438
      4 C          -1.1453    0.4609    0.0007 C.ar    1  LIG1        0.0598
      5 S          -2.7317   -0.2397    0.0006 S.2     1  LIG1       -0.0934
      6 H          -2.7203   -2.6829   -0.0004 H       1  LIG1        0.0693
      7 H          -0.0946   -2.7125   -0.0012 H       1  LIG1        0.0623
      8 H           0.8841   -0.2532   -0.0001 H       1  LIG1        0.0630
      9 C          -0.9606    1.9010    0.0015 C.ar    1  LIG1        0.2099
     10 N          -2.0540    2.6770    0.0022 N.ar    1  LIG1       -0.1247
     11 C          -0.6326    4.4438    0.0029 C.ar    1  LIG1        0.2099
     12 N           0.2982    2.3745    0.0016 N.ar    1  LIG1       -0.1247
     13 N          -1.8871    3.9707    0.0028 N.ar    1  LIG1       -0.1247
     14 N           0.4649    3.6663    0.0022 N.ar    1  LIG1       -0.1247
     15 C          -0.4457    5.8836    0.0036 C.ar    1  LIG1        0.0598
     16 C           0.7419    6.5651    0.0038 C.ar    1  LIG1       -0.0438
     17 C           0.5625    7.9722    0.0046 C.ar    1  LIG1       -0.0540
     18 C          -0.7550    8.3266    0.0049 C.ar    1  LIG1       -0.0236
     19 S          -1.8023    6.9639    0.0046 S.2     1  LIG1       -0.0934
     20 H          -1.1712    9.3242    0.0055 H       1  LIG1        0.0693
     21 H           1.6984    6.0593    0.0034 H       1  LIG1        0.0630
     22 H           1.3760    8.6864    0.0048 H       1  LIG1        0.0623
@<TRIPOS>BOND
     1     7     2    1
     2     2     1   ar
     3     2     3   ar
     4     6     1    1
     5     1     5   ar
     6     8     3    1
     7     3     4   ar
     8     5     4   ar
     9     4     9    1
    10     9    12   ar
    11     9    10   ar
    12    12    14   ar
    13    10    13   ar
    14    14    11   ar
    15    13    11   ar
    16    11    15    1
    17    21    16    1
    18    15    16   ar
    19    15    19   ar
    20    16    17   ar
    21    17    22    1
    22    17    18   ar
    23    19    18   ar
    24    18    20    1
