@<TRIPOS>MOLECULE
mol_data/opt/cam/geoms/mol2/58-58-.out
 28 31 0 0 0
SMALL
GASTEIGER

@<TRIPOS>ATOM
      1 C          -2.0570   -1.8600   -0.0002 C.ar    1  LIG1       -0.0236
      2 C          -0.6922   -1.8514   -0.0007 C.ar    1  LIG1       -0.0540
      3 C          -0.1625   -0.5364   -0.0002 C.ar    1  LIG1       -0.0438
      4 C          -1.1397    0.4240    0.0007 C.ar    1  LIG1        0.0598
      5 S          -2.7257   -0.2776    0.0005 S.2     1  LIG1       -0.0934
      6 H          -2.7121   -2.7198   -0.0004 H       1  LIG1        0.0693
      7 H          -0.0865   -2.7485   -0.0014 H       1  LIG1        0.0623
      8 H           0.8910   -0.2895   -0.0004 H       1  LIG1        0.0630
      9 C          -0.9555    1.8624    0.0015 C.ar    1  LIG1        0.2099
     10 N          -2.0506    2.6382    0.0022 N.ar    1  LIG1       -0.1247
     11 C          -0.6299    4.4032    0.0029 C.ar    1  LIG1        0.2099
     12 N           0.3037    2.3372    0.0015 N.ar    1  LIG1       -0.1247
     13 N          -1.8836    3.9312    0.0030 N.ar    1  LIG1       -0.1247
     14 N           0.4682    3.6293    0.0022 N.ar    1  LIG1       -0.1247
     15 C          -0.4447    5.8460    0.0037 C.ar    1  LIG1        0.0605
     16 C           0.7508    6.5200    0.0038 C.ar    1  LIG1       -0.0431
     17 C           0.5768    7.9201    0.0047 C.ar    1  LIG1       -0.0431
     18 C          -0.7469    8.2816    0.0052 C.ar    1  LIG1        0.0605
     19 S          -1.8055    6.9131    0.0047 S.2     1  LIG1       -0.0818
     20 H           1.7053    6.0109    0.0033 H       1  LIG1        0.0630
     21 H           1.3778    8.6473    0.0049 H       1  LIG1        0.0630
     22 C          -1.2777    9.6352    0.0061 C.ar    1  LIG1        0.2099
     23 N          -2.6112    9.7821    0.0066 N.ar    1  LIG1       -0.1253
     24 C          -2.2092   12.0000    0.0080 C.ar    1  LIG1        0.1605
     25 N          -0.3987   10.6509    0.0065 N.ar    1  LIG1       -0.1253
     26 N          -3.0899   11.0008    0.0075 N.ar    1  LIG1       -0.1339
     27 N          -0.8822   11.8672    0.0074 N.ar    1  LIG1       -0.1339
     28 H          -2.6049   13.0089    0.0084 H       1  LIG1        0.1085
@<TRIPOS>BOND
     1     7     2    1
     2     2     1   ar
     3     2     3   ar
     4     6     1    1
     5     8     3    1
     6     1     5   ar
     7     3     4   ar
     8     5     4   ar
     9     4     9    1
    10    12     9   ar
    11    12    14   ar
    12     9    10   ar
    13    14    11   ar
    14    10    13   ar
    15    11    13   ar
    16    11    15    1
    17    20    16    1
    18    15    16   ar
    19    15    19   ar
    20    16    17   ar
    21    17    21    1
    22    17    18   ar
    23    19    18   ar
    24    18    22    1
    25    22    25   ar
    26    22    23   ar
    27    25    27   ar
    28    23    26   ar
    29    27    24   ar
    30    26    24   ar
    31    24    28    1
