@<TRIPOS>MOLECULE
mol_data/opt/cam/geoms/mol2/58-54-.out
 32 35 0 0 0
SMALL
GASTEIGER

@<TRIPOS>ATOM
      1 C          -2.0674   -1.9084    0.0013 C.ar    1  LIG1       -0.0236
      2 C          -0.7032   -1.9052   -0.0001 C.ar    1  LIG1       -0.0540
      3 C          -0.1672   -0.5919   -0.0002 C.ar    1  LIG1       -0.0438
      4 C          -1.1389    0.3729    0.0011 C.ar    1  LIG1        0.0598
      5 S          -2.7280   -0.3214    0.0020 S.2     1  LIG1       -0.0934
      6 H          -2.7265   -2.7651    0.0018 H       1  LIG1        0.0693
      7 H          -0.1012   -2.8049   -0.0010 H       1  LIG1        0.0623
      8 H           0.8874   -0.3499   -0.0011 H       1  LIG1        0.0630
      9 C          -0.9485    1.8122    0.0017 C.ar    1  LIG1        0.2099
     10 N          -2.0387    2.5923    0.0029 N.ar    1  LIG1       -0.1247
     11 C          -0.6105    4.3543    0.0024 C.ar    1  LIG1        0.2099
     12 N           0.3126    2.2810    0.0008 N.ar    1  LIG1       -0.1247
     13 N          -1.8674    3.8856    0.0033 N.ar    1  LIG1       -0.1247
     14 N           0.4846    3.5717    0.0012 N.ar    1  LIG1       -0.1247
     15 C          -0.4177    5.7907    0.0029 C.ar    1  LIG1        0.0604
     16 C           0.7715    6.4692    0.0021 C.ar    1  LIG1       -0.0432
     17 C           0.5989    7.8711    0.0028 C.ar    1  LIG1       -0.0462
     18 C          -0.7183    8.2619    0.0042 C.ar    1  LIG1        0.0200
     19 S          -1.7675    6.8766    0.0045 S.2     1  LIG1       -0.0850
     20 H           1.7276    5.9625    0.0010 H       1  LIG1        0.0630
     21 H           1.4286    8.5655    0.0022 H       1  LIG1        0.0629
     22 C          -2.6388    9.8674    0.0032 C.ar    1  LIG1       -0.0535
     23 C          -3.1397   11.1610    0.0042 C.ar    1  LIG1       -0.0612
     24 C          -1.2599    9.6289    0.0052 C.ar    1  LIG1       -0.0113
     25 C          -2.2741   12.2480    0.0071 C.ar    1  LIG1       -0.0617
     26 H          -4.2131   11.3185    0.0025 H       1  LIG1        0.0618
     27 C          -0.3998   10.7338    0.0082 C.ar    1  LIG1       -0.0535
     28 C          -0.9015   12.0264    0.0091 C.ar    1  LIG1       -0.0612
     29 H           0.6737   10.5847    0.0101 H       1  LIG1        0.0624
     30 H          -2.6654   13.2598    0.0079 H       1  LIG1        0.0618
     31 H          -3.3338    9.0338    0.0007 H       1  LIG1        0.0624
     32 H          -0.2144   12.8662    0.0115 H       1  LIG1        0.0618
@<TRIPOS>BOND
     1     8     3    1
     2     7     2    1
     3     3     2   ar
     4     3     4   ar
     5     2     1   ar
     6    31    22    1
     7    12    14   ar
     8    12     9   ar
     9    20    16    1
    10     4     9    1
    11     4     5   ar
    12    14    11   ar
    13     1     6    1
    14     1     5   ar
    15     9    10   ar
    16    16    17   ar
    17    16    15   ar
    18    21    17    1
    19    11    15    1
    20    11    13   ar
    21    26    23    1
    22    17    18   ar
    23    15    19   ar
    24    10    13   ar
    25    22    23   ar
    26    22    24   ar
    27    18    19   ar
    28    18    24    1
    29    23    25   ar
    30    24    27   ar
    31    25    30    1
    32    25    28   ar
    33    27    28   ar
    34    27    29    1
    35    28    32    1
