@<TRIPOS>MOLECULE
mol_data/opt/cam/geoms/mol2/58-55.out
 29 32 0 0 0
SMALL
GASTEIGER

@<TRIPOS>ATOM
      1 C          -2.0654   -1.8833    0.0001 C.ar    1  LIG1       -0.0236
      2 C          -0.7012   -1.8797   -0.0006 C.ar    1  LIG1       -0.0540
      3 C          -0.1655   -0.5663   -0.0003 C.ar    1  LIG1       -0.0438
      4 C          -1.1376    0.3982    0.0007 C.ar    1  LIG1        0.0598
      5 S          -2.7265   -0.2966    0.0006 S.2     1  LIG1       -0.0934
      6 H          -2.7242   -2.7402    0.0001 H       1  LIG1        0.0693
      7 H          -0.0990   -2.7793   -0.0012 H       1  LIG1        0.0623
      8 H           0.8890   -0.3240   -0.0005 H       1  LIG1        0.0630
      9 C          -0.9477    1.8375    0.0015 C.ar    1  LIG1        0.2099
     10 N          -2.0383    2.6173    0.0023 N.ar    1  LIG1       -0.1247
     11 C          -0.6107    4.3796    0.0028 C.ar    1  LIG1        0.2099
     12 N           0.3132    2.3070    0.0014 N.ar    1  LIG1       -0.1247
     13 N          -1.8675    3.9104    0.0029 N.ar    1  LIG1       -0.1247
     14 N           0.4849    3.5977    0.0020 N.ar    1  LIG1       -0.1247
     15 C          -0.4201    5.8153    0.0036 C.ar    1  LIG1        0.0604
     16 C           0.7677    6.4980    0.0036 C.ar    1  LIG1       -0.0432
     17 C           0.5943    7.8985    0.0044 C.ar    1  LIG1       -0.0457
     18 C          -0.7270    8.2804    0.0050 C.ar    1  LIG1        0.0266
     19 S          -1.7752    6.8969    0.0046 S.2     1  LIG1       -0.0845
     20 H           1.7244    5.9923    0.0030 H       1  LIG1        0.0630
     21 H           1.4156    8.6033    0.0046 H       1  LIG1        0.0629
     22 C          -1.2446    9.6391    0.0059 C.ar    1  LIG1        0.0259
     23 C          -0.5204   10.8031    0.0064 C.ar    1  LIG1       -0.0464
     24 C          -1.3306   11.9697    0.0072 C.ar    1  LIG1       -0.0541
     25 C          -2.6613   11.6841    0.0072 C.ar    1  LIG1       -0.0237
     26 S          -2.9493    9.9870    0.0066 S.2     1  LIG1       -0.0961
     27 H          -3.4939   12.3724    0.0076 H       1  LIG1        0.0693
     28 H           0.5620   10.8258    0.0063 H       1  LIG1        0.0629
     29 H          -0.9358   12.9778    0.0076 H       1  LIG1        0.0623
@<TRIPOS>BOND
     1     7     2    1
     2     2     3   ar
     3     2     1   ar
     4     8     3    1
     5     3     4   ar
     6     6     1    1
     7     1     5   ar
     8     5     4   ar
     9     4     9    1
    10    12     9   ar
    11    12    14   ar
    12     9    10   ar
    13    14    11   ar
    14    10    13   ar
    15    11    13   ar
    16    11    15    1
    17    20    16    1
    18    15    16   ar
    19    15    19   ar
    20    16    17   ar
    21    17    21    1
    22    17    18   ar
    23    19    18   ar
    24    18    22    1
    25    22    23   ar
    26    22    26   ar
    27    28    23    1
    28    23    24   ar
    29    26    25   ar
    30    25    24   ar
    31    25    27    1
    32    24    29    1
