@<TRIPOS>MOLECULE
mol_data/opt/cam/geoms/mol2/58-8-13-.out
 29 32 0 0 0
SMALL
GASTEIGER

@<TRIPOS>ATOM
      1 C          -2.0410   -1.8457   -0.0006 C.ar    1  LIG1       -0.0236
      2 C          -0.6759   -1.8239   -0.0005 C.ar    1  LIG1       -0.0540
      3 C          -0.1596   -0.5043    0.0003 C.ar    1  LIG1       -0.0438
      4 C          -1.1471    0.4461    0.0008 C.ar    1  LIG1        0.0598
      5 S          -2.7259   -0.2709    0.0004 S.2     1  LIG1       -0.0934
      6 H          -2.6870   -2.7124   -0.0011 H       1  LIG1        0.0693
      7 H          -0.0616   -2.7152   -0.0010 H       1  LIG1        0.0623
      8 H           0.8911   -0.2456    0.0005 H       1  LIG1        0.0630
      9 C          -0.9759    1.8847    0.0016 C.ar    1  LIG1        0.2099
     10 N          -2.0795    2.6496    0.0020 N.ar    1  LIG1       -0.1246
     11 C          -0.6784    4.4228    0.0030 C.ar    1  LIG1        0.2435
     12 N           0.2780    2.3708    0.0019 N.ar    1  LIG1       -0.1246
     13 N          -1.9274    3.9459    0.0027 N.ar    1  LIG1       -0.1218
     14 N           0.4267    3.6667    0.0026 N.ar    1  LIG1       -0.1218
     15 C          -0.5026    5.8962    0.0038 C.ar    1  LIG1        0.2435
     16 N          -1.6090    6.6531    0.0044 N.ar    1  LIG1       -0.1218
     17 C          -0.2084    8.4350    0.0052 C.ar    1  LIG1        0.2194
     18 N           0.7459    6.3717    0.0040 N.ar    1  LIG1       -0.1218
     19 N          -1.4654    7.9474    0.0051 N.ar    1  LIG1       -0.1236
     20 N           0.8980    7.6679    0.0047 N.ar    1  LIG1       -0.1236
     21 C          -0.0210    9.8591    0.0061 C.ar    1  LIG1        0.0875
     22 C          -0.9280   10.9044    0.0068 C.ar    1  LIG1       -0.0333
     23 C          -0.1835   12.0994    0.0073 C.ar    1  LIG1       -0.0437
     24 C           1.1538   11.7518    0.0071 C.ar    1  LIG1        0.0023
     25 N           1.2420   10.3993    0.0062 N.ar    1  LIG1       -0.3582
     26 H           2.0790    9.8362    0.0058 H       1  LIG1        0.1654
     27 H           2.0381   12.3709    0.0073 H       1  LIG1        0.0807
     28 H          -2.0014   10.7925    0.0069 H       1  LIG1        0.0640
     29 H          -0.5736   13.1061    0.0079 H       1  LIG1        0.0633
@<TRIPOS>BOND
     1     6     1    1
     2     7     2    1
     3     1     2   ar
     4     1     5   ar
     5     2     3   ar
     6     3     8    1
     7     3     4   ar
     8     5     4   ar
     9     4     9    1
    10     9    12   ar
    11     9    10   ar
    12    12    14   ar
    13    10    13   ar
    14    14    11   ar
    15    13    11   ar
    16    11    15    1
    17    15    18   ar
    18    15    16   ar
    19    18    20   ar
    20    16    19   ar
    21    20    17   ar
    22    19    17   ar
    23    17    21    1
    24    26    25    1
    25    21    25   ar
    26    21    22   ar
    27    25    24   ar
    28    22    28    1
    29    22    23   ar
    30    24    23   ar
    31    24    27    1
    32    23    29    1
