@<TRIPOS>MOLECULE
mol_data/opt/cam/geoms/mol2/5812-5-.out
 29 32 0 0 0
SMALL
GASTEIGER

@<TRIPOS>ATOM
      1 C          -2.2178   -1.8420   -0.0006 C.ar    1  LIG1       -0.0236
      2 C          -0.8542   -1.8818   -0.0007 C.ar    1  LIG1       -0.0540
      3 C          -0.2767   -0.5862    0.0000 C.ar    1  LIG1       -0.0438
      4 C          -1.2172    0.4089    0.0006 C.ar    1  LIG1        0.0598
      5 S          -2.8276   -0.2347   -0.0002 S.2     1  LIG1       -0.0934
      6 H          -2.9036   -2.6774   -0.0009 H       1  LIG1        0.0693
      7 H          -0.2809   -2.8001   -0.0011 H       1  LIG1        0.0623
      8 H           0.7850   -0.3773    0.0002 H       1  LIG1        0.0630
      9 C          -0.9803    1.8412    0.0015 C.ar    1  LIG1        0.2099
     10 N           0.2916    2.2705    0.0019 N.ar    1  LIG1       -0.1246
     11 C          -0.5665    4.3667    0.0031 C.ar    1  LIG1        0.2381
     12 N          -2.0497    2.6554    0.0019 N.ar    1  LIG1       -0.1246
     13 N           0.5057    3.5585    0.0027 N.ar    1  LIG1       -0.1220
     14 N          -1.8414    3.9406    0.0026 N.ar    1  LIG1       -0.1220
     15 C          -0.3672    5.7986    0.0039 C.ar    1  LIG1        0.1760
     16 C          -1.2532    6.8371    0.0044 C.ar    1  LIG1       -0.0120
     17 C          -0.4781    8.0228    0.0053 C.ar    1  LIG1       -0.0146
     18 C           0.8331    7.6268    0.0051 C.ar    1  LIG1        0.1424
     19 O           0.9064    6.2746    0.0043 O.2     1  LIG1       -0.4511
     20 H          -2.3279    6.7426    0.0042 H       1  LIG1        0.0657
     21 H          -0.8386    9.0399    0.0058 H       1  LIG1        0.0656
     22 C           2.0824    8.3502    0.0057 C.ar    1  LIG1        0.0544
     23 C           2.2637    9.7082    0.0063 C.ar    1  LIG1       -0.0440
     24 C           3.6337   10.0820    0.0069 C.ar    1  LIG1       -0.0540
     25 C           4.4684    9.0055    0.0068 C.ar    1  LIG1       -0.0236
     26 S           3.6051    7.5163    0.0055 S.2     1  LIG1       -0.0936
     27 H           5.5488    9.0012    0.0072 H       1  LIG1        0.0693
     28 H           1.4435   10.4156    0.0064 H       1  LIG1        0.0630
     29 H           3.9792   11.1080    0.0075 H       1  LIG1        0.0623
@<TRIPOS>BOND
     1     7     2    1
     2     6     1    1
     3     2     1   ar
     4     2     3   ar
     5     1     5   ar
     6     5     4   ar
     7     3     8    1
     8     3     4   ar
     9     4     9    1
    10     9    12   ar
    11     9    10   ar
    12    12    14   ar
    13    10    13   ar
    14    14    11   ar
    15    13    11   ar
    16    11    15    1
    17    15    19   ar
    18    15    16   ar
    19    20    16    1
    20    19    18   ar
    21    16    17   ar
    22    18    17   ar
    23    18    22    1
    24    17    21    1
    25    26    22   ar
    26    26    25   ar
    27    22    23   ar
    28    23    28    1
    29    23    24   ar
    30    25    24   ar
    31    25    27    1
    32    24    29    1
