@<TRIPOS>MOLECULE
mol_data/opt/cam/geoms/mol2/5812-8.out
 28 31 0 0 0
SMALL
GASTEIGER

@<TRIPOS>ATOM
      1 C          -2.2701   -1.8373   -0.0006 C.ar    1  LIG1       -0.0236
      2 C          -0.9067   -1.8985   -0.0006 C.ar    1  LIG1       -0.0540
      3 C          -0.3102   -0.6125    0.0001 C.ar    1  LIG1       -0.0438
      4 C          -1.2367    0.3968    0.0007 C.ar    1  LIG1        0.0598
      5 S          -2.8568   -0.2226    0.0001 S.2     1  LIG1       -0.0934
      6 H          -2.9684   -2.6624   -0.0010 H       1  LIG1        0.0693
      7 H          -0.3478   -2.8255   -0.0011 H       1  LIG1        0.0623
      8 H           0.7546   -0.4192    0.0003 H       1  LIG1        0.0630
      9 C          -0.9775    1.8234    0.0015 C.ar    1  LIG1        0.2099
     10 N           0.3028    2.2318    0.0019 N.ar    1  LIG1       -0.1246
     11 C          -0.5219    4.3380    0.0031 C.ar    1  LIG1        0.2381
     12 N          -2.0336    2.6551    0.0019 N.ar    1  LIG1       -0.1246
     13 N           0.5365    3.5157    0.0027 N.ar    1  LIG1       -0.1220
     14 N          -1.8016    3.9368    0.0027 N.ar    1  LIG1       -0.1220
     15 C          -0.3003    5.7735    0.0039 C.ar    1  LIG1        0.1761
     16 C          -1.1835    6.8174    0.0044 C.ar    1  LIG1       -0.0119
     17 C          -0.3964    7.9935    0.0052 C.ar    1  LIG1       -0.0119
     18 C           0.9054    7.5762    0.0051 C.ar    1  LIG1        0.1761
     19 O           0.9728    6.2253    0.0043 O.2     1  LIG1       -0.4483
     20 H          -2.2586    6.7304    0.0042 H       1  LIG1        0.0657
     21 H          -0.7263    9.0205    0.0057 H       1  LIG1        0.0657
     22 C           2.1469    8.3285    0.0056 C.ar    1  LIG1        0.2381
     23 N           3.3090    7.6615    0.0054 N.ar    1  LIG1       -0.1226
     24 C           4.2775    9.7031    0.0064 C.ar    1  LIG1        0.1605
     25 N           2.0229    9.6661    0.0063 N.ar    1  LIG1       -0.1226
     26 N           4.4080    8.3781    0.0058 N.ar    1  LIG1       -0.1338
     27 N           3.1233   10.3727    0.0067 N.ar    1  LIG1       -0.1338
     28 H           5.1886   10.2902    0.0070 H       1  LIG1        0.1085
@<TRIPOS>BOND
     1     7     2    1
     2     6     1    1
     3     2     1   ar
     4     2     3   ar
     5     1     5   ar
     6     5     4   ar
     7     3     8    1
     8     3     4   ar
     9     4     9    1
    10     9    10   ar
    11     9    12   ar
    12    10    13   ar
    13    12    14   ar
    14    13    11   ar
    15    14    11   ar
    16    11    15    1
    17    15    19   ar
    18    15    16   ar
    19    20    16    1
    20    19    18   ar
    21    16    17   ar
    22    18    17   ar
    23    18    22    1
    24    17    21    1
    25    23    22   ar
    26    23    26   ar
    27    22    25   ar
    28    26    24   ar
    29    25    27   ar
    30    24    27   ar
    31    24    28    1
