@<TRIPOS>MOLECULE
mol_data/opt/cam/geoms/mol2/581313-.out
 31 34 0 0 0
SMALL
GASTEIGER

@<TRIPOS>ATOM
      1 C          -2.0891   -1.8403   -0.0016 C.ar    1  LIG1       -0.0236
      2 C          -0.7254   -1.8446   -0.0012 C.ar    1  LIG1       -0.0540
      3 C          -0.1809   -0.5339    0.0000 C.ar    1  LIG1       -0.0438
      4 C          -1.1459    0.4369    0.0004 C.ar    1  LIG1        0.0598
      5 S          -2.7393   -0.2479   -0.0006 S.2     1  LIG1       -0.0934
      6 H          -2.7536   -2.6927   -0.0025 H       1  LIG1        0.0693
      7 H          -0.1285   -2.7477   -0.0017 H       1  LIG1        0.0623
      8 H           0.8751   -0.2985    0.0005 H       1  LIG1        0.0630
      9 C          -0.9468    1.8762    0.0016 C.ar    1  LIG1        0.2099
     10 N           0.3195    2.3360    0.0023 N.ar    1  LIG1       -0.1246
     11 C          -0.5851    4.4159    0.0036 C.ar    1  LIG1        0.2194
     12 N          -2.0300    2.6634    0.0018 N.ar    1  LIG1       -0.1246
     13 N           0.5062    3.6226    0.0033 N.ar    1  LIG1       -0.1237
     14 N          -1.8483    3.9563    0.0029 N.ar    1  LIG1       -0.1237
     15 C          -0.4000    5.8417    0.0048 C.ar    1  LIG1        0.0880
     16 C           0.7426    6.6197    0.0057 C.ar    1  LIG1       -0.0326
     17 C           0.3304    7.9634    0.0065 C.ar    1  LIG1       -0.0343
     18 C          -1.0608    7.9830    0.0061 C.ar    1  LIG1        0.0634
     19 N          -1.4815    6.6888    0.0051 N.ar    1  LIG1       -0.3505
     20 H          -2.4352    6.3608    0.0042 H       1  LIG1        0.1660
     21 H           1.7524    6.2390    0.0058 H       1  LIG1        0.0640
     22 H           0.9786    8.8280    0.0076 H       1  LIG1        0.0639
     23 C          -1.9927    9.0889    0.0067 C.ar    1  LIG1        0.0629
     24 C          -3.3732    9.1168    0.0090 C.ar    1  LIG1       -0.0350
     25 C          -3.7768   10.4741    0.0084 C.ar    1  LIG1       -0.0438
     26 C          -2.6375   11.2391    0.0058 C.ar    1  LIG1        0.0022
     27 N          -1.5636   10.3936    0.0048 N.ar    1  LIG1       -0.3595
     28 H          -0.5992   10.6798    0.0025 H       1  LIG1        0.1654
     29 H          -2.5047   12.3099    0.0046 H       1  LIG1        0.0807
     30 H          -4.0264    8.2557    0.0112 H       1  LIG1        0.0639
     31 H          -4.7903   10.8465    0.0098 H       1  LIG1        0.0633
@<TRIPOS>BOND
     1     6     1    1
     2     7     2    1
     3     1     2   ar
     4     1     5   ar
     5     2     3   ar
     6     5     4   ar
     7     3     4   ar
     8     3     8    1
     9     4     9    1
    10     9    12   ar
    11     9    10   ar
    12    12    14   ar
    13    10    13   ar
    14    28    27    1
    15    14    11   ar
    16    13    11   ar
    17    11    15    1
    18    20    19    1
    19    29    26    1
    20    15    19   ar
    21    15    16   ar
    22    27    26   ar
    23    27    23   ar
    24    19    18   ar
    25    16    21    1
    26    16    17   ar
    27    26    25   ar
    28    18    17   ar
    29    18    23    1
    30    17    22    1
    31    23    24   ar
    32    25    24   ar
    33    25    31    1
    34    24    30    1
