@<TRIPOS>MOLECULE
mol_data/opt/cam/geoms/mol2/5813-4-.out
 33 36 0 0 0
SMALL
GASTEIGER

@<TRIPOS>ATOM
      1 C          -2.0746   -1.8891    0.0005 C.ar    1  LIG1       -0.0236
      2 C          -0.7109   -1.8606   -0.0002 C.ar    1  LIG1       -0.0540
      3 C          -0.1989   -0.5373    0.0001 C.ar    1  LIG1       -0.0438
      4 C          -1.1876    0.4096    0.0010 C.ar    1  LIG1        0.0598
      5 S          -2.7638   -0.3139    0.0012 S.2     1  LIG1       -0.0934
      6 H          -2.7181   -2.7575    0.0005 H       1  LIG1        0.0693
      7 H          -0.0922   -2.7490   -0.0008 H       1  LIG1        0.0623
      8 H           0.8513   -0.2764   -0.0002 H       1  LIG1        0.0630
      9 C          -1.0255    1.8533    0.0016 C.ar    1  LIG1        0.2099
     10 N           0.2208    2.3496    0.0014 N.ar    1  LIG1       -0.1246
     11 C          -0.7560    4.4039    0.0027 C.ar    1  LIG1        0.2194
     12 N          -2.1369    2.6103    0.0024 N.ar    1  LIG1       -0.1246
     13 N           0.3564    3.6469    0.0019 N.ar    1  LIG1       -0.1237
     14 N          -2.0063    3.9049    0.0029 N.ar    1  LIG1       -0.1237
     15 C          -0.5807    5.8327    0.0032 C.ar    1  LIG1        0.0879
     16 C          -1.4938    6.8715    0.0039 C.ar    1  LIG1       -0.0326
     17 C          -0.7569    8.0669    0.0043 C.ar    1  LIG1       -0.0357
     18 C           0.5958    7.7421    0.0035 C.ar    1  LIG1        0.0470
     19 N           0.6755    6.3808    0.0028 N.ar    1  LIG1       -0.3516
     20 H           1.5088    5.8134    0.0021 H       1  LIG1        0.1660
     21 H          -2.5668    6.7558    0.0042 H       1  LIG1        0.0640
     22 H          -1.1654    9.0659    0.0051 H       1  LIG1        0.0639
     23 C           1.6299    9.9982    0.0036 C.ar    1  LIG1       -0.0526
     24 C           2.7369   10.8325    0.0035 C.ar    1  LIG1       -0.0611
     25 C           1.7784    8.6063    0.0034 C.ar    1  LIG1       -0.0017
     26 C           4.0208   10.2977    0.0032 C.ar    1  LIG1       -0.0617
     27 H           2.5957   11.9084    0.0037 H       1  LIG1        0.0618
     28 C           3.0755    8.0818    0.0031 C.ar    1  LIG1       -0.0526
     29 C           4.1833    8.9179    0.0030 C.ar    1  LIG1       -0.0611
     30 H           3.2372    7.0085    0.0030 H       1  LIG1        0.0624
     31 H           4.8867   10.9510    0.0031 H       1  LIG1        0.0618
     32 H           0.6360   10.4314    0.0038 H       1  LIG1        0.0624
     33 H           5.1788    8.4861    0.0028 H       1  LIG1        0.0618
@<TRIPOS>BOND
     1     7     2    1
     2     8     3    1
     3     2     3   ar
     4     2     1   ar
     5     3     4   ar
     6     1     6    1
     7     1     5   ar
     8     4     5   ar
     9     4     9    1
    10    10     9   ar
    11    10    13   ar
    12     9    12   ar
    13    13    11   ar
    14    20    19    1
    15    12    14   ar
    16    11    14   ar
    17    11    15    1
    18    33    29    1
    19    19    15   ar
    20    19    18   ar
    21    30    28    1
    22    29    28   ar
    23    29    26   ar
    24    28    25   ar
    25    31    26    1
    26    15    16   ar
    27    26    24   ar
    28    25    18    1
    29    25    23   ar
    30    18    17   ar
    31    24    23   ar
    32    24    27    1
    33    23    32    1
    34    16    21    1
    35    16    17   ar
    36    17    22    1
