@<TRIPOS>MOLECULE
mol_data/opt/cam/geoms/mol2/584-8-.out
 31 34 0 0 0
SMALL
GASTEIGER

@<TRIPOS>ATOM
      1 C          -2.0898   -1.8863    0.0007 C.ar    1  LIG1       -0.0236
      2 C          -0.7251   -1.8798    0.0007 C.ar    1  LIG1       -0.0540
      3 C          -0.1931   -0.5656    0.0008 C.ar    1  LIG1       -0.0438
      4 C          -1.1684    0.3963    0.0010 C.ar    1  LIG1        0.0598
      5 S          -2.7554   -0.3023    0.0005 S.2     1  LIG1       -0.0934
      6 H          -2.7462   -2.7450    0.0007 H       1  LIG1        0.0693
      7 H          -0.1209   -2.7779    0.0006 H       1  LIG1        0.0623
      8 H           0.8607   -0.3201    0.0009 H       1  LIG1        0.0630
      9 C          -0.9809    1.8347    0.0013 C.ar    1  LIG1        0.2099
     10 N           0.2771    2.3076    0.0015 N.ar    1  LIG1       -0.1247
     11 C          -0.6523    4.3828    0.0018 C.ar    1  LIG1        0.2034
     12 N          -2.0739    2.6130    0.0013 N.ar    1  LIG1       -0.1247
     13 N           0.4387    3.6011    0.0017 N.ar    1  LIG1       -0.1252
     14 N          -1.9049    3.9065    0.0015 N.ar    1  LIG1       -0.1252
     15 C          -1.5676    6.6994    0.0021 C.ar    1  LIG1       -0.0503
     16 C          -1.3888    8.0718    0.0024 C.ar    1  LIG1       -0.0503
     17 C          -0.4613    5.8460    0.0021 C.ar    1  LIG1        0.0227
     18 C          -0.1008    8.6130    0.0026 C.ar    1  LIG1        0.0227
     19 H          -2.2428    8.7376    0.0024 H       1  LIG1        0.0625
     20 C           0.8267    6.3874    0.0023 C.ar    1  LIG1       -0.0503
     21 C           1.0056    7.7598    0.0026 C.ar    1  LIG1       -0.0503
     22 H           1.6806    5.7215    0.0023 H       1  LIG1        0.0625
     23 H          -2.5637    6.2746    0.0019 H       1  LIG1        0.0625
     24 H           2.0017    8.1845    0.0028 H       1  LIG1        0.0625
     25 C           0.0900   10.0765    0.0029 C.ar    1  LIG1        0.2033
     26 N          -1.0031   10.8546    0.0030 N.ar    1  LIG1       -0.1258
     27 C           0.4194   12.6043    0.0036 C.ar    1  LIG1        0.1605
     28 N           1.3460   10.5485    0.0032 N.ar    1  LIG1       -0.1258
     29 N          -0.8340   12.1536    0.0033 N.ar    1  LIG1       -0.1339
     30 N           1.5154   11.8476    0.0035 N.ar    1  LIG1       -0.1339
     31 H           0.5594   13.6792    0.0038 H       1  LIG1        0.1085
@<TRIPOS>BOND
     1     5     1   ar
     2     5     4   ar
     3     7     2    1
     4     2     1   ar
     5     2     3   ar
     6     6     1    1
     7     3     8    1
     8     3     4   ar
     9     4     9    1
    10     9    12   ar
    11     9    10   ar
    12    12    14   ar
    13    10    13   ar
    14    14    11   ar
    15    13    11   ar
    16    11    17    1
    17    23    15    1
    18    17    15   ar
    19    17    20   ar
    20    15    16   ar
    21    22    20    1
    22    20    21   ar
    23    16    19    1
    24    16    18   ar
    25    21    18   ar
    26    21    24    1
    27    18    25    1
    28    25    26   ar
    29    25    28   ar
    30    26    29   ar
    31    28    30   ar
    32    29    27   ar
    33    30    27   ar
    34    27    31    1
