@<TRIPOS>MOLECULE
mol_data/opt/cam/geoms/mol2/588-4.out
 31 34 0 0 0
SMALL
GASTEIGER

@<TRIPOS>ATOM
      1 C          -2.0537   -1.8651   -0.0012 C.ar    1  LIG1       -0.0236
      2 C          -0.6882   -1.8480   -0.0010 C.ar    1  LIG1       -0.0540
      3 C          -0.1678   -0.5304   -0.0000 C.ar    1  LIG1       -0.0438
      4 C          -1.1524    0.4234    0.0004 C.ar    1  LIG1        0.0598
      5 S          -2.7339   -0.2886   -0.0005 S.2     1  LIG1       -0.0934
      6 H          -2.7026   -2.7296   -0.0018 H       1  LIG1        0.0693
      7 H          -0.0771   -2.7414   -0.0014 H       1  LIG1        0.0623
      8 H           0.8837   -0.2750    0.0004 H       1  LIG1        0.0630
      9 C          -0.9766    1.8607    0.0015 C.ar    1  LIG1        0.2099
     10 N           0.2793    2.3427    0.0022 N.ar    1  LIG1       -0.1246
     11 C          -0.6701    4.3967    0.0033 C.ar    1  LIG1        0.2435
     12 N          -2.0779    2.6298    0.0017 N.ar    1  LIG1       -0.1246
     13 N           0.4322    3.6378    0.0031 N.ar    1  LIG1       -0.1218
     14 N          -1.9206    3.9252    0.0027 N.ar    1  LIG1       -0.1218
     15 C          -0.4897    5.8710    0.0044 C.ar    1  LIG1        0.2435
     16 N          -1.5897    6.6300    0.0048 N.ar    1  LIG1       -0.1218
     17 C          -0.1788    8.4134    0.0063 C.ar    1  LIG1        0.2034
     18 N           0.7607    6.3425    0.0049 N.ar    1  LIG1       -0.1218
     19 N          -1.4300    7.9257    0.0058 N.ar    1  LIG1       -0.1251
     20 N           0.9180    7.6386    0.0059 N.ar    1  LIG1       -0.1251
     21 C           1.2853   10.4239    0.0080 C.ar    1  LIG1       -0.0509
     22 C           1.4498   11.8009    0.0090 C.ar    1  LIG1       -0.0611
     23 C           0.0000    9.8748    0.0074 C.ar    1  LIG1        0.0226
     24 C           0.3382   12.6375    0.0094 C.ar    1  LIG1       -0.0617
     25 H           2.4490   12.2231    0.0094 H       1  LIG1        0.0618
     26 C          -1.1150   10.7177    0.0078 C.ar    1  LIG1       -0.0509
     27 C          -0.9423   12.0937    0.0088 C.ar    1  LIG1       -0.0611
     28 H          -2.1067   10.2821    0.0073 H       1  LIG1        0.0625
     29 H           0.4700   13.7147    0.0102 H       1  LIG1        0.0618
     30 H           2.1426    9.7620    0.0076 H       1  LIG1        0.0625
     31 H          -1.8102   12.7444    0.0091 H       1  LIG1        0.0618
@<TRIPOS>BOND
     1     6     1    1
     2     7     2    1
     3     1     2   ar
     4     1     5   ar
     5     2     3   ar
     6     5     4   ar
     7     3     8    1
     8     3     4   ar
     9     4     9    1
    10     9    12   ar
    11     9    10   ar
    12    12    14   ar
    13    10    13   ar
    14    14    11   ar
    15    13    11   ar
    16    11    15    1
    17    15    16   ar
    18    15    18   ar
    19    16    19   ar
    20    18    20   ar
    21    19    17   ar
    22    20    17   ar
    23    17    23    1
    24    28    26    1
    25    23    26   ar
    26    23    21   ar
    27    30    21    1
    28    26    27   ar
    29    21    22   ar
    30    27    31    1
    31    27    24   ar
    32    22    24   ar
    33    22    25    1
    34    24    29    1
