@<TRIPOS>MOLECULE
mol_data/opt/cam/geoms/mol2/588-13.out
 29 32 0 0 0
SMALL
GASTEIGER

@<TRIPOS>ATOM
      1 C          -2.0805   -1.8334   -0.0009 C.ar    1  LIG1       -0.0236
      2 C          -0.7153   -1.8257   -0.0007 C.ar    1  LIG1       -0.0540
      3 C          -0.1853   -0.5115    0.0002 C.ar    1  LIG1       -0.0438
      4 C          -1.1629    0.4490    0.0007 C.ar    1  LIG1        0.0598
      5 S          -2.7491   -0.2516    0.0001 S.2     1  LIG1       -0.0934
      6 H          -2.7354   -2.6934   -0.0015 H       1  LIG1        0.0693
      7 H          -0.1102   -2.7232   -0.0012 H       1  LIG1        0.0623
      8 H           0.8680   -0.2637    0.0004 H       1  LIG1        0.0630
      9 C          -0.9762    1.8857    0.0016 C.ar    1  LIG1        0.2099
     10 N           0.2830    2.3579    0.0020 N.ar    1  LIG1       -0.1246
     11 C          -0.6501    4.4203    0.0032 C.ar    1  LIG1        0.2435
     12 N          -2.0713    2.6629    0.0020 N.ar    1  LIG1       -0.1246
     13 N           0.4464    3.6520    0.0028 N.ar    1  LIG1       -0.1218
     14 N          -1.9044    3.9574    0.0028 N.ar    1  LIG1       -0.1218
     15 C          -0.4591    5.8919    0.0041 C.ar    1  LIG1        0.2435
     16 N          -1.5529    6.6590    0.0047 N.ar    1  LIG1       -0.1218
     17 C          -0.1218    8.4252    0.0057 C.ar    1  LIG1        0.2194
     18 N           0.7991    6.3544    0.0043 N.ar    1  LIG1       -0.1218
     19 N          -1.3827    7.9528    0.0055 N.ar    1  LIG1       -0.1236
     20 N           0.9771    7.6444    0.0051 N.ar    1  LIG1       -0.1236
     21 C           0.0461    9.8517    0.0066 C.ar    1  LIG1        0.0875
     22 C           1.1823   10.6418    0.0070 C.ar    1  LIG1       -0.0333
     23 C           0.7548   11.9832    0.0080 C.ar    1  LIG1       -0.0437
     24 C          -0.6269   11.9754    0.0079 C.ar    1  LIG1        0.0023
     25 N          -1.0453   10.6862    0.0072 N.ar    1  LIG1       -0.3582
     26 H          -1.9951   10.3465    0.0070 H       1  LIG1        0.1654
     27 H          -1.3317   12.7931    0.0085 H       1  LIG1        0.0807
     28 H           2.1952   10.2693    0.0067 H       1  LIG1        0.0640
     29 H           1.3805   12.8630    0.0086 H       1  LIG1        0.0633
@<TRIPOS>BOND
     1     6     1    1
     2     7     2    1
     3     1     2   ar
     4     1     5   ar
     5     2     3   ar
     6     5     4   ar
     7     3     8    1
     8     3     4   ar
     9     4     9    1
    10     9    12   ar
    11     9    10   ar
    12    12    14   ar
    13    10    13   ar
    14    14    11   ar
    15    13    11   ar
    16    11    15    1
    17    15    18   ar
    18    15    16   ar
    19    18    20   ar
    20    16    19   ar
    21    20    17   ar
    22    19    17   ar
    23    17    21    1
    24    21    22   ar
    25    21    25   ar
    26    28    22    1
    27    22    23   ar
    28    26    25    1
    29    25    24   ar
    30    24    23   ar
    31    24    27    1
    32    23    29    1
