@<TRIPOS>MOLECULE
mol_data/opt/cam/geoms/mol2/5aa5aa-5aa-5aa-.out
 30 33 0 0 0
SMALL
GASTEIGER

@<TRIPOS>ATOM
      1 C          -1.8537   -2.0452   -0.1348 C.ar    1  LIG1       -0.0237
      2 C          -0.5490   -1.9544    0.2405 C.ar    1  LIG1       -0.0541
      3 C          -0.0857   -0.6106    0.2947 C.ar    1  LIG1       -0.0464
      4 C          -1.0434    0.3047   -0.0497 C.ar    1  LIG1        0.0259
      5 S          -2.5369   -0.4944   -0.4474 S.2     1  LIG1       -0.0961
      6 H          -2.4572   -2.9344   -0.2455 H       1  LIG1        0.0693
      7 H           0.0632   -2.8137    0.4843 H       1  LIG1        0.0623
      8 H           0.9122   -0.3239    0.6023 H       1  LIG1        0.0629
      9 C          -0.8950    1.7499   -0.1215 C.ar    1  LIG1        0.0265
     10 C           0.2323    2.4547   -0.4478 C.ar    1  LIG1       -0.0458
     11 C           0.0464    3.8597   -0.4168 C.ar    1  LIG1       -0.0458
     12 C          -1.2240    4.2317   -0.0661 C.ar    1  LIG1        0.0265
     13 S          -2.2048    2.8310    0.2533 S.2     1  LIG1       -0.0872
     14 H           1.1572    1.9732   -0.7399 H       1  LIG1        0.0629
     15 H           0.8125    4.5770   -0.6835 H       1  LIG1        0.0629
     16 C          -1.7421    5.5826    0.0660 C.ar    1  LIG1        0.0265
     17 C          -1.0486    6.7067    0.4273 C.ar    1  LIG1       -0.0458
     18 C          -1.8490    7.8764    0.4549 C.ar    1  LIG1       -0.0458
     19 C          -3.1555    7.6490    0.1155 C.ar    1  LIG1        0.0265
     20 S          -3.4046    5.9709   -0.2677 S.2     1  LIG1       -0.0872
     21 H          -0.0018    6.6837    0.7037 H       1  LIG1        0.0629
     22 H          -1.4852    8.8515    0.7540 H       1  LIG1        0.0629
     23 C          -4.2306    8.6256    0.0371 C.ar    1  LIG1        0.0259
     24 C          -4.1261    9.9477   -0.3015 C.ar    1  LIG1       -0.0464
     25 C          -5.3691   10.6381   -0.2565 C.ar    1  LIG1       -0.0541
     26 C          -6.4041    9.8329    0.1061 C.ar    1  LIG1       -0.0237
     27 S          -5.8796    8.2212    0.4179 S.2     1  LIG1       -0.0961
     28 H          -7.4482   10.0910    0.2080 H       1  LIG1        0.0693
     29 H          -3.1892   10.4021   -0.5987 H       1  LIG1        0.0629
     30 H          -5.4852   11.6874   -0.4977 H       1  LIG1        0.0623
@<TRIPOS>BOND
     1    14    10    1
     2    15    11    1
     3    29    24    1
     4    30    25    1
     5    10    11   ar
     6    10     9   ar
     7     5     1   ar
     8     5     4   ar
     9    11    12   ar
    10    24    25   ar
    11    24    23   ar
    12    20    16   ar
    13    20    19   ar
    14    25    26   ar
    15     6     1    1
    16     1     2   ar
    17     9     4    1
    18     9    13   ar
    19    12    16    1
    20    12    13   ar
    21     4     3   ar
    22    23    19    1
    23    23    27   ar
    24    16    17   ar
    25    26    28    1
    26    26    27   ar
    27    19    18   ar
    28     2     3   ar
    29     2     7    1
    30     3     8    1
    31    17    18   ar
    32    17    21    1
    33    18    22    1
