@<TRIPOS>MOLECULE
mol_data/opt/cam/geoms/mol2/5aa5aa-.out
 16 17 0 0 0
SMALL
GASTEIGER

@<TRIPOS>ATOM
      1 C          -2.0422   -1.8406   -0.0001 C.ar    1  LIG1       -0.0237
      2 C          -0.6825   -1.8101   -0.0005 C.ar    1  LIG1       -0.0541
      3 C          -0.1623   -0.4868   -0.0001 C.ar    1  LIG1       -0.0464
      4 C          -1.1334    0.4789    0.0007 C.ar    1  LIG1        0.0259
      5 S          -2.7122   -0.2529    0.0011 S.2     1  LIG1       -0.0961
      6 H          -2.6943   -2.7017   -0.0004 H       1  LIG1        0.0693
      7 H          -0.0649   -2.6997   -0.0012 H       1  LIG1        0.0623
      8 H           0.8963   -0.2594   -0.0004 H       1  LIG1        0.0629
      9 C          -0.9468    1.9236    0.0012 C.ar    1  LIG1        0.0259
     10 C           0.2379    2.6107    0.0013 C.ar    1  LIG1       -0.0464
     11 C           0.0711    4.0228    0.0020 C.ar    1  LIG1       -0.0541
     12 C          -1.2362    4.3978    0.0025 C.ar    1  LIG1       -0.0237
     13 S          -2.2878    3.0326    0.0018 S.2     1  LIG1       -0.0961
     14 H          -1.6481    5.3964    0.0031 H       1  LIG1        0.0693
     15 H           1.2039    2.1218    0.0009 H       1  LIG1        0.0629
     16 H           0.8944    4.7262    0.0022 H       1  LIG1        0.0623
@<TRIPOS>BOND
     1     7     2    1
     2     2     1   ar
     3     2     3   ar
     4     6     1    1
     5     8     3    1
     6     1     5   ar
     7     3     4   ar
     8     4     5   ar
     9     4     9    1
    10    15    10    1
    11     9    10   ar
    12     9    13   ar
    13    10    11   ar
    14    13    12   ar
    15    11    16    1
    16    11    12   ar
    17    12    14    1
