@<TRIPOS>MOLECULE
mol_data/opt/cam/geoms/mol2/5aa5aa.out
 16 17 0 0 0
SMALL
GASTEIGER

@<TRIPOS>ATOM
      1 C          -2.0000   -1.8413    0.2235 C.ar    1  LIG1       -0.0237
      2 C          -0.6957   -1.8060   -0.1613 C.ar    1  LIG1       -0.0541
      3 C          -0.1974   -0.4795   -0.2916 C.ar    1  LIG1       -0.0464
      4 C          -1.1281    0.4783    0.0052 C.ar    1  LIG1        0.0259
      5 S          -2.6397   -0.2574    0.4530 S.2     1  LIG1       -0.0961
      6 H          -2.6261   -2.7068    0.3853 H       1  LIG1        0.0693
      7 H          -0.1077   -2.6935   -0.3597 H       1  LIG1        0.0623
      8 H           0.8061   -0.2363   -0.6179 H       1  LIG1        0.0629
      9 C          -0.9414    1.9228   -0.0022 C.ar    1  LIG1        0.0259
     10 C           0.1972    2.6132    0.3116 C.ar    1  LIG1       -0.0464
     11 C           0.0545    4.0226    0.1760 C.ar    1  LIG1       -0.0541
     12 C          -1.1916    4.3874   -0.2297 C.ar    1  LIG1       -0.0237
     13 S          -2.2090    3.0175   -0.4728 S.2     1  LIG1       -0.0961
     14 H          -1.5745    5.3832   -0.3997 H       1  LIG1        0.0693
     15 H           1.1006    2.1237    0.6535 H       1  LIG1        0.0629
     16 H           0.8455    4.7319    0.3858 H       1  LIG1        0.0623
@<TRIPOS>BOND
     1     8     3    1
     2    13    12   ar
     3    13     9   ar
     4    14    12    1
     5     7     2    1
     6     3     2   ar
     7     3     4   ar
     8    12    11   ar
     9     2     1   ar
    10     9     4    1
    11     9    10   ar
    12     4     5   ar
    13    11    10   ar
    14    11    16    1
    15     1     6    1
    16     1     5   ar
    17    10    15    1
