@<TRIPOS>MOLECULE
mol_data/opt/cam/geoms/mol2/5aa5aa5aa-.out
 23 25 0 0 0
SMALL
GASTEIGER

@<TRIPOS>ATOM
      1 C          -1.9511   -1.9509    0.0229 C.ar    1  LIG1       -0.0237
      2 C          -0.6355   -1.8676   -0.3137 C.ar    1  LIG1       -0.0541
      3 C          -0.1548   -0.5288   -0.3226 C.ar    1  LIG1       -0.0464
      4 C          -1.1106    0.3900    0.0174 C.ar    1  LIG1        0.0259
      5 S          -2.6242   -0.3994    0.3541 S.2     1  LIG1       -0.0961
      6 H          -2.5680   -2.8348    0.0953 H       1  LIG1        0.0693
      7 H          -0.0270   -2.7285   -0.5612 H       1  LIG1        0.0623
      8 H           0.8546   -0.2473   -0.5955 H       1  LIG1        0.0629
      9 C          -0.9466    1.8312    0.1287 C.ar    1  LIG1        0.0265
     10 C           0.1784    2.5127    0.5072 C.ar    1  LIG1       -0.0458
     11 C           0.0108    3.9209    0.5043 C.ar    1  LIG1       -0.0458
     12 C          -1.2425    4.3178    0.1237 C.ar    1  LIG1        0.0265
     13 S          -2.2301    2.9386   -0.2607 S.2     1  LIG1       -0.0872
     14 H           1.0874    2.0121    0.8166 H       1  LIG1        0.0629
     15 H           0.7769    4.6220    0.8113 H       1  LIG1        0.0629
     16 C          -1.7400    5.6798    0.0066 C.ar    1  LIG1        0.0259
     17 C          -1.0264    6.7958   -0.3376 C.ar    1  LIG1       -0.0464
     18 C          -1.8078    7.9845   -0.3338 C.ar    1  LIG1       -0.0541
     19 C          -3.1064    7.7581    0.0031 C.ar    1  LIG1       -0.0237
     20 S          -3.3968    6.0933    0.3409 S.2     1  LIG1       -0.0961
     21 H          -3.9136    8.4728    0.0722 H       1  LIG1        0.0693
     22 H           0.0210    6.7580   -0.6098 H       1  LIG1        0.0629
     23 H          -1.4183    8.9631   -0.5850 H       1  LIG1        0.0623
@<TRIPOS>BOND
     1    22    17    1
     2     8     3    1
     3    23    18    1
     4     7     2    1
     5    17    18   ar
     6    17    16   ar
     7    18    19   ar
     8     3     2   ar
     9     3     4   ar
    10     2     1   ar
    11    13    12   ar
    12    13     9   ar
    13    19    21    1
    14    19    20   ar
    15    16    12    1
    16    16    20   ar
    17     4     9    1
    18     4     5   ar
    19     1     6    1
    20     1     5   ar
    21    12    11   ar
    22     9    10   ar
    23    11    10   ar
    24    11    15    1
    25    10    14    1
