@<TRIPOS>MOLECULE
mol_data/opt/cam/geoms/mol2/5aa5aa-5aa-.out
 23 25 0 0 0
SMALL
GASTEIGER

@<TRIPOS>ATOM
      1 C          -1.9479   -1.9511   -0.0614 C.ar    1  LIG1       -0.0237
      2 C          -0.6409   -1.8685    0.3076 C.ar    1  LIG1       -0.0541
      3 C          -0.1612   -0.5295    0.3331 C.ar    1  LIG1       -0.0464
      4 C          -1.1089    0.3902   -0.0268 C.ar    1  LIG1        0.0259
      5 S          -2.6134   -0.3986   -0.4033 S.2     1  LIG1       -0.0961
      6 H          -2.5625   -2.8349   -0.1520 H       1  LIG1        0.0693
      7 H          -0.0383   -2.7301    0.5667 H       1  LIG1        0.0623
      8 H           0.8411   -0.2487    0.6316 H       1  LIG1        0.0629
      9 C          -0.9429    1.8318   -0.1288 C.ar    1  LIG1        0.0265
     10 C           0.1907    2.5151   -0.4772 C.ar    1  LIG1       -0.0458
     11 C           0.0224    3.9232   -0.4732 C.ar    1  LIG1       -0.0458
     12 C          -1.2400    4.3182   -0.1218 C.ar    1  LIG1        0.0265
     13 S          -2.2360    2.9372    0.2332 S.2     1  LIG1       -0.0872
     14 H           1.1072    2.0160   -0.7662 H       1  LIG1        0.0629
     15 H           0.7954    4.6257   -0.7589 H       1  LIG1        0.0629
     16 C          -1.7409    5.6796   -0.0120 C.ar    1  LIG1        0.0259
     17 C          -1.0364    6.7946    0.3536 C.ar    1  LIG1       -0.0464
     18 C          -1.8180    7.9830    0.3351 C.ar    1  LIG1       -0.0541
     19 C          -3.1079    7.7574   -0.0343 C.ar    1  LIG1       -0.0237
     20 S          -3.3892    6.0937   -0.3851 S.2     1  LIG1       -0.0961
     21 H          -3.9135    8.4720   -0.1204 H       1  LIG1        0.0693
     22 H           0.0041    6.7562    0.6512 H       1  LIG1        0.0629
     23 H          -1.4352    8.9609    0.5994 H       1  LIG1        0.0623
@<TRIPOS>BOND
     1    14    10    1
     2    15    11    1
     3    10    11   ar
     4    10     9   ar
     5    11    12   ar
     6     5     1   ar
     7     5     4   ar
     8    20    19   ar
     9    20    16   ar
    10     6     1    1
    11     9     4    1
    12     9    13   ar
    13    12    16    1
    14    12    13   ar
    15    21    19    1
    16     1     2   ar
    17    19    18   ar
    18     4     3   ar
    19    16    17   ar
    20     2     3   ar
    21     2     7    1
    22     3     8    1
    23    18    17   ar
    24    18    23    1
    25    17    22    1
