@<TRIPOS>MOLECULE
mol_data/opt/cam/geoms/mol2/5aa5aa5aa-5aa-.out
 30 33 0 0 0
SMALL
GASTEIGER

@<TRIPOS>ATOM
      1 C          -1.8601   -2.0370    0.2038 C.ar    1  LIG1       -0.0237
      2 C          -0.5251   -1.9290    0.4432 C.ar    1  LIG1       -0.0541
      3 C          -0.0596   -0.5873    0.3617 C.ar    1  LIG1       -0.0464
      4 C          -1.0470    0.3085    0.0516 C.ar    1  LIG1        0.0259
      5 S          -2.5717   -0.5067   -0.1444 S.2     1  LIG1       -0.0961
      6 H          -2.4709   -2.9281    0.2124 H       1  LIG1        0.0693
      7 H           0.1085   -2.7737    0.6833 H       1  LIG1        0.0623
      8 H           0.9633   -0.2866    0.5507 H       1  LIG1        0.0629
      9 C          -0.9070    1.7448   -0.1311 C.ar    1  LIG1        0.0265
     10 C           0.1827    2.4191   -0.6125 C.ar    1  LIG1       -0.0458
     11 C           0.0000    3.8242   -0.6581 C.ar    1  LIG1       -0.0458
     12 C          -1.2301    4.2267   -0.2113 C.ar    1  LIG1        0.0265
     13 S          -2.1742    2.8566    0.2964 S.2     1  LIG1       -0.0872
     14 H           1.0745    1.9134   -0.9611 H       1  LIG1        0.0629
     15 H           0.7361    4.5171   -1.0463 H       1  LIG1        0.0629
     16 C          -1.7328    5.5870   -0.1197 C.ar    1  LIG1        0.0265
     17 C          -1.0058    6.7277    0.0931 C.ar    1  LIG1       -0.0458
     18 C          -1.7941    7.9061    0.0875 C.ar    1  LIG1       -0.0458
     19 C          -3.1274    7.6672   -0.1091 C.ar    1  LIG1        0.0265
     20 S          -3.4204    5.9644   -0.3106 S.2     1  LIG1       -0.0872
     21 H           0.0640    6.7163    0.2603 H       1  LIG1        0.0629
     22 H          -1.3922    8.9037    0.2131 H       1  LIG1        0.0629
     23 C          -4.2049    8.6444   -0.1311 C.ar    1  LIG1        0.0259
     24 C          -4.2737    9.8175    0.5707 C.ar    1  LIG1       -0.0464
     25 C          -5.4551   10.5631    0.3026 C.ar    1  LIG1       -0.0541
     26 C          -6.2741    9.9457   -0.5913 C.ar    1  LIG1       -0.0237
     27 S          -5.6110    8.4520   -1.1378 S.2     1  LIG1       -0.0961
     28 H          -7.2322   10.2799   -0.9620 H       1  LIG1        0.0693
     29 H          -3.5110   10.1210    1.2769 H       1  LIG1        0.0629
     30 H          -5.6878   11.5126    0.7684 H       1  LIG1        0.0623
@<TRIPOS>BOND
     1    27    26   ar
     2    27    23   ar
     3    15    11    1
     4    28    26    1
     5    14    10    1
     6    11    10   ar
     7    11    12   ar
     8    10     9   ar
     9    26    25   ar
    10    20    16   ar
    11    20    19   ar
    12    12    16    1
    13    12    13   ar
    14     5     4   ar
    15     5     1   ar
    16    23    19    1
    17    23    24   ar
    18     9     4    1
    19     9    13   ar
    20    16    17   ar
    21    19    18   ar
    22     4     3   ar
    23    18    17   ar
    24    18    22    1
    25    17    21    1
    26     1     6    1
    27     1     2   ar
    28    25    24   ar
    29    25    30    1
    30     3     2   ar
    31     3     8    1
    32     2     7    1
    33    24    29    1
