@<TRIPOS>MOLECULE
mol_data/opt/cam/geoms/mol2/5aa5aa-5aa5aa.out
 30 33 0 0 0
SMALL
GASTEIGER

@<TRIPOS>ATOM
      1 C          -1.8914   -2.0444    0.2263 C.ar    1  LIG1       -0.0237
      2 C          -0.5953   -1.9674   -0.1804 C.ar    1  LIG1       -0.0541
      3 C          -0.1252   -0.6275   -0.2649 C.ar    1  LIG1       -0.0464
      4 C          -1.0691    0.2988    0.0883 C.ar    1  LIG1        0.0259
      5 S          -2.5578   -0.4849    0.5322 S.2     1  LIG1       -0.0961
      6 H          -2.4976   -2.9280    0.3640 H       1  LIG1        0.0693
      7 H           0.0058   -2.8340   -0.4258 H       1  LIG1        0.0623
      8 H           0.8669   -0.3516   -0.5998 H       1  LIG1        0.0629
      9 C          -0.9103    1.7439    0.1356 C.ar    1  LIG1        0.0265
     10 C           0.2286    2.4461    0.4253 C.ar    1  LIG1       -0.0458
     11 C           0.0505    3.8516    0.3783 C.ar    1  LIG1       -0.0458
     12 C          -1.2254    4.2267    0.0518 C.ar    1  LIG1        0.0265
     13 S          -2.2219    2.8278   -0.2244 S.2     1  LIG1       -0.0872
     14 H           1.1571    1.9629    0.7029 H       1  LIG1        0.0629
     15 H           0.8270    4.5678    0.6166 H       1  LIG1        0.0629
     16 C          -1.7382    5.5788   -0.0878 C.ar    1  LIG1        0.0265
     17 C          -1.0465    6.6932   -0.4815 C.ar    1  LIG1       -0.0458
     18 C          -1.8402    7.8674   -0.5075 C.ar    1  LIG1       -0.0458
     19 C          -3.1399    7.6534   -0.1346 C.ar    1  LIG1        0.0265
     20 S          -3.3901    5.9826    0.2787 S.2     1  LIG1       -0.0872
     21 H          -0.0067    6.6595   -0.7818 H       1  LIG1        0.0629
     22 H          -1.4776    8.8357   -0.8292 H       1  LIG1        0.0629
     23 C          -4.2069    8.6379   -0.0455 C.ar    1  LIG1        0.0259
     24 C          -4.0866    9.9640    0.2714 C.ar    1  LIG1       -0.0464
     25 C          -5.3260   10.6616    0.2452 C.ar    1  LIG1       -0.0541
     26 C          -6.3741    9.8579   -0.0815 C.ar    1  LIG1       -0.0237
     27 S          -5.8667    8.2386   -0.3819 S.2     1  LIG1       -0.0961
     28 H          -7.4186   10.1212   -0.1629 H       1  LIG1        0.0693
     29 H          -3.1402   10.4166    0.5401 H       1  LIG1        0.0629
     30 H          -5.4301   11.7150    0.4737 H       1  LIG1        0.0623
@<TRIPOS>BOND
     1    22    18    1
     2    21    17    1
     3     8     3    1
     4    18    17   ar
     5    18    19   ar
     6    17    16   ar
     7     7     2    1
     8    27    26   ar
     9    27    23   ar
    10     3     2   ar
    11     3     4   ar
    12    13    12   ar
    13    13     9   ar
    14     2     1   ar
    15    28    26    1
    16    19    23    1
    17    19    20   ar
    18    16    12    1
    19    16    20   ar
    20    26    25   ar
    21    23    24   ar
    22    12    11   ar
    23     4     9    1
    24     4     5   ar
    25     9    10   ar
    26     1     6    1
    27     1     5   ar
    28    25    24   ar
    29    25    30    1
    30    24    29    1
    31    11    10   ar
    32    11    15    1
    33    10    14    1
