@<TRIPOS>MOLECULE
mol_data/opt/cam/geoms/mol2/5aa5aa5aa-5aa.out
 30 33 0 0 0
SMALL
GASTEIGER

@<TRIPOS>ATOM
      1 C          -1.8535   -2.0445    0.1413 C.ar    1  LIG1       -0.0237
      2 C          -0.5432   -1.9548   -0.2141 C.ar    1  LIG1       -0.0541
      3 C          -0.0795   -0.6111   -0.2670 C.ar    1  LIG1       -0.0464
      4 C          -1.0427    0.3054    0.0586 C.ar    1  LIG1        0.0259
      5 S          -2.5420   -0.4926    0.4366 S.2     1  LIG1       -0.0961
      6 H          -2.4583   -2.9334    0.2465 H       1  LIG1        0.0693
      7 H           0.0730   -2.8150   -0.4447 H       1  LIG1        0.0623
      8 H           0.9230   -0.3253   -0.5603 H       1  LIG1        0.0629
      9 C          -0.8959    1.7509    0.1264 C.ar    1  LIG1        0.0265
     10 C           0.2260    2.4575    0.4670 C.ar    1  LIG1       -0.0458
     11 C           0.0401    3.8623    0.4271 C.ar    1  LIG1       -0.0458
     12 C          -1.2248    4.2323    0.0551 C.ar    1  LIG1        0.0265
     13 S          -2.2001    2.8298   -0.2734 S.2     1  LIG1       -0.0872
     14 H           1.1464    1.9776    0.7756 H       1  LIG1        0.0629
     15 H           0.8018    4.5810    0.7025 H       1  LIG1        0.0629
     16 C          -1.7412    5.5824   -0.0909 C.ar    1  LIG1        0.0265
     17 C          -1.0425    6.7052   -0.4463 C.ar    1  LIG1       -0.0458
     18 C          -1.8427    7.8744   -0.4914 C.ar    1  LIG1       -0.0458
     19 C          -3.1543    7.6480   -0.1713 C.ar    1  LIG1        0.0265
     20 S          -3.4088    5.9716    0.2153 S.2     1  LIG1       -0.0872
     21 H           0.0084    6.6814   -0.7064 H       1  LIG1        0.0629
     22 H          -1.4747    8.8483   -0.7891 H       1  LIG1        0.0629
     23 C          -4.2308    8.6246   -0.1139 C.ar    1  LIG1        0.0259
     24 C          -4.1320    9.9482    0.2206 C.ar    1  LIG1       -0.0464
     25 C          -5.3743   10.6379    0.1534 C.ar    1  LIG1       -0.0541
     26 C          -6.4034    9.8307   -0.2217 C.ar    1  LIG1       -0.0237
     27 S          -5.8736    8.2179   -0.5184 S.2     1  LIG1       -0.0961
     28 H          -7.4458   10.0880   -0.3409 H       1  LIG1        0.0693
     29 H          -3.1999   10.4042    0.5303 H       1  LIG1        0.0629
     30 H          -5.4945   11.6881    0.3882 H       1  LIG1        0.0623
@<TRIPOS>BOND
     1    22    18    1
     2    21    17    1
     3     8     3    1
     4    27    26   ar
     5    27    23   ar
     6    18    17   ar
     7    18    19   ar
     8    17    16   ar
     9     7     2    1
    10    28    26    1
    11    13    12   ar
    12    13     9   ar
    13     3     2   ar
    14     3     4   ar
    15    26    25   ar
    16     2     1   ar
    17    19    23    1
    18    19    20   ar
    19    23    24   ar
    20    16    12    1
    21    16    20   ar
    22    12    11   ar
    23     4     9    1
    24     4     5   ar
    25     9    10   ar
    26     1     6    1
    27     1     5   ar
    28    25    24   ar
    29    25    30    1
    30    24    29    1
    31    11    10   ar
    32    11    15    1
    33    10    14    1
