@<TRIPOS>MOLECULE
mol_data/opt/cam/geoms/mol2/5aa5aa5aa.out
 23 25 0 0 0
SMALL
GASTEIGER

@<TRIPOS>ATOM
      1 C          -1.9500   -1.9510    0.0396 C.ar    1  LIG1       -0.0237
      2 C          -0.6372   -1.8682   -0.3082 C.ar    1  LIG1       -0.0541
      3 C          -0.1569   -0.5294   -0.3245 C.ar    1  LIG1       -0.0464
      4 C          -1.1099    0.3901    0.0214 C.ar    1  LIG1        0.0259
      5 S          -2.6205   -0.3987    0.3727 S.2     1  LIG1       -0.0961
      6 H          -2.5661   -2.8348    0.1193 H       1  LIG1        0.0693
      7 H          -0.0307   -2.7297   -0.5588 H       1  LIG1        0.0623
      8 H           0.8501   -0.2484   -0.6065 H       1  LIG1        0.0629
      9 C          -0.9453    1.8316    0.1279 C.ar    1  LIG1        0.0265
     10 C           0.1827    2.5141    0.4953 C.ar    1  LIG1       -0.0458
     11 C           0.0149    3.9223    0.4904 C.ar    1  LIG1       -0.0458
     12 C          -1.2416    4.3181    0.1193 C.ar    1  LIG1        0.0265
     13 S          -2.2322    2.9378   -0.2535 S.2     1  LIG1       -0.0872
     14 H           1.0944    2.0144    0.7983 H       1  LIG1        0.0629
     15 H           0.7834    4.6242    0.7893 H       1  LIG1        0.0629
     16 C          -1.7403    5.6797    0.0031 C.ar    1  LIG1        0.0259
     17 C          -1.0298    6.7950   -0.3498 C.ar    1  LIG1       -0.0464
     18 C          -1.8113    7.9836   -0.3423 C.ar    1  LIG1       -0.0541
     19 C          -3.1070    7.7579    0.0061 C.ar    1  LIG1       -0.0237
     20 S          -3.3943    6.0938    0.3502 S.2     1  LIG1       -0.0961
     21 H          -3.9137    8.4726    0.0802 H       1  LIG1        0.0693
     22 H           0.0153    6.7567   -0.6307 H       1  LIG1        0.0629
     23 H          -1.4241    8.9617   -0.5992 H       1  LIG1        0.0623
@<TRIPOS>BOND
     1    22    17    1
     2     8     3    1
     3    23    18    1
     4     7     2    1
     5    17    18   ar
     6    17    16   ar
     7    18    19   ar
     8     3     2   ar
     9     3     4   ar
    10     2     1   ar
    11    13    12   ar
    12    13     9   ar
    13    16    12    1
    14    16    20   ar
    15    19    21    1
    16    19    20   ar
    17     4     9    1
    18     4     5   ar
    19     1     6    1
    20     1     5   ar
    21    12    11   ar
    22     9    10   ar
    23    11    10   ar
    24    11    15    1
    25    10    14    1
