@<TRIPOS>MOLECULE
mol_data/opt/cam/geoms/mol2/5aa5aa-5aa5aa-.out
 30 33 0 0 0
SMALL
GASTEIGER

@<TRIPOS>ATOM
      1 C          -1.9603   -2.0141    0.0002 C.ar    1  LIG1       -0.0237
      2 C          -0.6004   -1.9774   -0.0008 C.ar    1  LIG1       -0.0541
      3 C          -0.0860   -0.6525   -0.0006 C.ar    1  LIG1       -0.0464
      4 C          -1.0625    0.3094    0.0007 C.ar    1  LIG1        0.0259
      5 S          -2.6380   -0.4299    0.0017 S.2     1  LIG1       -0.0961
      6 H          -2.6084   -2.8782    0.0003 H       1  LIG1        0.0693
      7 H           0.0209   -2.8643   -0.0018 H       1  LIG1        0.0623
      8 H           0.9715   -0.4206   -0.0013 H       1  LIG1        0.0629
      9 C          -0.8817    1.7517    0.0013 C.ar    1  LIG1        0.0265
     10 C           0.2993    2.4474    0.0010 C.ar    1  LIG1       -0.0458
     11 C           0.1293    3.8518    0.0017 C.ar    1  LIG1       -0.0458
     12 C          -1.1845    4.2446    0.0026 C.ar    1  LIG1        0.0265
     13 S          -2.2282    2.8528    0.0025 S.2     1  LIG1       -0.0872
     14 H           1.2684    1.9647    0.0003 H       1  LIG1        0.0629
     15 H           0.9550    4.5520    0.0016 H       1  LIG1        0.0629
     16 C          -1.7035    5.5996    0.0035 C.ar    1  LIG1        0.0265
     17 C          -0.9884    6.7696    0.0037 C.ar    1  LIG1       -0.0458
     18 C          -1.8001    7.9282    0.0046 C.ar    1  LIG1       -0.0458
     19 C          -3.1436    7.6569    0.0051 C.ar    1  LIG1        0.0265
     20 S          -3.4100    5.9380    0.0043 S.2     1  LIG1       -0.0872
     21 H           0.0939    6.8002    0.0033 H       1  LIG1        0.0629
     22 H          -1.4014    8.9348    0.0050 H       1  LIG1        0.0629
     23 C          -4.2417    8.6094    0.0060 C.ar    1  LIG1        0.0259
     24 C          -4.1577    9.9775    0.0066 C.ar    1  LIG1       -0.0464
     25 C          -5.4255   10.6197    0.0075 C.ar    1  LIG1       -0.0541
     26 C          -6.4620    9.7385    0.0076 C.ar    1  LIG1       -0.0237
     27 S          -5.9079    8.1070    0.0065 S.2     1  LIG1       -0.0961
     28 H          -7.5215    9.9486    0.0082 H       1  LIG1        0.0693
     29 H          -3.2158   10.5114    0.0064 H       1  LIG1        0.0629
     30 H          -5.5557   11.6947    0.0081 H       1  LIG1        0.0623
@<TRIPOS>BOND
     1     7     2    1
     2     8     3    1
     3     2     3   ar
     4     2     1   ar
     5     3     4   ar
     6     1     6    1
     7     1     5   ar
     8    14    10    1
     9     4     9    1
    10     4     5   ar
    11    10     9   ar
    12    10    11   ar
    13     9    13   ar
    14    15    11    1
    15    11    12   ar
    16    13    12   ar
    17    12    16    1
    18    21    17    1
    19    16    17   ar
    20    16    20   ar
    21    17    18   ar
    22    20    19   ar
    23    18    22    1
    24    18    19   ar
    25    19    23    1
    26    23    27   ar
    27    23    24   ar
    28    29    24    1
    29    27    26   ar
    30    24    25   ar
    31    25    26   ar
    32    25    30    1
    33    26    28    1
