@<TRIPOS>MOLECULE
mol_data/opt/cam/geoms/mol2/5aa5aa-5aa.out
 23 25 0 0 0
SMALL
GASTEIGER

@<TRIPOS>ATOM
      1 C          -2.0164   -1.9340    0.0002 C.ar    1  LIG1       -0.0237
      2 C          -0.6564   -1.9004   -0.0008 C.ar    1  LIG1       -0.0541
      3 C          -0.1391   -0.5766   -0.0005 C.ar    1  LIG1       -0.0464
      4 C          -1.1133    0.3873    0.0006 C.ar    1  LIG1        0.0259
      5 S          -2.6905   -0.3483    0.0011 S.2     1  LIG1       -0.0961
      6 H          -2.6665   -2.7966    0.0003 H       1  LIG1        0.0693
      7 H          -0.0371   -2.7887   -0.0016 H       1  LIG1        0.0623
      8 H           0.9191   -0.3471   -0.0011 H       1  LIG1        0.0629
      9 C          -0.9292    1.8296    0.0013 C.ar    1  LIG1        0.0265
     10 C           0.2530    2.5222    0.0013 C.ar    1  LIG1       -0.0458
     11 C           0.0854    3.9276    0.0020 C.ar    1  LIG1       -0.0458
     12 C          -1.2265    4.3229    0.0026 C.ar    1  LIG1        0.0265
     13 S          -2.2733    2.9337    0.0023 S.2     1  LIG1       -0.0872
     14 H           1.2211    2.0375    0.0007 H       1  LIG1        0.0629
     15 H           0.9125    4.6263    0.0020 H       1  LIG1        0.0629
     16 C          -1.7445    5.6815    0.0035 C.ar    1  LIG1        0.0259
     17 C          -1.0242    6.8474    0.0039 C.ar    1  LIG1       -0.0464
     18 C          -1.8382    8.0125    0.0046 C.ar    1  LIG1       -0.0541
     19 C          -3.1680    7.7254    0.0046 C.ar    1  LIG1       -0.0237
     20 S          -3.4504    6.0257    0.0042 S.2     1  LIG1       -0.0961
     21 H          -4.0027    8.4110    0.0050 H       1  LIG1        0.0693
     22 H           0.0583    6.8731    0.0037 H       1  LIG1        0.0629
     23 H          -1.4451    9.0215    0.0050 H       1  LIG1        0.0623
@<TRIPOS>BOND
     1     7     2    1
     2     8     3    1
     3     2     3   ar
     4     2     1   ar
     5     3     4   ar
     6     1     6    1
     7     1     5   ar
     8     4     5   ar
     9     4     9    1
    10    14    10    1
    11    10     9   ar
    12    10    11   ar
    13     9    13   ar
    14    11    15    1
    15    11    12   ar
    16    13    12   ar
    17    12    16    1
    18    16    17   ar
    19    16    20   ar
    20    22    17    1
    21    17    18   ar
    22    20    19   ar
    23    18    19   ar
    24    18    23    1
    25    19    21    1
