@<TRIPOS>MOLECULE
mol_data/opt/cam/geoms/mol2/5aa5aa5aa5aa-.out
 30 33 0 0 0
SMALL
GASTEIGER

@<TRIPOS>ATOM
      1 C          -1.8550   -2.0448    0.1359 C.ar    1  LIG1       -0.0237
      2 C          -0.5459   -1.9550   -0.2240 C.ar    1  LIG1       -0.0541
      3 C          -0.0820   -0.6113   -0.2765 C.ar    1  LIG1       -0.0464
      4 C          -1.0438    0.3049    0.0537 C.ar    1  LIG1        0.0259
      5 S          -2.5420   -0.4932    0.4358 S.2     1  LIG1       -0.0961
      6 H          -2.4598   -2.9337    0.2420 H       1  LIG1        0.0693
      7 H           0.0691   -2.8150   -0.4580 H       1  LIG1        0.0623
      8 H           0.9195   -0.3255   -0.5730 H       1  LIG1        0.0629
      9 C          -0.8963    1.7503    0.1231 C.ar    1  LIG1        0.0265
     10 C           0.2270    2.4561    0.4608 C.ar    1  LIG1       -0.0458
     11 C           0.0414    3.8610    0.4236 C.ar    1  LIG1       -0.0458
     12 C          -1.2247    4.2319    0.0566 C.ar    1  LIG1        0.0265
     13 S          -2.2016    2.8302   -0.2705 S.2     1  LIG1       -0.0872
     14 H           1.1483    1.9755    0.7655 H       1  LIG1        0.0629
     15 H           0.8042    4.5791    0.6973 H       1  LIG1        0.0629
     16 C          -1.7412    5.5824   -0.0856 C.ar    1  LIG1        0.0265
     17 C          -1.0434    6.7055   -0.4418 C.ar    1  LIG1       -0.0458
     18 C          -1.8434    7.8750   -0.4824 C.ar    1  LIG1       -0.0458
     19 C          -3.1540    7.6486   -0.1581 C.ar    1  LIG1        0.0265
     20 S          -3.4076    5.9716    0.2270 S.2     1  LIG1       -0.0872
     21 H           0.0066    6.6818   -0.7056 H       1  LIG1        0.0629
     22 H          -1.4761    8.8493   -0.7800 H       1  LIG1        0.0629
     23 C          -4.2299    8.6254   -0.0954 C.ar    1  LIG1        0.0259
     24 C          -4.1296    9.9485    0.2407 C.ar    1  LIG1       -0.0464
     25 C          -5.3719   10.6386    0.1788 C.ar    1  LIG1       -0.0541
     26 C          -6.4025    9.8323   -0.1939 C.ar    1  LIG1       -0.0237
     27 S          -5.8742    8.2198   -0.4948 S.2     1  LIG1       -0.0961
     28 H          -7.4453   10.0901   -0.3091 H       1  LIG1        0.0693
     29 H          -3.1963   10.4037    0.5477 H       1  LIG1        0.0629
     30 H          -5.4910   11.6886    0.4155 H       1  LIG1        0.0623
@<TRIPOS>BOND
     1    22    18    1
     2    21    17    1
     3     8     3    1
     4    27    26   ar
     5    27    23   ar
     6    18    17   ar
     7    18    19   ar
     8     7     2    1
     9    17    16   ar
    10    28    26    1
    11     3     2   ar
    12     3     4   ar
    13    13    12   ar
    14    13     9   ar
    15     2     1   ar
    16    26    25   ar
    17    19    23    1
    18    19    20   ar
    19    23    24   ar
    20    16    12    1
    21    16    20   ar
    22     4     9    1
    23     4     5   ar
    24    12    11   ar
    25     9    10   ar
    26     1     6    1
    27     1     5   ar
    28    25    24   ar
    29    25    30    1
    30    24    29    1
    31    11    10   ar
    32    11    15    1
    33    10    14    1
