@<TRIPOS>MOLECULE
mol_data/opt/cam/geoms/mol2/5aa5aa5aa5aa.out
 30 33 0 0 0
SMALL
GASTEIGER

@<TRIPOS>ATOM
      1 C          -1.8554   -2.0450    0.1302 C.ar    1  LIG1       -0.0237
      2 C          -0.5455   -1.9548   -0.2268 C.ar    1  LIG1       -0.0541
      3 C          -0.0815   -0.6110   -0.2767 C.ar    1  LIG1       -0.0464
      4 C          -1.0440    0.3049    0.0525 C.ar    1  LIG1        0.0259
      5 S          -2.5430   -0.4937    0.4305 S.2     1  LIG1       -0.0961
      6 H          -2.4604   -2.9340    0.2339 H       1  LIG1        0.0693
      7 H           0.0700   -2.8145   -0.4604 H       1  LIG1        0.0623
      8 H           0.9206   -0.3248   -0.5707 H       1  LIG1        0.0629
      9 C          -0.8966    1.7502    0.1239 C.ar    1  LIG1        0.0265
     10 C           0.2259    2.4555    0.4649 C.ar    1  LIG1       -0.0458
     11 C           0.0404    3.8604    0.4289 C.ar    1  LIG1       -0.0458
     12 C          -1.2249    4.2318    0.0596 C.ar    1  LIG1        0.0265
     13 S          -2.2011    2.8305   -0.2713 S.2     1  LIG1       -0.0872
     14 H           1.1466    1.9745    0.7710 H       1  LIG1        0.0629
     15 H           0.8027    4.5782    0.7052 H       1  LIG1        0.0629
     16 C          -1.7411    5.5824   -0.0821 C.ar    1  LIG1        0.0265
     17 C          -1.0425    6.7060   -0.4355 C.ar    1  LIG1       -0.0458
     18 C          -1.8424    7.8756   -0.4765 C.ar    1  LIG1       -0.0458
     19 C          -3.1537    7.6488   -0.1553 C.ar    1  LIG1        0.0265
     20 S          -3.4081    5.9713    0.2273 S.2     1  LIG1       -0.0872
     21 H           0.0080    6.6826   -0.6971 H       1  LIG1        0.0629
     22 H          -1.4745    8.8502   -0.7721 H       1  LIG1        0.0629
     23 C          -4.2298    8.6255   -0.0938 C.ar    1  LIG1        0.0259
     24 C          -4.1301    9.9482    0.2441 C.ar    1  LIG1       -0.0464
     25 C          -5.3723   10.6384    0.1803 C.ar    1  LIG1       -0.0541
     26 C          -6.4021    9.8325   -0.1956 C.ar    1  LIG1       -0.0237
     27 S          -5.8732    8.2204   -0.4972 S.2     1  LIG1       -0.0961
     28 H          -7.4446   10.0904   -0.3127 H       1  LIG1        0.0693
     29 H          -3.1975   10.4030    0.5537 H       1  LIG1        0.0629
     30 H          -5.4919   11.6881    0.4179 H       1  LIG1        0.0623
@<TRIPOS>BOND
     1    22    18    1
     2    21    17    1
     3     8     3    1
     4    27    26   ar
     5    27    23   ar
     6    18    17   ar
     7    18    19   ar
     8     7     2    1
     9    17    16   ar
    10    28    26    1
    11     3     2   ar
    12     3     4   ar
    13    13    12   ar
    14    13     9   ar
    15     2     1   ar
    16    26    25   ar
    17    19    23    1
    18    19    20   ar
    19    23    24   ar
    20    16    12    1
    21    16    20   ar
    22     4     9    1
    23     4     5   ar
    24    12    11   ar
    25     9    10   ar
    26     1     6    1
    27     1     5   ar
    28    25    24   ar
    29    25    30    1
    30    24    29    1
    31    11    10   ar
    32    11    15    1
    33    10    14    1
