@<TRIPOS>MOLECULE
mol_data/opt/cam/geoms/mol2/5ad.out
 10 10 0 0 0
SMALL
GASTEIGER

@<TRIPOS>ATOM
      1 C          -2.0804   -1.7548   -0.0001 C.ar    1  LIG1       -0.0231
      2 C          -0.7237   -1.7371   -0.0005 C.ar    1  LIG1       -0.0373
      3 C          -0.2029   -0.4025   -0.0003 C.ar    1  LIG1        0.0588
      4 C          -1.1866    0.5491    0.0005 C.ar    1  LIG1       -0.0070
      5 S          -2.7448   -0.1617    0.0008 S.2     1  LIG1       -0.1038
      6 H          -2.7343   -2.6144   -0.0002 H       1  LIG1        0.0694
      7 H          -1.0617    1.6218    0.0008 H       1  LIG1        0.0706
      8 H          -0.1004   -2.6214   -0.0011 H       1  LIG1        0.0636
      9 N           2.3220    0.1542   -0.0010 N.1     1  LIG1       -0.1909
     10 C           1.1914   -0.0902   -0.0007 C.1     1  LIG1        0.0997
@<TRIPOS>BOND
     1     8     2    1
     2     9    10    3
     3    10     3    1
     4     2     3   ar
     5     2     1   ar
     6     3     4   ar
     7     6     1    1
     8     1     5   ar
     9     4     5   ar
    10     4     7    1
