@<TRIPOS>MOLECULE
mol_data/opt/cam/geoms/mol2/5ad5ad-5ad5ad-.out
 34 37 0 0 0
SMALL
GASTEIGER

@<TRIPOS>ATOM
      1 C          -2.1941   -1.8981    0.0005 C.ar    1  LIG1       -0.0225
      2 C          -0.8420   -1.9898   -0.0004 C.ar    1  LIG1       -0.0367
      3 C          -0.2076   -0.7090   -0.0003 C.ar    1  LIG1        0.0670
      4 C          -1.1009    0.3471    0.0008 C.ar    1  LIG1        0.0433
      5 S          -2.7247   -0.2598    0.0016 S.2     1  LIG1       -0.0948
      6 H          -2.9183   -2.6994    0.0006 H       1  LIG1        0.0694
      7 H          -0.2913   -2.9210   -0.0012 H       1  LIG1        0.0636
      8 N           2.3625   -0.4547   -0.0020 N.1     1  LIG1       -0.1908
      9 C           1.2104   -0.5663   -0.0012 C.1     1  LIG1        0.1003
     10 C          -0.8306    1.7750    0.0012 C.ar    1  LIG1        0.0290
     11 C           0.3734    2.4237    0.0009 C.ar    1  LIG1       -0.0284
     12 C           0.2450    3.8406    0.0015 C.ar    1  LIG1        0.0676
     13 C          -1.0659    4.2829    0.0024 C.ar    1  LIG1        0.0439
     14 S          -2.1407    2.9259    0.0024 S.2     1  LIG1       -0.0859
     15 H           1.3334    1.9272    0.0002 H       1  LIG1        0.0642
     16 N           2.2996    5.4061    0.0012 N.1     1  LIG1       -0.1908
     17 C           1.3813    4.7019    0.0013 C.1     1  LIG1        0.1003
     18 C          -1.5777    5.6402    0.0032 C.ar    1  LIG1        0.0290
     19 C          -0.8856    6.8206    0.0034 C.ar    1  LIG1       -0.0284
     20 C          -1.7322    7.9636    0.0043 C.ar    1  LIG1        0.0676
     21 C          -3.0820    7.6605    0.0048 C.ar    1  LIG1        0.0439
     22 S          -3.2953    5.9430    0.0042 S.2     1  LIG1       -0.0859
     23 H           0.1926    6.8955    0.0028 H       1  LIG1        0.0642
     24 N          -0.7829   10.3662    0.0048 N.1     1  LIG1       -0.1908
     25 C          -1.2068    9.2895    0.0046 C.1     1  LIG1        0.1003
     26 C          -4.2278    8.5538    0.0058 C.ar    1  LIG1        0.0284
     27 C          -4.2447    9.9238    0.0062 C.ar    1  LIG1       -0.0290
     28 C          -5.5680   10.4551    0.0072 C.ar    1  LIG1        0.0594
     29 C          -6.5345    9.4859    0.0075 C.ar    1  LIG1       -0.0063
     30 S          -5.8548    7.9189    0.0066 S.2     1  LIG1       -0.0948
     31 H          -7.6056    9.6251    0.0082 H       1  LIG1        0.0706
     32 H          -3.3608   10.5455    0.0058 H       1  LIG1        0.0642
     33 N          -6.1121   12.9829    0.0082 N.1     1  LIG1       -0.1909
     34 C          -5.8661   11.8532    0.0077 C.1     1  LIG1        0.0997
@<TRIPOS>BOND
     1     8     9    3
     2     7     2    1
     3     9     3    1
     4     2     3   ar
     5     2     1   ar
     6     3     4   ar
     7    15    11    1
     8     1     6    1
     9     1     5   ar
    10     4    10    1
    11     4     5   ar
    12    11    10   ar
    13    11    12   ar
    14    16    17    3
    15    10    14   ar
    16    17    12    1
    17    12    13   ar
    18    14    13   ar
    19    13    18    1
    20    23    19    1
    21    18    19   ar
    22    18    22   ar
    23    19    20   ar
    24    22    21   ar
    25    20    25    1
    26    20    21   ar
    27    25    24    3
    28    21    26    1
    29    26    27   ar
    30    26    30   ar
    31    32    27    1
    32    27    28   ar
    33    30    29   ar
    34    28    29   ar
    35    28    34    1
    36    29    31    1
    37    34    33    3
