@<TRIPOS>MOLECULE
mol_data/opt/cam/geoms/mol2/5ad5ad5ad5ad-.out
 34 37 0 0 0
SMALL
GASTEIGER

@<TRIPOS>ATOM
      1 C          -2.0894   -1.9514    0.1395 C.ar    1  LIG1       -0.0225
      2 C          -0.7630   -1.9839   -0.1405 C.ar    1  LIG1       -0.0367
      3 C          -0.1822   -0.6784   -0.1765 C.ar    1  LIG1        0.0670
      4 C          -1.0888    0.3296    0.0864 C.ar    1  LIG1        0.0433
      5 S          -2.6562   -0.3432    0.3839 S.2     1  LIG1       -0.0948
      6 H          -2.7733   -2.7833    0.2224 H       1  LIG1        0.0694
      7 H          -0.1988   -2.8880   -0.3261 H       1  LIG1        0.0636
      8 N           2.3154   -0.2751   -0.6992 N.1     1  LIG1       -0.1908
      9 C           1.1948   -0.4524   -0.4713 C.1     1  LIG1        0.1003
     10 C          -0.8553    1.7631    0.1356 C.ar    1  LIG1        0.0290
     11 C           0.3030    2.4240    0.4315 C.ar    1  LIG1       -0.0284
     12 C           0.1589    3.8398    0.3940 C.ar    1  LIG1        0.0676
     13 C          -1.1163    4.2574    0.0646 C.ar    1  LIG1        0.0439
     14 S          -2.1344    2.8892   -0.2258 S.2     1  LIG1       -0.0859
     15 H           1.2325    1.9333    0.6855 H       1  LIG1        0.0642
     16 N           2.0965    5.4585    0.9430 N.1     1  LIG1       -0.1908
     17 C           1.2290    4.7319    0.7018 C.1     1  LIG1        0.1003
     18 C          -1.6228    5.6116   -0.0587 C.ar    1  LIG1        0.0290
     19 C          -0.9290    6.7542   -0.3442 C.ar    1  LIG1       -0.0284
     20 C          -1.7611    7.9076   -0.4000 C.ar    1  LIG1        0.0676
     21 C          -3.0940    7.6413   -0.1536 C.ar    1  LIG1        0.0439
     22 S          -3.3145    5.9582    0.1761 S.2     1  LIG1       -0.0859
     23 H           0.1361    6.7874   -0.5280 H       1  LIG1        0.0642
     24 N          -0.8507   10.2601   -0.9599 N.1     1  LIG1       -0.1908
     25 C          -1.2584    9.2058   -0.7138 C.1     1  LIG1        0.1003
     26 C          -4.2154    8.5646   -0.1338 C.ar    1  LIG1        0.0284
     27 C          -4.2013    9.9037    0.1440 C.ar    1  LIG1       -0.0290
     28 C          -5.5000   10.4895    0.0703 C.ar    1  LIG1        0.0594
     29 C          -6.4754    9.5866   -0.2586 C.ar    1  LIG1       -0.0063
     30 S          -5.8325    8.0212   -0.4970 S.2     1  LIG1       -0.0948
     31 H          -7.5323    9.7761   -0.3756 H       1  LIG1        0.0706
     32 H          -3.3109   10.4612    0.4000 H       1  LIG1        0.0642
     33 N          -5.9901   12.9855    0.5345 N.1     1  LIG1       -0.1909
     34 C          -5.7688   11.8701    0.3251 C.1     1  LIG1        0.0997
@<TRIPOS>BOND
     1    24    25    3
     2    25    20    1
     3     8     9    3
     4    23    19    1
     5    30    29   ar
     6    30    26   ar
     7     9     3    1
     8    20    19   ar
     9    20    21   ar
    10    31    29    1
    11    19    18   ar
    12     7     2    1
    13    29    28   ar
    14    14    13   ar
    15    14    10   ar
    16     3     2   ar
    17     3     4   ar
    18    21    26    1
    19    21    22   ar
    20     2     1   ar
    21    26    27   ar
    22    18    13    1
    23    18    22   ar
    24    13    12   ar
    25    28    27   ar
    26    28    34    1
    27     4    10    1
    28     4     5   ar
    29    10    11   ar
    30     1     6    1
    31     1     5   ar
    32    27    32    1
    33    34    33    3
    34    12    11   ar
    35    12    17    1
    36    11    15    1
    37    17    16    3
