@<TRIPOS>MOLECULE
mol_data/opt/cam/geoms/mol2/5ad5ad5ad-5ad.out
 34 37 0 0 0
SMALL
GASTEIGER

@<TRIPOS>ATOM
      1 C          -2.0889   -1.9515    0.1317 C.ar    1  LIG1       -0.0225
      2 C          -0.7609   -1.9836   -0.1410 C.ar    1  LIG1       -0.0367
      3 C          -0.1802   -0.6780   -0.1731 C.ar    1  LIG1        0.0670
      4 C          -1.0884    0.3297    0.0853 C.ar    1  LIG1        0.0433
      5 S          -2.6574   -0.3435    0.3737 S.2     1  LIG1       -0.0948
      6 H          -2.7730   -2.7836    0.2105 H       1  LIG1        0.0694
      7 H          -0.1955   -2.8876   -0.3239 H       1  LIG1        0.0636
      8 N           2.3202   -0.2740   -0.6818 N.1     1  LIG1       -0.1908
      9 C           1.1984   -0.4516   -0.4602 C.1     1  LIG1        0.1003
     10 C          -0.8555    1.7632    0.1364 C.ar    1  LIG1        0.0290
     11 C           0.3011    2.4242    0.4390 C.ar    1  LIG1       -0.0284
     12 C           0.1569    3.8401    0.4013 C.ar    1  LIG1        0.0676
     13 C          -1.1166    4.2575    0.0652 C.ar    1  LIG1        0.0439
     14 S          -2.1328    2.8893   -0.2316 S.2     1  LIG1       -0.0859
     15 H           1.2292    1.9336    0.6979 H       1  LIG1        0.0642
     16 N           2.0911    5.4588    0.9618 N.1     1  LIG1       -0.1908
     17 C           1.2251    4.7322    0.7155 C.1     1  LIG1        0.1003
     18 C          -1.6227    5.6117   -0.0603 C.ar    1  LIG1        0.0290
     19 C          -0.9275    6.7545   -0.3414 C.ar    1  LIG1       -0.0284
     20 C          -1.7596    7.9078   -0.4013 C.ar    1  LIG1        0.0676
     21 C          -3.0937    7.6411   -0.1624 C.ar    1  LIG1        0.0439
     22 S          -3.3157    5.9578    0.1653 S.2     1  LIG1       -0.0859
     23 H           0.1385    6.7880   -0.5194 H       1  LIG1        0.0642
     24 N          -0.8466   10.2608   -0.9551 N.1     1  LIG1       -0.1908
     25 C          -1.2554    9.2063   -0.7117 C.1     1  LIG1        0.1003
     26 C          -4.2154    8.5642   -0.1484 C.ar    1  LIG1        0.0284
     27 C          -4.2031    9.9032    0.1302 C.ar    1  LIG1       -0.0290
     28 C          -5.5016   10.4887    0.0496 C.ar    1  LIG1        0.0594
     29 C          -6.4749    9.5858   -0.2852 C.ar    1  LIG1       -0.0063
     30 S          -5.8304    8.0206   -0.5208 S.2     1  LIG1       -0.0948
     31 H          -7.5311    9.7752   -0.4079 H       1  LIG1        0.0706
     32 H          -3.3143   10.4607    0.3914 H       1  LIG1        0.0642
     33 N          -5.9946   12.9844    0.5122 N.1     1  LIG1       -0.1909
     34 C          -5.7720   11.8691    0.3035 C.1     1  LIG1        0.0997
@<TRIPOS>BOND
     1    24    25    3
     2    25    20    1
     3     8     9    3
     4    30    29   ar
     5    30    26   ar
     6    23    19    1
     7     9     3    1
     8    31    29    1
     9    20    19   ar
    10    20    21   ar
    11    19    18   ar
    12     7     2    1
    13    29    28   ar
    14    14    13   ar
    15    14    10   ar
    16     3     2   ar
    17     3     4   ar
    18    21    26    1
    19    21    22   ar
    20    26    27   ar
    21     2     1   ar
    22    18    13    1
    23    18    22   ar
    24    28    27   ar
    25    28    34    1
    26    13    12   ar
    27     4    10    1
    28     4     5   ar
    29    27    32    1
    30     1     6    1
    31     1     5   ar
    32    10    11   ar
    33    34    33    3
    34    12    11   ar
    35    12    17    1
    36    11    15    1
    37    17    16    3
