@<TRIPOS>MOLECULE
mol_data/opt/cam/geoms/mol2/5ad5ad-.out
 18 19 0 0 0
SMALL
GASTEIGER

@<TRIPOS>ATOM
      1 C          -2.1085   -1.8392    0.0002 C.ar    1  LIG1       -0.0225
      2 C          -0.7539   -1.8572   -0.0006 C.ar    1  LIG1       -0.0367
      3 C          -0.1898   -0.5430   -0.0003 C.ar    1  LIG1        0.0670
      4 C          -1.1380    0.4630    0.0007 C.ar    1  LIG1        0.0432
      5 S          -2.7263   -0.2313    0.0012 S.2     1  LIG1       -0.0948
      6 H          -2.7883   -2.6784    0.0001 H       1  LIG1        0.0694
      7 H          -0.1529   -2.7569   -0.0013 H       1  LIG1        0.0636
      8 N           2.3648   -0.1621   -0.0015 N.1     1  LIG1       -0.1908
      9 C           1.2191   -0.3272   -0.0010 C.1     1  LIG1        0.1003
     10 C          -0.9477    1.9065    0.0012 C.ar    1  LIG1        0.0284
     11 C           0.2227    2.6163    0.0011 C.ar    1  LIG1       -0.0290
     12 C           0.0090    4.0273    0.0018 C.ar    1  LIG1        0.0594
     13 C          -1.3160    4.3684    0.0023 C.ar    1  LIG1       -0.0063
     14 S          -2.3203    2.9860    0.0021 S.2     1  LIG1       -0.0948
     15 H          -1.7399    5.3618    0.0029 H       1  LIG1        0.0706
     16 H           1.2070    2.1702    0.0006 H       1  LIG1        0.0642
     17 N           1.9122    5.7777    0.0019 N.1     1  LIG1       -0.1909
     18 C           1.0627    4.9932    0.0018 C.1     1  LIG1        0.0997
@<TRIPOS>BOND
     1     8     9    3
     2     7     2    1
     3     9     3    1
     4     2     3   ar
     5     2     1   ar
     6     3     4   ar
     7     6     1    1
     8     1     5   ar
     9    16    11    1
    10     4    10    1
    11     4     5   ar
    12    11    10   ar
    13    11    12   ar
    14    10    14   ar
    15    12    18    1
    16    12    13   ar
    17    18    17    3
    18    14    13   ar
    19    13    15    1
