@<TRIPOS>MOLECULE
mol_data/opt/cam/geoms/mol2/5ad5ad5ad-.out
 26 28 0 0 0
SMALL
GASTEIGER

@<TRIPOS>ATOM
      1 C          -2.0522   -1.9188    0.1745 C.ar    1  LIG1       -0.0225
      2 C          -0.7409   -1.9242   -0.1703 C.ar    1  LIG1       -0.0367
      3 C          -0.1856   -0.6080   -0.2206 C.ar    1  LIG1        0.0670
      4 C          -1.0957    0.3809    0.0971 C.ar    1  LIG1        0.0433
      5 S          -2.6345   -0.3234    0.4638 S.2     1  LIG1       -0.0948
      6 H          -2.7165   -2.7637    0.2815 H       1  LIG1        0.0694
      7 H          -0.1704   -2.8160   -0.3930 H       1  LIG1        0.0636
      8 N           2.2762   -0.1572   -0.8612 N.1     1  LIG1       -0.1908
      9 C           1.1711   -0.3551   -0.5803 C.1     1  LIG1        0.1003
     10 C          -0.8864    1.8180    0.1503 C.ar    1  LIG1        0.0290
     11 C           0.2731    2.4975    0.3940 C.ar    1  LIG1       -0.0284
     12 C           0.1005    3.9111    0.3810 C.ar    1  LIG1        0.0676
     13 C          -1.1971    4.3074    0.1237 C.ar    1  LIG1        0.0439
     14 S          -2.2029    2.9238   -0.1313 S.2     1  LIG1       -0.0859
     15 H           1.2235    2.0221    0.5942 H       1  LIG1        0.0642
     16 N           2.0369    5.5570    0.8482 N.1     1  LIG1       -0.1908
     17 C           1.1689    4.8200    0.6435 C.1     1  LIG1        0.1003
     18 C          -1.7352    5.6547    0.0424 C.ar    1  LIG1        0.0284
     19 C          -1.0803    6.8060   -0.2978 C.ar    1  LIG1       -0.0290
     20 C          -1.9353    7.9480   -0.2711 C.ar    1  LIG1        0.0594
     21 C          -3.2218    7.6440    0.0850 C.ar    1  LIG1       -0.0063
     22 S          -3.4105    5.9760    0.4064 S.2     1  LIG1       -0.0948
     23 H          -4.0555    8.3246    0.1764 H       1  LIG1        0.0706
     24 H          -0.0339    6.8523   -0.5661 H       1  LIG1        0.0642
     25 N          -1.1659   10.3455   -0.8593 N.1     1  LIG1       -0.1909
     26 C          -1.5078    9.2731   -0.5944 C.1     1  LIG1        0.0997
@<TRIPOS>BOND
     1     8     9    3
     2    25    26    3
     3    26    20    1
     4     9     3    1
     5    24    19    1
     6     7     2    1
     7    19    20   ar
     8    19    18   ar
     9    20    21   ar
    10     3     2   ar
    11     3     4   ar
    12     2     1   ar
    13    14    13   ar
    14    14    10   ar
    15    18    13    1
    16    18    22   ar
    17    21    23    1
    18    21    22   ar
    19     4    10    1
    20     4     5   ar
    21    13    12   ar
    22    10    11   ar
    23     1     6    1
    24     1     5   ar
    25    12    11   ar
    26    12    17    1
    27    11    15    1
    28    17    16    3
