@<TRIPOS>MOLECULE
mol_data/opt/cam/geoms/mol2/5ad5ad-5ad-5ad.out
 34 37 0 0 0
SMALL
GASTEIGER

@<TRIPOS>ATOM
      1 C          -2.0824   -1.9512   -0.1701 C.ar    1  LIG1       -0.0225
      2 C          -0.7628   -1.9834    0.1402 C.ar    1  LIG1       -0.0367
      3 C          -0.1836   -0.6777    0.1910 C.ar    1  LIG1        0.0670
      4 C          -1.0844    0.3302   -0.0913 C.ar    1  LIG1        0.0433
      5 S          -2.6443   -0.3430   -0.4254 S.2     1  LIG1       -0.0948
      6 H          -2.7638   -2.7834   -0.2697 H       1  LIG1        0.0694
      7 H          -0.2024   -2.8876    0.3375 H       1  LIG1        0.0636
      8 N           2.3013   -0.2739    0.7712 N.1     1  LIG1       -0.1908
      9 C           1.1862   -0.4515    0.5175 C.1     1  LIG1        0.1003
     10 C          -0.8506    1.7638   -0.1333 C.ar    1  LIG1        0.0290
     11 C           0.3139    2.4257   -0.4018 C.ar    1  LIG1       -0.0284
     12 C           0.1682    3.8414   -0.3658 C.ar    1  LIG1        0.0676
     13 C          -1.1144    4.2579   -0.0652 C.ar    1  LIG1        0.0439
     14 S          -2.1382    2.8889    0.2002 S.2     1  LIG1       -0.0859
     15 H           1.2492    1.9357   -0.6352 H       1  LIG1        0.0642
     16 N           2.1170    5.4617   -0.8684 N.1     1  LIG1       -0.1908
     17 C           1.2446    4.7344   -0.6480 C.1     1  LIG1        0.1003
     18 C          -1.6243    5.6117    0.0482 C.ar    1  LIG1        0.0290
     19 C          -0.9378    6.7543    0.3509 C.ar    1  LIG1       -0.0284
     20 C          -1.7715    7.9072    0.3892 C.ar    1  LIG1        0.0676
     21 C          -3.0983    7.6406    0.1121 C.ar    1  LIG1        0.0439
     22 S          -3.3103    5.9578   -0.2247 S.2     1  LIG1       -0.0859
     23 H           0.1228    6.7877    0.5591 H       1  LIG1        0.0642
     24 N          -0.8754   10.2595    0.9727 N.1     1  LIG1       -0.1908
     25 C          -1.2768    9.2053    0.7160 C.1     1  LIG1        0.1003
     26 C          -4.2195    8.5633    0.0678 C.ar    1  LIG1        0.0284
     27 C          -4.1996    9.9028   -0.2079 C.ar    1  LIG1       -0.0290
     28 C          -5.5001   10.4879   -0.1632 C.ar    1  LIG1        0.0594
     29 C          -6.4822    9.5841    0.1422 C.ar    1  LIG1       -0.0063
     30 S          -5.8442    8.0187    0.3934 S.2     1  LIG1       -0.0948
     31 H          -7.5416    9.7730    0.2353 H       1  LIG1        0.0706
     32 H          -3.3039   10.4611   -0.4428 H       1  LIG1        0.0642
     33 N          -5.9806   12.9842   -0.6352 N.1     1  LIG1       -0.1909
     34 C          -5.7637   11.8687   -0.4223 C.1     1  LIG1        0.0997
@<TRIPOS>BOND
     1    16    17    3
     2    17    12    1
     3    33    34    3
     4    15    11    1
     5    32    27    1
     6     5     1   ar
     7     5     4   ar
     8    34    28    1
     9    11    12   ar
    10    11    10   ar
    11    12    13   ar
    12     6     1    1
    13    22    18   ar
    14    22    21   ar
    15    27    28   ar
    16    27    26   ar
    17     1     2   ar
    18    28    29   ar
    19    10     4    1
    20    10    14   ar
    21     4     3   ar
    22    13    18    1
    23    13    14   ar
    24    18    19   ar
    25    26    21    1
    26    26    30   ar
    27    21    20   ar
    28     2     3   ar
    29     2     7    1
    30    29    31    1
    31    29    30   ar
    32     3     9    1
    33    19    20   ar
    34    19    23    1
    35    20    25    1
    36     9     8    3
    37    25    24    3
