@<TRIPOS>MOLECULE
mol_data/opt/cam/geoms/mol2/5ad5ad-5ad.out
 26 28 0 0 0
SMALL
GASTEIGER

@<TRIPOS>ATOM
      1 C          -2.1412   -1.8889    0.0003 C.ar    1  LIG1       -0.0225
      2 C          -0.7873   -1.9447   -0.0005 C.ar    1  LIG1       -0.0367
      3 C          -0.1869   -0.6474   -0.0003 C.ar    1  LIG1        0.0670
      4 C          -1.1076    0.3847    0.0007 C.ar    1  LIG1        0.0433
      5 S          -2.7148   -0.2649    0.0014 S.2     1  LIG1       -0.0948
      6 H          -2.8440   -2.7089    0.0004 H       1  LIG1        0.0694
      7 H          -0.2121   -2.8609   -0.0013 H       1  LIG1        0.0636
      8 N           2.3759   -0.3276   -0.0017 N.1     1  LIG1       -0.1908
      9 C           1.2269   -0.4679   -0.0011 C.1     1  LIG1        0.1003
     10 C          -0.8757    1.8195    0.0012 C.ar    1  LIG1        0.0290
     11 C           0.3101    2.4999    0.0010 C.ar    1  LIG1       -0.0284
     12 C           0.1433    3.9135    0.0017 C.ar    1  LIG1        0.0676
     13 C          -1.1781    4.3207    0.0024 C.ar    1  LIG1        0.0439
     14 S          -2.2158    2.9353    0.0023 S.2     1  LIG1       -0.0859
     15 H           1.2833    2.0296    0.0004 H       1  LIG1        0.0642
     16 N           2.1617    5.5258    0.0015 N.1     1  LIG1       -0.1908
     17 C           1.2581    4.8029    0.0016 C.1     1  LIG1        0.1003
     18 C          -1.7294    5.6654    0.0032 C.ar    1  LIG1        0.0284
     19 C          -1.0646    6.8632    0.0034 C.ar    1  LIG1       -0.0290
     20 C          -1.9502    7.9811    0.0043 C.ar    1  LIG1        0.0594
     21 C          -3.2702    7.6192    0.0047 C.ar    1  LIG1       -0.0063
     22 S          -3.4570    5.9213    0.0041 S.2     1  LIG1       -0.0948
     23 H          -4.1311    8.2715    0.0054 H       1  LIG1        0.0706
     24 H           0.0113    6.9646    0.0030 H       1  LIG1        0.0642
     25 N          -1.1683   10.4458    0.0050 N.1     1  LIG1       -0.1909
     26 C          -1.5154    9.3429    0.0047 C.1     1  LIG1        0.0997
@<TRIPOS>BOND
     1     8     9    3
     2     7     2    1
     3     9     3    1
     4     2     3   ar
     5     2     1   ar
     6     3     4   ar
     7     1     6    1
     8     1     5   ar
     9    15    11    1
    10     4    10    1
    11     4     5   ar
    12    11    10   ar
    13    11    12   ar
    14    10    14   ar
    15    16    17    3
    16    17    12    1
    17    12    13   ar
    18    14    13   ar
    19    13    18    1
    20    24    19    1
    21    18    19   ar
    22    18    22   ar
    23    19    20   ar
    24    22    21   ar
    25    20    26    1
    26    20    21   ar
    27    26    25    3
    28    21    23    1
