@<TRIPOS>MOLECULE
mol_data/opt/cam/geoms/mol2/5ad5ad.out
 18 19 0 0 0
SMALL
GASTEIGER

@<TRIPOS>ATOM
      1 C          -2.0801   -1.8337   -0.2615 C.ar    1  LIG1       -0.0225
      2 C          -0.7523   -1.8531    0.0116 C.ar    1  LIG1       -0.0367
      3 C          -0.2056   -0.5391    0.1500 C.ar    1  LIG1        0.0670
      4 C          -1.1387    0.4621   -0.0288 C.ar    1  LIG1        0.0432
      5 S          -2.6890   -0.2258   -0.3758 S.2     1  LIG1       -0.0948
      6 H          -2.7424   -2.6743   -0.4081 H       1  LIG1        0.0694
      7 H          -0.1635   -2.7538    0.1233 H       1  LIG1        0.0636
      8 N           2.2846   -0.1217    0.6974 N.1     1  LIG1       -0.1908
      9 C           1.1669   -0.3028    0.4584 C.1     1  LIG1        0.1003
     10 C          -0.9434    1.9026    0.0346 C.ar    1  LIG1        0.0284
     11 C           0.1905    2.6131   -0.2431 C.ar    1  LIG1       -0.0290
     12 C           0.0109    4.0186   -0.0702 C.ar    1  LIG1        0.0594
     13 C          -1.2549    4.3496    0.3320 C.ar    1  LIG1       -0.0063
     14 S          -2.2385    2.9641    0.5212 S.2     1  LIG1       -0.0948
     15 H          -1.6438    5.3380    0.5277 H       1  LIG1        0.0706
     16 H           1.1212    2.1671   -0.5658 H       1  LIG1        0.0642
     17 N           1.8592    5.7754   -0.4986 N.1     1  LIG1       -0.1909
     18 C           1.0340    4.9887   -0.3050 C.1     1  LIG1        0.0997
@<TRIPOS>BOND
     1    16    11    1
     2    17    18    3
     3     6     1    1
     4     5     1   ar
     5     5     4   ar
     6    18    12    1
     7     1     2   ar
     8    11    12   ar
     9    11    10   ar
    10    12    13   ar
    11     4    10    1
    12     4     3   ar
    13     2     7    1
    14     2     3   ar
    15    10    14   ar
    16     3     9    1
    17    13    14   ar
    18    13    15    1
    19     9     8    3
