@<TRIPOS>MOLECULE
mol_data/opt/cam/geoms/mol2/5ad5ad5ad.out
 26 28 0 0 0
SMALL
GASTEIGER

@<TRIPOS>ATOM
      1 C          -2.0790   -1.9153    0.0718 C.ar    1  LIG1       -0.0225
      2 C          -0.7570   -1.9227   -0.2296 C.ar    1  LIG1       -0.0367
      3 C          -0.1950   -0.6084   -0.2461 C.ar    1  LIG1        0.0670
      4 C          -1.1109    0.3807    0.0531 C.ar    1  LIG1        0.0433
      5 S          -2.6639   -0.3208    0.3606 S.2     1  LIG1       -0.0948
      6 H          -2.7499   -2.7585    0.1469 H       1  LIG1        0.0694
      7 H          -0.1832   -2.8144   -0.4440 H       1  LIG1        0.0636
      8 N           2.2885   -0.1614   -0.7999 N.1     1  LIG1       -0.1908
      9 C           1.1739   -0.3575   -0.5578 C.1     1  LIG1        0.1003
     10 C          -0.8976    1.8162    0.1302 C.ar    1  LIG1        0.0290
     11 C           0.2560    2.4876    0.4199 C.ar    1  LIG1       -0.0284
     12 C           0.0897    3.9020    0.4179 C.ar    1  LIG1        0.0676
     13 C          -1.1970    4.3071    0.1227 C.ar    1  LIG1        0.0439
     14 S          -2.1995    2.9312   -0.1816 S.2     1  LIG1       -0.0859
     15 H           1.1973    2.0056    0.6457 H       1  LIG1        0.0642
     16 N           2.0164    5.5336    0.9680 N.1     1  LIG1       -0.1908
     17 C           1.1526    4.8029    0.7262 C.1     1  LIG1        0.1003
     18 C          -1.7266    5.6577    0.0396 C.ar    1  LIG1        0.0284
     19 C          -1.0561    6.8099   -0.2652 C.ar    1  LIG1       -0.0290
     20 C          -1.9067    7.9554   -0.2532 C.ar    1  LIG1        0.0594
     21 C          -3.2056    7.6530    0.0567 C.ar    1  LIG1       -0.0063
     22 S          -3.4117    5.9822    0.3520 S.2     1  LIG1       -0.0948
     23 H          -4.0390    8.3363    0.1287 H       1  LIG1        0.0706
     24 H          -0.0012    6.8546   -0.4984 H       1  LIG1        0.0642
     25 N          -1.1085   10.3560   -0.7874 N.1     1  LIG1       -0.1909
     26 C          -1.4634    9.2822   -0.5466 C.1     1  LIG1        0.0997
@<TRIPOS>BOND
     1     8     9    3
     2    25    26    3
     3     9     3    1
     4    26    20    1
     5    24    19    1
     6     7     2    1
     7    19    20   ar
     8    19    18   ar
     9    20    21   ar
    10     3     2   ar
    11     3     4   ar
    12     2     1   ar
    13    14    13   ar
    14    14    10   ar
    15    18    13    1
    16    18    22   ar
    17     4    10    1
    18     4     5   ar
    19    21    23    1
    20    21    22   ar
    21     1     6    1
    22     1     5   ar
    23    13    12   ar
    24    10    11   ar
    25    12    11   ar
    26    12    17    1
    27    11    15    1
    28    17    16    3
