@<TRIPOS>MOLECULE
mol_data/opt/cam/geoms/mol2/5ad5ad-5ad-.out
 26 28 0 0 0
SMALL
GASTEIGER

@<TRIPOS>ATOM
      1 C          -2.0784   -1.9158   -0.0442 C.ar    1  LIG1       -0.0225
      2 C          -0.7493   -1.9226    0.2242 C.ar    1  LIG1       -0.0367
      3 C          -0.1876   -0.6081    0.2268 C.ar    1  LIG1        0.0670
      4 C          -1.1111    0.3807   -0.0496 C.ar    1  LIG1        0.0433
      5 S          -2.6709   -0.3215   -0.3184 S.2     1  LIG1       -0.0948
      6 H          -2.7505   -2.7593   -0.1025 H       1  LIG1        0.0694
      7 H          -0.1699   -2.8141    0.4243 H       1  LIG1        0.0636
      8 N           2.3087   -0.1599    0.7186 N.1     1  LIG1       -0.1908
      9 C           1.1885   -0.3566    0.5044 C.1     1  LIG1        0.1003
     10 C          -0.9005    1.8162   -0.1319 C.ar    1  LIG1        0.0290
     11 C           0.2453    2.4881   -0.4502 C.ar    1  LIG1       -0.0284
     12 C           0.0785    3.9025   -0.4441 C.ar    1  LIG1        0.0676
     13 C          -1.2007    4.3070   -0.1170 C.ar    1  LIG1        0.0439
     14 S          -2.1947    2.9306    0.2121 S.2     1  LIG1       -0.0859
     15 H           1.1810    2.0065   -0.6993 H       1  LIG1        0.0642
     16 N           1.9902    5.5349   -1.0419 N.1     1  LIG1       -0.1908
     17 C           1.1330    4.8038   -0.7787 C.1     1  LIG1        0.1003
     18 C          -1.7286    5.6573   -0.0208 C.ar    1  LIG1        0.0284
     19 C          -1.0513    6.8099    0.2672 C.ar    1  LIG1       -0.0290
     20 C          -1.9025    7.9549    0.2764 C.ar    1  LIG1        0.0594
     21 C          -3.2085    7.6520   -0.0012 C.ar    1  LIG1       -0.0063
     22 S          -3.4211    5.9811   -0.2912 S.2     1  LIG1       -0.0948
     23 H          -4.0438    8.3349   -0.0524 H       1  LIG1        0.0706
     24 H           0.0090    6.8550    0.4741 H       1  LIG1        0.0642
     25 N          -1.0923   10.3560    0.7905 N.1     1  LIG1       -0.1909
     26 C          -1.4526    9.2820    0.5587 C.1     1  LIG1        0.0997
@<TRIPOS>BOND
     1    16    17    3
     2    17    12    1
     3    15    11    1
     4    11    12   ar
     5    11    10   ar
     6    12    13   ar
     7     5     4   ar
     8     5     1   ar
     9    22    18   ar
    10    22    21   ar
    11    10     4    1
    12    10    14   ar
    13    13    18    1
    14    13    14   ar
    15     6     1    1
    16    23    21    1
    17     4     3   ar
    18     1     2   ar
    19    18    19   ar
    20    21    20   ar
    21     2     3   ar
    22     2     7    1
    23     3     9    1
    24    19    20   ar
    25    19    24    1
    26    20    26    1
    27     9     8    3
    28    26    25    3
