@<TRIPOS>MOLECULE
mol_data/opt/cam/geoms/mol2/5ad5ad-5ad5ad.out
 34 37 0 0 0
SMALL
GASTEIGER

@<TRIPOS>ATOM
      1 C          -2.0801   -1.9499    0.2260 C.ar    1  LIG1       -0.0225
      2 C          -0.7664   -1.9846   -0.1084 C.ar    1  LIG1       -0.0367
      3 C          -0.1881   -0.6794   -0.1793 C.ar    1  LIG1        0.0670
      4 C          -1.0834    0.3307    0.1125 C.ar    1  LIG1        0.0433
      5 S          -2.6370   -0.3397    0.4802 S.2     1  LIG1       -0.0948
      6 H          -2.7596   -2.7811    0.3441 H       1  LIG1        0.0694
      7 H          -0.2099   -2.8902   -0.3097 H       1  LIG1        0.0636
      8 N           2.2856   -0.2803   -0.8083 N.1     1  LIG1       -0.1908
      9 C           1.1754   -0.4558   -0.5327 C.1     1  LIG1        0.1003
     10 C          -0.8488    1.7645    0.1400 C.ar    1  LIG1        0.0290
     11 C           0.3206    2.4280    0.3822 C.ar    1  LIG1       -0.0284
     12 C           0.1744    3.8435    0.3388 C.ar    1  LIG1        0.0676
     13 C          -1.1135    4.2581    0.0591 C.ar    1  LIG1        0.0439
     14 S          -2.1422    2.8875   -0.1775 S.2     1  LIG1       -0.0859
     15 H           1.2600    1.9395    0.6016 H       1  LIG1        0.0642
     16 N           2.1324    5.4668    0.7937 N.1     1  LIG1       -0.1908
     17 C           1.2560    4.7381    0.5946 C.1     1  LIG1        0.1003
     18 C          -1.6252    5.6113   -0.0544 C.ar    1  LIG1        0.0290
     19 C          -0.9443    6.7514   -0.3779 C.ar    1  LIG1       -0.0284
     20 C          -1.7785    7.9043   -0.4089 C.ar    1  LIG1        0.0676
     21 C          -3.1000    7.6399   -0.1053 C.ar    1  LIG1        0.0439
     22 S          -3.3059    5.9597    0.2472 S.2     1  LIG1       -0.0859
     23 H           0.1122    6.7832   -0.6060 H       1  LIG1        0.0642
     24 N          -0.8931   10.2521   -1.0256 N.1     1  LIG1       -0.1908
     25 C          -1.2897    9.1999   -0.7541 C.1     1  LIG1        0.1003
     26 C          -4.2200    8.5633   -0.0468 C.ar    1  LIG1        0.0284
     27 C          -4.1949    9.9047    0.2190 C.ar    1  LIG1       -0.0290
     28 C          -5.4958   10.4897    0.1942 C.ar    1  LIG1        0.0594
     29 C          -6.4836    9.5840   -0.0865 C.ar    1  LIG1       -0.0063
     30 S          -5.8505    8.0168   -0.3383 S.2     1  LIG1       -0.0948
     31 H          -7.5445    9.7726   -0.1612 H       1  LIG1        0.0706
     32 H          -3.2949   10.4644    0.4332 H       1  LIG1        0.0642
     33 N          -5.9673   12.9895    0.6574 N.1     1  LIG1       -0.1909
     34 C          -5.7544   11.8724    0.4484 C.1     1  LIG1        0.0997
@<TRIPOS>BOND
     1    24    25    3
     2     8     9    3
     3    25    20    1
     4    23    19    1
     5     9     3    1
     6    20    19   ar
     7    20    21   ar
     8    19    18   ar
     9    30    29   ar
    10    30    26   ar
    11     7     2    1
    12     3     2   ar
    13     3     4   ar
    14    14    13   ar
    15    14    10   ar
    16    31    29    1
    17     2     1   ar
    18    21    26    1
    19    21    22   ar
    20    29    28   ar
    21    18    13    1
    22    18    22   ar
    23    26    27   ar
    24    13    12   ar
    25     4    10    1
    26     4     5   ar
    27    10    11   ar
    28    28    27   ar
    29    28    34    1
    30    27    32    1
    31     1     6    1
    32     1     5   ar
    33    12    11   ar
    34    12    17    1
    35    11    15    1
    36    34    33    3
    37    17    16    3
