@<TRIPOS>MOLECULE
mol_data/opt/cam/geoms/mol2/5ae.out
 11 11 0 0 0
SMALL
GASTEIGER

@<TRIPOS>ATOM
      1 C          -2.0914   -1.7571    0.0001 C.ar    1  LIG1       -0.0231
      2 C          -0.7348   -1.7338   -0.0007 C.ar    1  LIG1       -0.0393
      3 C          -0.2046   -0.3995   -0.0005 C.ar    1  LIG1        0.0317
      4 C          -1.1958    0.5453    0.0005 C.ar    1  LIG1       -0.0089
      5 S          -2.7586   -0.1656    0.0011 S.2     1  LIG1       -0.1038
      6 H          -2.7422   -2.6192    0.0002 H       1  LIG1        0.0694
      7 H          -1.0747    1.6183    0.0008 H       1  LIG1        0.0706
      8 H          -0.1111   -2.6182   -0.0014 H       1  LIG1        0.0635
      9 C           1.1892   -0.0951   -0.0012 C.1     1  LIG1       -0.0691
     10 C           2.3677    0.1500   -0.0017 C.1     1  LIG1       -0.1139
     11 H           3.4100    0.3714   -0.0010 H       1  LIG1        0.1232
@<TRIPOS>BOND
     1    10     9    3
     2    10    11    1
     3     8     2    1
     4     9     3    1
     5     2     3   ar
     6     2     1   ar
     7     3     4   ar
     8     1     6    1
     9     1     5   ar
    10     4     7    1
    11     4     5   ar
