@<TRIPOS>MOLECULE
mol_data/opt/cam/geoms/mol2/5ae5ae5ae.out
 29 31 0 0 0
SMALL
GASTEIGER

@<TRIPOS>ATOM
      1 C          -2.0723   -1.8981    0.1091 C.ar    1  LIG1       -0.0225
      2 C          -0.7522   -1.9035   -0.1981 C.ar    1  LIG1       -0.0387
      3 C          -0.1763   -0.5915   -0.2209 C.ar    1  LIG1        0.0399
      4 C          -1.0959    0.3946    0.0814 C.ar    1  LIG1        0.0413
      5 S          -2.6542   -0.3025    0.3987 S.2     1  LIG1       -0.0949
      6 H          -2.7424   -2.7416    0.1878 H       1  LIG1        0.0694
      7 H          -0.1808   -2.7966   -0.4148 H       1  LIG1        0.0635
      8 C           1.1916   -0.3655   -0.5481 C.1     1  LIG1       -0.0685
      9 C           2.3531   -0.2152   -0.8287 C.1     1  LIG1       -0.1139
     10 H           3.3782   -0.0729   -1.0834 H       1  LIG1        0.1232
     11 C          -0.8912    1.8307    0.1587 C.ar    1  LIG1        0.0289
     12 C           0.2565    2.5090    0.4510 C.ar    1  LIG1       -0.0304
     13 C           0.0987    3.9278    0.4538 C.ar    1  LIG1        0.0405
     14 C          -1.1921    4.3232    0.1581 C.ar    1  LIG1        0.0419
     15 S          -2.1957    2.9433   -0.1513 S.2     1  LIG1       -0.0859
     16 H           1.1935    2.0214    0.6788 H       1  LIG1        0.0641
     17 C           1.1724    4.8099    0.7696 C.1     1  LIG1       -0.0685
     18 C           2.1033    5.5244    1.0399 C.1     1  LIG1       -0.1139
     19 H           2.9203    6.1628    1.2865 H       1  LIG1        0.1232
     20 C          -1.7335    5.6686    0.0748 C.ar    1  LIG1        0.0283
     21 C          -1.0771    6.8266   -0.2341 C.ar    1  LIG1       -0.0310
     22 C          -1.9276    7.9764   -0.2255 C.ar    1  LIG1        0.0323
     23 C          -3.2226    7.6598    0.0889 C.ar    1  LIG1       -0.0083
     24 S          -3.4205    5.9839    0.3908 S.2     1  LIG1       -0.0949
     25 H          -4.0616    8.3358    0.1605 H       1  LIG1        0.0706
     26 H          -0.0237    6.8676   -0.4712 H       1  LIG1        0.0641
     27 C          -1.4805    9.2989   -0.5210 C.1     1  LIG1       -0.0691
     28 C          -1.0964   10.4116   -0.7713 C.1     1  LIG1       -0.1139
     29 H          -0.7589   11.3976   -0.9935 H       1  LIG1        0.1232
@<TRIPOS>BOND
     1    10     9    1
     2    29    28    1
     3     9     8    3
     4    28    27    3
     5     8     3    1
     6    27    22    1
     7    26    21    1
     8     7     2    1
     9    21    22   ar
    10    21    20   ar
    11    22    23   ar
    12     3     2   ar
    13     3     4   ar
    14     2     1   ar
    15    15    14   ar
    16    15    11   ar
    17    20    14    1
    18    20    24   ar
    19     4    11    1
    20     4     5   ar
    21    23    25    1
    22    23    24   ar
    23     1     6    1
    24     1     5   ar
    25    14    13   ar
    26    11    12   ar
    27    12    13   ar
    28    12    16    1
    29    13    17    1
    30    17    18    3
    31    18    19    1
