@<TRIPOS>MOLECULE
mol_data/opt/cam/geoms/mol2/5ae5ae5ae-5ae.out
 38 41 0 0 0
SMALL
GASTEIGER

@<TRIPOS>ATOM
      1 C          -2.0932   -1.9216    0.1435 C.ar    1  LIG1       -0.0225
      2 C          -0.7626   -1.9558   -0.1127 C.ar    1  LIG1       -0.0387
      3 C          -0.1637   -0.6544   -0.1439 C.ar    1  LIG1        0.0399
      4 C          -1.0773    0.3535    0.1000 C.ar    1  LIG1        0.0413
      5 S          -2.6583   -0.3104    0.3731 S.2     1  LIG1       -0.0949
      6 H          -2.7801   -2.7519    0.2161 H       1  LIG1        0.0694
      7 H          -0.1988   -2.8630   -0.2864 H       1  LIG1        0.0635
      8 C           1.2192   -0.4585   -0.4232 C.1     1  LIG1       -0.0685
      9 C           2.3931   -0.3339   -0.6617 C.1     1  LIG1       -0.1139
     10 H           3.4296   -0.2149   -0.8797 H       1  LIG1        0.1232
     11 C          -0.8507    1.7873    0.1515 C.ar    1  LIG1        0.0289
     12 C           0.2974    2.4534    0.4702 C.ar    1  LIG1       -0.0304
     13 C           0.1647    3.8738    0.4343 C.ar    1  LIG1        0.0405
     14 C          -1.1078    4.2837    0.0811 C.ar    1  LIG1        0.0419
     15 S          -2.1237    2.9131   -0.2322 S.2     1  LIG1       -0.0859
     16 H           1.2167    1.9559    0.7437 H       1  LIG1        0.0641
     17 C           1.2416    4.7441    0.7705 C.1     1  LIG1       -0.0685
     18 C           2.1748    5.4481    1.0602 C.1     1  LIG1       -0.1139
     19 H           2.9942    6.0764    1.3241 H       1  LIG1        0.1232
     20 C          -1.6220    5.6334   -0.0532 C.ar    1  LIG1        0.0289
     21 C          -0.9345    6.7798   -0.3334 C.ar    1  LIG1       -0.0304
     22 C          -1.7617    7.9399   -0.4075 C.ar    1  LIG1        0.0405
     23 C          -3.0963    7.6616   -0.1789 C.ar    1  LIG1        0.0419
     24 S          -3.3183    5.9748    0.1553 S.2     1  LIG1       -0.0859
     25 H           0.1320    6.8066   -0.5042 H       1  LIG1        0.0641
     26 C          -1.2371    9.2267   -0.7233 C.1     1  LIG1       -0.0685
     27 C          -0.7585   10.2987   -0.9915 C.1     1  LIG1       -0.1139
     28 H          -0.3433   11.2490   -1.2370 H       1  LIG1        0.1232
     29 C          -4.2269    8.5734   -0.1769 C.ar    1  LIG1        0.0283
     30 C          -4.2343    9.9108    0.1041 C.ar    1  LIG1       -0.0310
     31 C          -5.5346   10.4990    0.0126 C.ar    1  LIG1        0.0323
     32 C          -6.4929    9.5842   -0.3353 C.ar    1  LIG1       -0.0083
     33 S          -5.8344    8.0189   -0.5690 S.2     1  LIG1       -0.0949
     34 H          -7.5495    9.7633   -0.4686 H       1  LIG1        0.0706
     35 H          -3.3485   10.4654    0.3783 H       1  LIG1        0.0641
     36 C          -5.8037   11.8773    0.2651 C.1     1  LIG1       -0.0691
     37 C          -6.0233   13.0411    0.4794 C.1     1  LIG1       -0.1139
     38 H          -6.2203   14.0708    0.6697 H       1  LIG1        0.1232
@<TRIPOS>BOND
     1    28    27    1
     2    27    26    3
     3    10     9    1
     4    26    22    1
     5     9     8    3
     6    33    32   ar
     7    33    29   ar
     8    25    21    1
     9    34    32    1
    10     8     3    1
    11    22    21   ar
    12    22    23   ar
    13    32    31   ar
    14    21    20   ar
    15     7     2    1
    16    15    14   ar
    17    15    11   ar
    18    23    29    1
    19    23    24   ar
    20    29    30   ar
    21     3     2   ar
    22     3     4   ar
    23     2     1   ar
    24    20    14    1
    25    20    24   ar
    26    31    30   ar
    27    31    36    1
    28    14    13   ar
    29     4    11    1
    30     4     5   ar
    31    30    35    1
    32     1     6    1
    33     1     5   ar
    34    11    12   ar
    35    36    37    3
    36    13    12   ar
    37    13    17    1
    38    12    16    1
    39    37    38    1
    40    17    18    3
    41    18    19    1
