@<TRIPOS>MOLECULE
mol_data/opt/cam/geoms/mol2/5ae5ae-5ae-.out
 29 31 0 0 0
SMALL
GASTEIGER

@<TRIPOS>ATOM
      1 C          -2.0757   -1.8977   -0.0808 C.ar    1  LIG1       -0.0225
      2 C          -0.7521   -1.9031    0.2107 C.ar    1  LIG1       -0.0387
      3 C          -0.1754   -0.5913    0.2243 C.ar    1  LIG1        0.0399
      4 C          -1.0982    0.3947   -0.0690 C.ar    1  LIG1        0.0413
      5 S          -2.6603   -0.3023   -0.3664 S.2     1  LIG1       -0.0949
      6 H          -2.7471   -2.7411   -0.1500 H       1  LIG1        0.0694
      7 H          -0.1785   -2.7959    0.4222 H       1  LIG1        0.0635
      8 C           1.1963   -0.3652    0.5348 C.1     1  LIG1       -0.0685
      9 C           2.3613   -0.2150    0.8011 C.1     1  LIG1       -0.1139
     10 H           3.3893   -0.0727    1.0434 H       1  LIG1        0.1232
     11 C          -0.8938    1.8306   -0.1514 C.ar    1  LIG1        0.0289
     12 C           0.2507    2.5078   -0.4583 C.ar    1  LIG1       -0.0304
     13 C           0.0933    3.9267   -0.4621 C.ar    1  LIG1        0.0405
     14 C          -1.1938    4.3231   -0.1522 C.ar    1  LIG1        0.0419
     15 S          -2.1942    2.9442    0.1717 S.2     1  LIG1       -0.0859
     16 H           1.1848    2.0194   -0.6961 H       1  LIG1        0.0641
     17 C           1.1636    4.8077   -0.7921 C.1     1  LIG1       -0.0685
     18 C           2.0916    5.5212   -1.0746 C.1     1  LIG1       -0.1139
     19 H           2.9060    6.1587   -1.3321 H       1  LIG1        0.1232
     20 C          -1.7337    5.6689   -0.0652 C.ar    1  LIG1        0.0283
     21 C          -1.0734    6.8273    0.2336 C.ar    1  LIG1       -0.0310
     22 C          -1.9236    7.9774    0.2327 C.ar    1  LIG1        0.0323
     23 C          -3.2222    7.6606   -0.0658 C.ar    1  LIG1       -0.0083
     24 S          -3.4243    5.9842   -0.3620 S.2     1  LIG1       -0.0949
     25 H          -4.0619    8.3367   -0.1290 H       1  LIG1        0.0706
     26 H          -0.0173    6.8684    0.4582 H       1  LIG1        0.0641
     27 C          -1.4726    9.3003    0.5202 C.1     1  LIG1       -0.0691
     28 C          -1.0852   10.4134    0.7637 C.1     1  LIG1       -0.1139
     29 H          -0.7448   11.3997    0.9799 H       1  LIG1        0.1232
@<TRIPOS>BOND
     1    19    18    1
     2    18    17    3
     3    17    13    1
     4    16    12    1
     5    13    12   ar
     6    13    14   ar
     7    12    11   ar
     8     5     1   ar
     9     5     4   ar
    10    24    23   ar
    11    24    20   ar
    12    14    20    1
    13    14    15   ar
    14    11     4    1
    15    11    15   ar
    16     6     1    1
    17    25    23    1
    18     1     2   ar
    19     4     3   ar
    20    23    22   ar
    21    20    21   ar
    22     2     3   ar
    23     2     7    1
    24     3     8    1
    25    22    21   ar
    26    22    27    1
    27    21    26    1
    28    27    28    3
    29     8     9    3
    30    28    29    1
    31     9    10    1
