@<TRIPOS>MOLECULE
mol_data/opt/cam/geoms/mol2/5ae5ae-5ae.out
 29 31 0 0 0
SMALL
GASTEIGER

@<TRIPOS>ATOM
      1 C          -2.1339   -1.8672    0.0009 C.ar    1  LIG1       -0.0225
      2 C          -0.7803   -1.9156   -0.0003 C.ar    1  LIG1       -0.0387
      3 C          -0.1702   -0.6187   -0.0003 C.ar    1  LIG1        0.0399
      4 C          -1.1002    0.4065    0.0009 C.ar    1  LIG1        0.0413
      5 S          -2.7119   -0.2447    0.0020 S.2     1  LIG1       -0.0949
      6 H          -2.8328   -2.6905    0.0011 H       1  LIG1        0.0694
      7 H          -0.2029   -2.8307   -0.0012 H       1  LIG1        0.0635
      8 C           1.2454   -0.4652   -0.0015 C.1     1  LIG1       -0.0685
      9 C           2.4481   -0.3939   -0.0026 C.1     1  LIG1       -0.1139
     10 H           3.5115   -0.3226   -0.0035 H       1  LIG1        0.1232
     11 C          -0.8825    1.8426    0.0013 C.ar    1  LIG1        0.0289
     12 C           0.2962    2.5329    0.0011 C.ar    1  LIG1       -0.0304
     13 C           0.1358    3.9508    0.0016 C.ar    1  LIG1        0.0405
     14 C          -1.1905    4.3447    0.0023 C.ar    1  LIG1        0.0419
     15 S          -2.2275    2.9524    0.0022 S.2     1  LIG1       -0.0859
     16 H           1.2651    2.0569    0.0005 H       1  LIG1        0.0641
     17 C           1.2652    4.8193    0.0015 C.1     1  LIG1       -0.0685
     18 C           2.2533    5.5082    0.0013 C.1     1  LIG1       -0.1139
     19 H           3.1233    6.1238    0.0012 H       1  LIG1        0.1232
     20 C          -1.7557    5.6827    0.0030 C.ar    1  LIG1        0.0283
     21 C          -1.1043    6.8865    0.0033 C.ar    1  LIG1       -0.0310
     22 C          -1.9891    8.0094    0.0040 C.ar    1  LIG1        0.0323
     23 C          -3.3053    7.6329    0.0042 C.ar    1  LIG1       -0.0083
     24 S          -3.4854    5.9286    0.0036 S.2     1  LIG1       -0.0949
     25 H          -4.1715    8.2776    0.0047 H       1  LIG1        0.0706
     26 H          -0.0291    6.9814    0.0030 H       1  LIG1        0.0641
     27 C          -1.5493    9.3669    0.0044 C.1     1  LIG1       -0.0691
     28 C          -1.1717   10.5096    0.0048 C.1     1  LIG1       -0.1139
     29 H          -0.8399   11.5222    0.0051 H       1  LIG1        0.1232
@<TRIPOS>BOND
     1    10     9    1
     2     9     8    3
     3     8     3    1
     4     7     2    1
     5     2     3   ar
     6     2     1   ar
     7     3     4   ar
     8    16    12    1
     9     1     6    1
    10     1     5   ar
    11     4    11    1
    12     4     5   ar
    13    12    11   ar
    14    12    13   ar
    15    19    18    1
    16    11    15   ar
    17    18    17    3
    18    17    13    1
    19    13    14   ar
    20    15    14   ar
    21    14    20    1
    22    20    21   ar
    23    20    24   ar
    24    26    21    1
    25    21    22   ar
    26    24    23   ar
    27    22    23   ar
    28    22    27    1
    29    23    25    1
    30    27    28    3
    31    28    29    1
