@<TRIPOS>MOLECULE
mol_data/opt/cam/geoms/mol2/5ae5ae5ae5ae-.out
 38 41 0 0 0
SMALL
GASTEIGER

@<TRIPOS>ATOM
      1 C          -2.0920   -1.9216    0.1505 C.ar    1  LIG1       -0.0225
      2 C          -0.7616   -1.9558   -0.1065 C.ar    1  LIG1       -0.0387
      3 C          -0.1630   -0.6543   -0.1388 C.ar    1  LIG1        0.0399
      4 C          -1.0766    0.3536    0.1049 C.ar    1  LIG1        0.0413
      5 S          -2.6572   -0.3103    0.3795 S.2     1  LIG1       -0.0949
      6 H          -2.7788   -2.7520    0.2240 H       1  LIG1        0.0694
      7 H          -0.1978   -2.8630   -0.2799 H       1  LIG1        0.0635
      8 C           1.2198   -0.4583   -0.4190 C.1     1  LIG1       -0.0685
      9 C           2.3935   -0.3337   -0.6586 C.1     1  LIG1       -0.1139
     10 H           3.4297   -0.2145   -0.8775 H       1  LIG1        0.1232
     11 C          -0.8501    1.7875    0.1555 C.ar    1  LIG1        0.0289
     12 C           0.2980    2.4540    0.4731 C.ar    1  LIG1       -0.0304
     13 C           0.1651    3.8744    0.4364 C.ar    1  LIG1        0.0405
     14 C          -1.1077    4.2838    0.0835 C.ar    1  LIG1        0.0419
     15 S          -2.1235    2.9128   -0.2284 S.2     1  LIG1       -0.0859
     16 H           1.2175    1.9567    0.7465 H       1  LIG1        0.0641
     17 C           1.2419    4.7452    0.7713 C.1     1  LIG1       -0.0685
     18 C           2.1751    5.4496    1.0600 C.1     1  LIG1       -0.1139
     19 H           2.9945    6.0784    1.3228 H       1  LIG1        0.1232
     20 C          -1.6221    5.6333   -0.0515 C.ar    1  LIG1        0.0289
     21 C          -0.9350    6.7795   -0.3335 C.ar    1  LIG1       -0.0304
     22 C          -1.7624    7.9396   -0.4077 C.ar    1  LIG1        0.0405
     23 C          -3.0967    7.6613   -0.1775 C.ar    1  LIG1        0.0419
     24 S          -3.3182    5.9748    0.1585 S.2     1  LIG1       -0.0859
     25 H           0.1314    6.8062   -0.5054 H       1  LIG1        0.0641
     26 C          -1.2382    9.2262   -0.7250 C.1     1  LIG1       -0.0685
     27 C          -0.7601   10.2979   -0.9947 C.1     1  LIG1       -0.1139
     28 H          -0.3454   11.2482   -1.2414 H       1  LIG1        0.1232
     29 C          -4.2274    8.5730   -0.1750 C.ar    1  LIG1        0.0283
     30 C          -4.2346    9.9107    0.1046 C.ar    1  LIG1       -0.0310
     31 C          -5.5352   10.4987    0.0141 C.ar    1  LIG1        0.0323
     32 C          -6.4938    9.5834   -0.3316 C.ar    1  LIG1       -0.0083
     33 S          -5.8353    8.0179   -0.5646 S.2     1  LIG1       -0.0949
     34 H          -7.5505    9.7622   -0.4637 H       1  LIG1        0.0706
     35 H          -3.3486   10.4657    0.3771 H       1  LIG1        0.0641
     36 C          -5.8041   11.8772    0.2655 C.1     1  LIG1       -0.0691
     37 C          -6.0236   13.0411    0.4789 C.1     1  LIG1       -0.1139
     38 H          -6.2205   14.0711    0.6683 H       1  LIG1        0.1232
@<TRIPOS>BOND
     1    28    27    1
     2    27    26    3
     3    10     9    1
     4    26    22    1
     5     9     8    3
     6    33    32   ar
     7    33    29   ar
     8    25    21    1
     9    34    32    1
    10     8     3    1
    11    22    21   ar
    12    22    23   ar
    13    21    20   ar
    14    32    31   ar
    15     7     2    1
    16    15    14   ar
    17    15    11   ar
    18    23    29    1
    19    23    24   ar
    20    29    30   ar
    21     3     2   ar
    22     3     4   ar
    23     2     1   ar
    24    20    14    1
    25    20    24   ar
    26    31    30   ar
    27    31    36    1
    28    14    13   ar
    29    30    35    1
    30     4    11    1
    31     4     5   ar
    32     1     6    1
    33     1     5   ar
    34    11    12   ar
    35    36    37    3
    36    13    12   ar
    37    13    17    1
    38    12    16    1
    39    37    38    1
    40    17    18    3
    41    18    19    1
