@<TRIPOS>MOLECULE
mol_data/opt/cam/geoms/mol2/5ae5ae5ae-5ae-.out
 38 41 0 0 0
SMALL
GASTEIGER

@<TRIPOS>ATOM
      1 C          -1.9340   -1.9198    0.6967 C.ar    1  LIG1       -0.0225
      2 C          -0.7697   -1.9498    0.0035 C.ar    1  LIG1       -0.0387
      3 C          -0.2269   -0.6459   -0.2379 C.ar    1  LIG1        0.0399
      4 C          -1.0107    0.3599    0.2950 C.ar    1  LIG1        0.0413
      5 S          -2.3991   -0.3094    1.0944 S.2     1  LIG1       -0.0949
      6 H          -2.5493   -2.7527    1.0040 H       1  LIG1        0.0694
      7 H          -0.2918   -2.8557   -0.3458 H       1  LIG1        0.0635
      8 C           0.9770   -0.4465   -0.9727 C.1     1  LIG1       -0.0685
      9 C           1.9986   -0.3194   -1.5978 C.1     1  LIG1       -0.1139
     10 H           2.8977   -0.1978   -2.1571 H       1  LIG1        0.1232
     11 C          -0.7910    1.7954    0.2556 C.ar    1  LIG1        0.0289
     12 C           0.3916    2.4693    0.1525 C.ar    1  LIG1       -0.0304
     13 C           0.2436    3.8886    0.1364 C.ar    1  LIG1        0.0405
     14 C          -1.0756    4.2904    0.2389 C.ar    1  LIG1        0.0419
     15 S          -2.1247    2.9130    0.3463 S.2     1  LIG1       -0.0859
     16 H           1.3519    1.9780    0.0890 H       1  LIG1        0.0641
     17 C           1.3604    4.7645    0.0124 C.1     1  LIG1       -0.0685
     18 C           2.3288    5.4725   -0.0933 C.1     1  LIG1       -0.1139
     19 H           3.1811    6.1046   -0.1935 H       1  LIG1        0.1232
     20 C          -1.6149    5.6371    0.2621 C.ar    1  LIG1        0.0289
     21 C          -0.9968    6.7921    0.6488 C.ar    1  LIG1       -0.0304
     22 C          -1.8314    7.9459    0.5594 C.ar    1  LIG1        0.0405
     23 C          -3.1009    7.6541    0.0970 C.ar    1  LIG1        0.0419
     24 S          -3.2476    5.9624   -0.2534 S.2     1  LIG1       -0.0859
     25 H           0.0211    6.8298    1.0091 H       1  LIG1        0.0641
     26 C          -1.3808    9.2402    0.9503 C.1     1  LIG1       -0.0685
     27 C          -0.9653   10.3187    1.2881 C.1     1  LIG1       -0.1139
     28 H          -0.6072   11.2749    1.5935 H       1  LIG1        0.1232
     29 C          -4.2188    8.5562   -0.1181 C.ar    1  LIG1        0.0283
     30 C          -4.1843    9.8906   -0.4106 C.ar    1  LIG1       -0.0310
     31 C          -5.4838   10.4692   -0.5585 C.ar    1  LIG1        0.0323
     32 C          -6.4830    9.5501   -0.3768 C.ar    1  LIG1       -0.0083
     33 S          -5.8670    7.9925   -0.0124 S.2     1  LIG1       -0.0949
     34 H          -7.5475    9.7218   -0.4360 H       1  LIG1        0.0706
     35 H          -3.2673   10.4497   -0.5286 H       1  LIG1        0.0641
     36 C          -5.7122   11.8428   -0.8697 C.1     1  LIG1       -0.0691
     37 C          -5.8973   13.0027   -1.1322 C.1     1  LIG1       -0.1139
     38 H          -6.0636   14.0290   -1.3656 H       1  LIG1        0.1232
@<TRIPOS>BOND
     1    10     9    1
     2     9     8    3
     3    38    37    1
     4    37    36    3
     5     8     3    1
     6    36    31    1
     7    31    30   ar
     8    31    32   ar
     9    35    30    1
    10    34    32    1
    11    30    29   ar
    12    32    33   ar
    13     7     2    1
    14    24    23   ar
    15    24    20   ar
    16     3     2   ar
    17     3     4   ar
    18    19    18    1
    19    29    33   ar
    20    29    23    1
    21    18    17    3
    22     2     1   ar
    23    17    13    1
    24    16    12    1
    25    23    22   ar
    26    13    12   ar
    27    13    14   ar
    28    12    11   ar
    29    14    20    1
    30    14    15   ar
    31    11     4    1
    32    11    15   ar
    33    20    21   ar
    34     4     5   ar
    35    22    21   ar
    36    22    26    1
    37    21    25    1
    38     1     6    1
    39     1     5   ar
    40    26    27    3
    41    27    28    1
