@<TRIPOS>MOLECULE
mol_data/opt/cam/geoms/mol2/5ae5ae-5ae5ae-.out
 38 41 0 0 0
SMALL
GASTEIGER

@<TRIPOS>ATOM
      1 C          -2.1882   -1.8656    0.0010 C.ar    1  LIG1       -0.0225
      2 C          -0.8364   -1.9515   -0.0003 C.ar    1  LIG1       -0.0387
      3 C          -0.1906   -0.6723   -0.0003 C.ar    1  LIG1        0.0399
      4 C          -1.0919    0.3784    0.0010 C.ar    1  LIG1        0.0413
      5 S          -2.7211   -0.2279    0.0022 S.2     1  LIG1       -0.0949
      6 H          -2.9097   -2.6692    0.0013 H       1  LIG1        0.0694
      7 H          -0.2847   -2.8824   -0.0012 H       1  LIG1        0.0635
      8 C           1.2287   -0.5580   -0.0016 C.1     1  LIG1       -0.0685
      9 C           2.4329   -0.5202   -0.0028 C.1     1  LIG1       -0.1139
     10 H           3.4979   -0.4792   -0.0036 H       1  LIG1        0.1232
     11 C          -0.8343    1.8076    0.0014 C.ar    1  LIG1        0.0289
     12 C           0.3637    2.4648    0.0010 C.ar    1  LIG1       -0.0304
     13 C           0.2436    3.8860    0.0016 C.ar    1  LIG1        0.0405
     14 C          -1.0721    4.3169    0.0024 C.ar    1  LIG1        0.0419
     15 S          -2.1480    2.9542    0.0024 S.2     1  LIG1       -0.0859
     16 H           1.3186    1.9615    0.0004 H       1  LIG1        0.0641
     17 C           1.3958    4.7236    0.0013 C.1     1  LIG1       -0.0685
     18 C           2.4017    5.3863    0.0011 C.1     1  LIG1       -0.1139
     19 H           3.2883    5.9780    0.0007 H       1  LIG1        0.1232
     20 C          -1.5970    5.6682    0.0032 C.ar    1  LIG1        0.0289
     21 C          -0.9162    6.8537    0.0033 C.ar    1  LIG1       -0.0304
     22 C          -1.7593    8.0038    0.0042 C.ar    1  LIG1        0.0405
     23 C          -3.1067    7.6868    0.0047 C.ar    1  LIG1        0.0419
     24 S          -3.3157    5.9636    0.0041 S.2     1  LIG1       -0.0859
     25 H           0.1611    6.9214    0.0028 H       1  LIG1        0.0641
     26 C          -1.2107    9.3187    0.0044 C.1     1  LIG1       -0.0685
     27 C          -0.6954   10.4074    0.0046 C.1     1  LIG1       -0.1139
     28 H          -0.2461   11.3739    0.0046 H       1  LIG1        0.1232
     29 C          -4.2614    8.5675    0.0056 C.ar    1  LIG1        0.0283
     30 C          -4.2931    9.9360    0.0059 C.ar    1  LIG1       -0.0310
     31 C          -5.6183   10.4719    0.0069 C.ar    1  LIG1        0.0323
     32 C          -6.5743    9.4918    0.0072 C.ar    1  LIG1       -0.0083
     33 S          -5.8851    7.9227    0.0064 S.2     1  LIG1       -0.0949
     34 H          -7.6462    9.6216    0.0079 H       1  LIG1        0.0706
     35 H          -3.4066   10.5518    0.0055 H       1  LIG1        0.0641
     36 C          -5.9101   11.8687    0.0074 C.1     1  LIG1       -0.0691
     37 C          -6.1494   13.0481    0.0077 C.1     1  LIG1       -0.1139
     38 H          -6.3645   14.0918    0.0079 H       1  LIG1        0.1232
@<TRIPOS>BOND
     1    10     9    1
     2     9     8    3
     3     8     3    1
     4     7     2    1
     5     3     2   ar
     6     3     4   ar
     7     2     1   ar
     8    16    12    1
     9    19    18    1
    10     4    11    1
    11     4     5   ar
    12     1     6    1
    13     1     5   ar
    14    12    11   ar
    15    12    13   ar
    16    18    17    3
    17    17    13    1
    18    11    15   ar
    19    13    14   ar
    20    14    15   ar
    21    14    20    1
    22    25    21    1
    23    20    21   ar
    24    20    24   ar
    25    21    22   ar
    26    24    23   ar
    27    22    26    1
    28    22    23   ar
    29    26    27    3
    30    28    27    1
    31    23    29    1
    32    35    30    1
    33    29    30   ar
    34    29    33   ar
    35    30    31   ar
    36    33    32   ar
    37    31    32   ar
    38    31    36    1
    39    32    34    1
    40    36    37    3
    41    37    38    1
