@<TRIPOS>MOLECULE
mol_data/opt/cam/geoms/mol2/5ae5ae-.out
 20 21 0 0 0
SMALL
GASTEIGER

@<TRIPOS>ATOM
      1 C          -2.1045   -1.8295    0.0006 C.ar    1  LIG1       -0.0225
      2 C          -0.7503   -1.8381   -0.0004 C.ar    1  LIG1       -0.0387
      3 C          -0.1786   -0.5233   -0.0003 C.ar    1  LIG1        0.0399
      4 C          -1.1372    0.4741    0.0007 C.ar    1  LIG1        0.0413
      5 S          -2.7290   -0.2241    0.0016 S.2     1  LIG1       -0.0949
      6 H          -2.7792   -2.6728    0.0007 H       1  LIG1        0.0694
      7 H          -0.1460   -2.7357   -0.0012 H       1  LIG1        0.0635
      8 C           1.2324   -0.3298   -0.0013 C.1     1  LIG1       -0.0685
      9 C           2.4326   -0.2258   -0.0022 C.1     1  LIG1       -0.1139
     10 H           3.4936   -0.1244   -0.0030 H       1  LIG1        0.1232
     11 C          -0.9626    1.9187    0.0011 C.ar    1  LIG1        0.0282
     12 C           0.1994    2.6402    0.0011 C.ar    1  LIG1       -0.0310
     13 C          -0.0113    4.0549    0.0016 C.ar    1  LIG1        0.0323
     14 C          -1.3405    4.3814    0.0019 C.ar    1  LIG1       -0.0083
     15 S          -2.3422    2.9903    0.0016 S.2     1  LIG1       -0.0949
     16 H          -1.7728    5.3708    0.0022 H       1  LIG1        0.0706
     17 H           1.1800    2.1891    0.0009 H       1  LIG1        0.0641
     18 C           1.0444    5.0150    0.0018 C.1     1  LIG1       -0.0691
     19 C           1.9396    5.8194    0.0019 C.1     1  LIG1       -0.1139
     20 H           2.7303    6.5336    0.0020 H       1  LIG1        0.1232
@<TRIPOS>BOND
     1    10     9    1
     2     9     8    3
     3     8     3    1
     4     7     2    1
     5     2     3   ar
     6     2     1   ar
     7     3     4   ar
     8     1     6    1
     9     1     5   ar
    10     4    11    1
    11     4     5   ar
    12    17    12    1
    13    11    12   ar
    14    11    15   ar
    15    12    13   ar
    16    15    14   ar
    17    13    18    1
    18    13    14   ar
    19    18    19    3
    20    19    20    1
    21    14    16    1
