@<TRIPOS>MOLECULE
mol_data/opt/cam/geoms/mol2/5ae5ae.out
 20 21 0 0 0
SMALL
GASTEIGER

@<TRIPOS>ATOM
      1 C          -2.0918   -1.8130    0.3152 C.ar    1  LIG1       -0.0225
      2 C          -0.7528   -1.8385    0.1075 C.ar    1  LIG1       -0.0387
      3 C          -0.1855   -0.5322   -0.0546 C.ar    1  LIG1        0.0399
      4 C          -1.1308    0.4702    0.0412 C.ar    1  LIG1        0.0413
      5 S          -2.7032   -0.2021    0.3393 S.2     1  LIG1       -0.0949
      6 H          -2.7604   -2.6488    0.4607 H       1  LIG1        0.0694
      7 H          -0.1611   -2.7432    0.0578 H       1  LIG1        0.0635
      8 C           1.2014   -0.3291   -0.3094 C.1     1  LIG1       -0.0685
      9 C           2.3795   -0.1977   -0.5223 C.1     1  LIG1       -0.1139
     10 H           3.4195   -0.0722   -0.7183 H       1  LIG1        0.1232
     11 C          -0.9406    1.9084   -0.0654 C.ar    1  LIG1        0.0282
     12 C           0.1706    2.6386    0.2459 C.ar    1  LIG1       -0.0310
     13 C           0.0065    4.0414    0.0171 C.ar    1  LIG1        0.0323
     14 C          -1.2394    4.3446   -0.4636 C.ar    1  LIG1       -0.0083
     15 S          -2.2119    2.9459   -0.6579 S.2     1  LIG1       -0.0949
     16 H          -1.6230    5.3224   -0.7147 H       1  LIG1        0.0706
     17 H           1.0791    2.2016    0.6350 H       1  LIG1        0.0641
     18 C           1.0203    5.0128    0.2712 C.1     1  LIG1       -0.0691
     19 C           1.8804    5.8264    0.4877 C.1     1  LIG1       -0.1139
     20 H           2.6400    6.5486    0.6796 H       1  LIG1        0.1232
@<TRIPOS>BOND
     1    10     9    1
     2    16    14    1
     3    15    14   ar
     4    15    11   ar
     5     9     8    3
     6    14    13   ar
     7     8     3    1
     8    11     4    1
     9    11    12   ar
    10     3     4   ar
    11     3     2   ar
    12    13    12   ar
    13    13    18    1
    14     4     5   ar
    15     7     2    1
    16     2     1   ar
    17    12    17    1
    18    18    19    3
    19     1     5   ar
    20     1     6    1
    21    19    20    1
