@<TRIPOS>MOLECULE
mol_data/opt/cam/geoms/mol2/5ae5ae5ae5ae.out
 38 41 0 0 0
SMALL
GASTEIGER

@<TRIPOS>ATOM
      1 C          -2.0904   -1.9213    0.1697 C.ar    1  LIG1       -0.0225
      2 C          -0.7637   -1.9561   -0.1059 C.ar    1  LIG1       -0.0387
      3 C          -0.1655   -0.6547   -0.1485 C.ar    1  LIG1        0.0399
      4 C          -1.0755    0.3537    0.1064 C.ar    1  LIG1        0.0413
      5 S          -2.6522   -0.3096    0.4043 S.2     1  LIG1       -0.0949
      6 H          -2.7762   -2.7515    0.2542 H       1  LIG1        0.0694
      7 H          -0.2025   -2.8636   -0.2859 H       1  LIG1        0.0635
      8 C           1.2132   -0.4593   -0.4485 C.1     1  LIG1       -0.0685
      9 C           2.3835   -0.3352   -0.7048 C.1     1  LIG1       -0.1139
     10 H           3.4165   -0.2165   -0.9385 H       1  LIG1        0.1232
     11 C          -0.8482    1.7876    0.1516 C.ar    1  LIG1        0.0289
     12 C           0.3044    2.4545    0.4520 C.ar    1  LIG1       -0.0304
     13 C           0.1712    3.8748    0.4150 C.ar    1  LIG1        0.0405
     14 C          -1.1064    4.2839    0.0795 C.ar    1  LIG1        0.0419
     15 S          -2.1267    2.9125   -0.2160 S.2     1  LIG1       -0.0859
     16 H           1.2277    1.9575    0.7132 H       1  LIG1        0.0641
     17 C           1.2527    4.7460    0.7334 C.1     1  LIG1       -0.0685
     18 C           2.1899    5.4507    1.0078 C.1     1  LIG1       -0.1139
     19 H           3.0130    6.0798    1.2581 H       1  LIG1        0.1232
     20 C          -1.6226    5.6333   -0.0503 C.ar    1  LIG1        0.0289
     21 C          -0.9393    6.7789   -0.3436 C.ar    1  LIG1       -0.0304
     22 C          -1.7676    7.9390   -0.4079 C.ar    1  LIG1        0.0405
     23 C          -3.0986    7.6613   -0.1586 C.ar    1  LIG1        0.0419
     24 S          -3.3155    5.9752    0.1830 S.2     1  LIG1       -0.0859
     25 H           0.1245    6.8053   -0.5305 H       1  LIG1        0.0641
     26 C          -1.2478    9.2250   -0.7345 C.1     1  LIG1       -0.0685
     27 C          -0.7734   10.2963   -1.0124 C.1     1  LIG1       -0.1139
     28 H          -0.3620   11.2462   -1.2663 H       1  LIG1        0.1232
     29 C          -4.2291    8.5731   -0.1417 C.ar    1  LIG1        0.0283
     30 C          -4.2322    9.9111    0.1360 C.ar    1  LIG1       -0.0310
     31 C          -5.5338   10.4991    0.0629 C.ar    1  LIG1        0.0323
     32 C          -6.4973    9.5835   -0.2680 C.ar    1  LIG1       -0.0083
     33 S          -5.8423    8.0176   -0.5079 S.2     1  LIG1       -0.0949
     34 H          -7.5558    9.7622   -0.3855 H       1  LIG1        0.0706
     35 H          -3.3424   10.4665    0.3953 H       1  LIG1        0.0641
     36 C          -5.7992   11.8781    0.3160 C.1     1  LIG1       -0.0691
     37 C          -6.0155   13.0423    0.5308 C.1     1  LIG1       -0.1139
     38 H          -6.2096   14.0726    0.7215 H       1  LIG1        0.1232
@<TRIPOS>BOND
     1    28    27    1
     2    27    26    3
     3    10     9    1
     4    26    22    1
     5     9     8    3
     6    25    21    1
     7    33    32   ar
     8    33    29   ar
     9     8     3    1
    10    22    21   ar
    11    22    23   ar
    12    34    32    1
    13    21    20   ar
    14     7     2    1
    15    32    31   ar
    16    15    14   ar
    17    15    11   ar
    18    23    29    1
    19    23    24   ar
    20     3     2   ar
    21     3     4   ar
    22    29    30   ar
    23     2     1   ar
    24    20    14    1
    25    20    24   ar
    26    31    30   ar
    27    31    36    1
    28    14    13   ar
    29     4    11    1
    30     4     5   ar
    31    30    35    1
    32    11    12   ar
    33     1     6    1
    34     1     5   ar
    35    36    37    3
    36    13    12   ar
    37    13    17    1
    38    12    16    1
    39    37    38    1
    40    17    18    3
    41    18    19    1
