@<TRIPOS>MOLECULE
mol_data/opt/cam/geoms/mol2/5ae5ae5ae-.out
 29 31 0 0 0
SMALL
GASTEIGER

@<TRIPOS>ATOM
      1 C          -2.0835   -1.8961   -0.0456 C.ar    1  LIG1       -0.0225
      2 C          -0.7566   -1.8974   -0.3219 C.ar    1  LIG1       -0.0387
      3 C          -0.1781   -0.5865   -0.3014 C.ar    1  LIG1        0.0399
      4 C          -1.1029    0.3945    0.0019 C.ar    1  LIG1        0.0413
      5 S          -2.6693   -0.3062    0.2668 S.2     1  LIG1       -0.0949
      6 H          -2.7567   -2.7397   -0.0019 H       1  LIG1        0.0694
      7 H          -0.1817   -2.7865   -0.5455 H       1  LIG1        0.0635
      8 C           1.1974   -0.3560   -0.5913 C.1     1  LIG1       -0.0685
      9 C           2.3655   -0.2020   -0.8409 C.1     1  LIG1       -0.1139
     10 H           3.3965   -0.0562   -1.0683 H       1  LIG1        0.1232
     11 C          -0.8977    1.8281    0.1168 C.ar    1  LIG1        0.0289
     12 C           0.2440    2.4970    0.4509 C.ar    1  LIG1       -0.0304
     13 C           0.0884    3.9157    0.4827 C.ar    1  LIG1        0.0405
     14 C          -1.1945    4.3205    0.1665 C.ar    1  LIG1        0.0419
     15 S          -2.1929    2.9502   -0.1977 S.2     1  LIG1       -0.0859
     16 H           1.1747    2.0023    0.6890 H       1  LIG1        0.0641
     17 C           1.1560    4.7880    0.8433 C.1     1  LIG1       -0.0685
     18 C           2.0816    5.4941    1.1514 C.1     1  LIG1       -0.1139
     19 H           2.8938    6.1248    1.4313 H       1  LIG1        0.1232
     20 C          -1.7318    5.6686    0.1016 C.ar    1  LIG1        0.0283
     21 C          -1.0666    6.8320   -0.1651 C.ar    1  LIG1       -0.0310
     22 C          -1.9153    7.9831   -0.1498 C.ar    1  LIG1        0.0323
     23 C          -3.2177    7.6620    0.1270 C.ar    1  LIG1       -0.0083
     24 S          -3.4252    5.9801    0.3855 S.2     1  LIG1       -0.0949
     25 H          -4.0572    8.3379    0.1947 H       1  LIG1        0.0706
     26 H          -0.0080    6.8763   -0.3767 H       1  LIG1        0.0641
     27 C          -1.4595    9.3111   -0.4042 C.1     1  LIG1       -0.0691
     28 C          -1.0679   10.4285   -0.6198 C.1     1  LIG1       -0.1139
     29 H          -0.7239   11.4186   -0.8114 H       1  LIG1        0.1232
@<TRIPOS>BOND
     1    10     9    1
     2     9     8    3
     3    29    28    1
     4    28    27    3
     5     8     3    1
     6     7     2    1
     7    27    22    1
     8    26    21    1
     9     2     3   ar
    10     2     1   ar
    11     3     4   ar
    12    15    11   ar
    13    15    14   ar
    14    21    22   ar
    15    21    20   ar
    16    22    23   ar
    17     1     6    1
    18     1     5   ar
    19     4    11    1
    20     4     5   ar
    21    20    14    1
    22    20    24   ar
    23    11    12   ar
    24    23    25    1
    25    23    24   ar
    26    14    13   ar
    27    12    13   ar
    28    12    16    1
    29    13    17    1
    30    17    18    3
    31    18    19    1
