@<TRIPOS>MOLECULE
mol_data/opt/cam/geoms/mol2/5ae5ae-5ae-5ae.out
 38 41 0 0 0
SMALL
GASTEIGER

@<TRIPOS>ATOM
      1 C          -2.0871   -1.9209   -0.2032 C.ar    1  LIG1       -0.0225
      2 C          -0.7619   -1.9559    0.0795 C.ar    1  LIG1       -0.0387
      3 C          -0.1643   -0.6545    0.1286 C.ar    1  LIG1        0.0399
      4 C          -1.0733    0.3542   -0.1288 C.ar    1  LIG1        0.0413
      5 S          -2.6481   -0.3089   -0.4368 S.2     1  LIG1       -0.0949
      6 H          -2.7721   -2.7511   -0.2934 H       1  LIG1        0.0694
      7 H          -0.2013   -2.8637    0.2603 H       1  LIG1        0.0635
      8 C           1.2127   -0.4594    0.4365 C.1     1  LIG1       -0.0685
      9 C           2.3815   -0.3354    0.6994 C.1     1  LIG1       -0.1139
     10 H           3.4132   -0.2170    0.9389 H       1  LIG1        0.1232
     11 C          -0.8462    1.7884   -0.1693 C.ar    1  LIG1        0.0289
     12 C           0.3077    2.4563   -0.4618 C.ar    1  LIG1       -0.0304
     13 C           0.1738    3.8765   -0.4220 C.ar    1  LIG1        0.0405
     14 C          -1.1058    4.2843   -0.0924 C.ar    1  LIG1        0.0419
     15 S          -2.1271    2.9119    0.1942 S.2     1  LIG1       -0.0859
     16 H           1.2325    1.9603   -0.7192 H       1  LIG1        0.0641
     17 C           1.2567    4.7488   -0.7325 C.1     1  LIG1       -0.0685
     18 C           2.1951    5.4546   -1.0000 C.1     1  LIG1       -0.1139
     19 H           3.0194    6.0845   -1.2444 H       1  LIG1        0.1232
     20 C          -1.6231    5.6332    0.0379 C.ar    1  LIG1        0.0289
     21 C          -0.9418    6.7784    0.3378 C.ar    1  LIG1       -0.0304
     22 C          -1.7708    7.9380    0.4005 C.ar    1  LIG1        0.0405
     23 C          -3.1003    7.6605    0.1432 C.ar    1  LIG1        0.0419
     24 S          -3.3148    5.9752   -0.2037 S.2     1  LIG1       -0.0859
     25 H           0.1210    6.8046    0.5306 H       1  LIG1        0.0641
     26 C          -1.2533    9.2234    0.7331 C.1     1  LIG1       -0.0685
     27 C          -0.7807   10.2942    1.0163 C.1     1  LIG1       -0.1139
     28 H          -0.3711   11.2435    1.2748 H       1  LIG1        0.1232
     29 C          -4.2310    8.5720    0.1224 C.ar    1  LIG1        0.0283
     30 C          -4.2330    9.9107   -0.1520 C.ar    1  LIG1       -0.0310
     31 C          -5.5353   10.4981   -0.0846 C.ar    1  LIG1        0.0323
     32 C          -6.5002    9.5813    0.2388 C.ar    1  LIG1       -0.0083
     33 S          -5.8460    8.0150    0.4783 S.2     1  LIG1       -0.0949
     34 H          -7.5594    9.7594    0.3509 H       1  LIG1        0.0706
     35 H          -3.3420   10.4670   -0.4050 H       1  LIG1        0.0641
     36 C          -5.7996   11.8776   -0.3356 C.1     1  LIG1       -0.0691
     37 C          -6.0151   13.0423   -0.5486 C.1     1  LIG1       -0.1139
     38 H          -6.2086   14.0730   -0.7378 H       1  LIG1        0.1232
@<TRIPOS>BOND
     1    19    18    1
     2    18    17    3
     3    38    37    1
     4    17    13    1
     5    16    12    1
     6    37    36    3
     7    12    13   ar
     8    12    11   ar
     9     5     1   ar
    10     5     4   ar
    11    13    14   ar
    12    35    30    1
    13    36    31    1
    14     6     1    1
    15    24    20   ar
    16    24    23   ar
    17     1     2   ar
    18    11     4    1
    19    11    15   ar
    20    30    31   ar
    21    30    29   ar
    22     4     3   ar
    23    14    20    1
    24    14    15   ar
    25    31    32   ar
    26    20    21   ar
    27     2     3   ar
    28     2     7    1
    29    29    23    1
    30    29    33   ar
    31     3     8    1
    32    23    22   ar
    33    32    34    1
    34    32    33   ar
    35    21    22   ar
    36    21    25    1
    37    22    26    1
    38     8     9    3
    39     9    10    1
    40    26    27    3
    41    27    28    1
