@<TRIPOS>MOLECULE
mol_data/opt/cam/geoms/mol2/5ae5ae-5ae-5ae-.out
 38 41 0 0 0
SMALL
GASTEIGER

@<TRIPOS>ATOM
      1 C          -2.0566   -1.9111   -0.4484 C.ar    1  LIG1       -0.0225
      2 C          -0.7581   -1.9555   -0.0622 C.ar    1  LIG1       -0.0387
      3 C          -0.1687   -0.6565    0.0737 C.ar    1  LIG1        0.0399
      4 C          -1.0560    0.3601   -0.2249 C.ar    1  LIG1        0.0413
      5 S          -2.6002   -0.2924   -0.6772 S.2     1  LIG1       -0.0949
      6 H          -2.7308   -2.7378   -0.6179 H       1  LIG1        0.0694
      7 H          -0.2121   -2.8686    0.1352 H       1  LIG1        0.0635
      8 C           1.1790   -0.4716    0.4961 C.1     1  LIG1       -0.0685
      9 C           2.3230   -0.3564    0.8547 C.1     1  LIG1       -0.1139
     10 H           3.3323   -0.2460    1.1789 H       1  LIG1        0.1232
     11 C          -0.8291    1.7946   -0.2039 C.ar    1  LIG1        0.0289
     12 C           0.3433    2.4705   -0.3831 C.ar    1  LIG1       -0.0304
     13 C           0.2040    3.8889   -0.3114 C.ar    1  LIG1        0.0405
     14 C          -1.0984    4.2873   -0.0729 C.ar    1  LIG1        0.0419
     15 S          -2.1369    2.9075    0.0899 S.2     1  LIG1       -0.0859
     16 H           1.2866    1.9819   -0.5807 H       1  LIG1        0.0641
     17 C           1.3068    4.7694   -0.5081 C.1     1  LIG1       -0.0685
     18 C           2.2624    5.4822   -0.6786 C.1     1  LIG1       -0.1139
     19 H           3.1024    6.1186   -0.8375 H       1  LIG1        0.1232
     20 C          -1.6270    5.6320    0.0563 C.ar    1  LIG1        0.0289
     21 C          -0.9738    6.7673    0.4432 C.ar    1  LIG1       -0.0304
     22 C          -1.8074    7.9249    0.4746 C.ar    1  LIG1        0.0405
     23 C          -3.1118    7.6559    0.1046 C.ar    1  LIG1        0.0419
     24 S          -3.2949    5.9819   -0.3084 S.2     1  LIG1       -0.0859
     25 H           0.0703    6.7873    0.7204 H       1  LIG1        0.0641
     26 C          -1.3202    9.1995    0.8856 C.1     1  LIG1       -0.0685
     27 C          -0.8736   10.2611    1.2371 C.1     1  LIG1       -0.1139
     28 H          -0.4874   11.2020    1.5556 H       1  LIG1        0.1232
     29 C          -4.2390    8.5681    0.0215 C.ar    1  LIG1        0.0283
     30 C          -4.2218    9.9144   -0.2122 C.ar    1  LIG1       -0.0310
     31 C          -5.5264   10.5002   -0.2305 C.ar    1  LIG1        0.0323
     32 C          -6.5122    9.5746   -0.0119 C.ar    1  LIG1       -0.0083
     33 S          -5.8761    8.0016    0.2318 S.2     1  LIG1       -0.0949
     34 H          -7.5772    9.7498    0.0214 H       1  LIG1        0.0706
     35 H          -3.3146   10.4776   -0.3772 H       1  LIG1        0.0641
     36 C          -5.7727   11.8867   -0.4605 C.1     1  LIG1       -0.0691
     37 C          -5.9728   13.0574   -0.6551 C.1     1  LIG1       -0.1139
     38 H          -6.1527   14.0933   -0.8282 H       1  LIG1        0.1232
@<TRIPOS>BOND
     1    19    18    1
     2    38    37    1
     3    18    17    3
     4     5     1   ar
     5     5     4   ar
     6    37    36    3
     7     6     1    1
     8    16    12    1
     9    17    13    1
    10    36    31    1
    11     1     2   ar
    12    12    13   ar
    13    12    11   ar
    14    35    30    1
    15    13    14   ar
    16    24    20   ar
    17    24    23   ar
    18    31    30   ar
    19    31    32   ar
    20     4    11    1
    21     4     3   ar
    22    30    29   ar
    23    11    15   ar
    24    14    20    1
    25    14    15   ar
    26     2     3   ar
    27     2     7    1
    28    32    34    1
    29    32    33   ar
    30    29    23    1
    31    29    33   ar
    32    20    21   ar
    33     3     8    1
    34    23    22   ar
    35    21    22   ar
    36    21    25    1
    37    22    26    1
    38     8     9    3
    39     9    10    1
    40    26    27    3
    41    27    28    1
