@<TRIPOS>MOLECULE
mol_data/opt/cam/geoms/mol2/5af.out
 10 10 0 0 0
SMALL
GASTEIGER

@<TRIPOS>ATOM
      1 C          -2.0603   -1.7471   -0.0002 C.ar    1  LIG1       -0.0208
      2 C          -0.7036   -1.7082   -0.0004 C.ar    1  LIG1       -0.0131
      3 C          -0.2048   -0.3690   -0.0002 C.ar    1  LIG1        0.1238
      4 C          -1.1917    0.5708    0.0003 C.ar    1  LIG1        0.0172
      5 S          -2.7556   -0.1696    0.0013 S.2     1  LIG1       -0.1014
      6 H          -2.6971   -2.6198   -0.0005 H       1  LIG1        0.0694
      7 H          -1.0904    1.6464    0.0005 H       1  LIG1        0.0730
      8 H          -0.0575   -2.5763   -0.0010 H       1  LIG1        0.0659
      9 O           1.1378   -0.1560   -0.0006 O.3     1  LIG1       -0.5062
     10 H           1.3106    0.7923   -0.0005 H       1  LIG1        0.2922
@<TRIPOS>BOND
     1     8     2    1
     2     9    10    1
     3     9     3    1
     4     6     1    1
     5     2     1   ar
     6     2     3   ar
     7     1     5   ar
     8     3     4   ar
     9     4     7    1
    10     4     5   ar
