@<TRIPOS>MOLECULE
mol_data/opt/cam/geoms/mol2/5af5af-5af-.out
 26 28 0 0 0
SMALL
GASTEIGER

@<TRIPOS>ATOM
      1 C          -1.8387   -1.9681    0.6042 C.ar    1  LIG1       -0.0202
      2 C          -0.7090   -1.8958   -0.1458 C.ar    1  LIG1       -0.0125
      3 C          -0.2908   -0.5498   -0.3550 C.ar    1  LIG1        0.1321
      4 C          -1.1079    0.3779    0.2442 C.ar    1  LIG1        0.0674
      5 S          -2.4184   -0.4160    1.0760 S.2     1  LIG1       -0.0924
      6 H          -2.3698   -2.8568    0.9126 H       1  LIG1        0.0695
      7 H          -0.1777   -2.7461   -0.5522 H       1  LIG1        0.0659
      8 O           0.8042   -0.2815   -1.1033 O.3     1  LIG1       -0.5056
      9 H           0.8394    0.6711   -1.2719 H       1  LIG1        0.2922
     10 C          -0.9400    1.8184    0.1975 C.ar    1  LIG1        0.0336
     11 C           0.2390    2.5150    0.2530 C.ar    1  LIG1       -0.0041
     12 C           0.0552    3.9202    0.1303 C.ar    1  LIG1        0.1327
     13 C          -1.2581    4.2950   -0.0031 C.ar    1  LIG1        0.0679
     14 S          -2.2932    2.8911   -0.0144 S.2     1  LIG1       -0.0833
     15 H           1.2060    2.0641    0.4386 H       1  LIG1        0.0666
     16 O           1.1220    4.7514    0.1495 O.3     1  LIG1       -0.5056
     17 H           0.8221    5.6446   -0.0739 H       1  LIG1        0.2922
     18 C          -1.7479    5.6558   -0.1280 C.ar    1  LIG1        0.0330
     19 C          -1.2906    6.7631    0.5361 C.ar    1  LIG1       -0.0047
     20 C          -1.9572    7.9599    0.1384 C.ar    1  LIG1        0.1245
     21 C          -2.9126    7.7532   -0.8103 C.ar    1  LIG1        0.0178
     22 S          -2.9980    6.0844   -1.2603 S.2     1  LIG1       -0.0923
     23 H          -3.5739    8.4788   -1.2614 H       1  LIG1        0.0730
     24 H          -0.5582    6.7372    1.3337 H       1  LIG1        0.0666
     25 O          -1.6132    9.1365    0.7218 O.3     1  LIG1       -0.5062
     26 H          -2.1647    9.8444    0.3691 H       1  LIG1        0.2922
@<TRIPOS>BOND
     1     9     8    1
     2    23    21    1
     3    22    21   ar
     4    22    18   ar
     5     8     3    1
     6    21    20   ar
     7     7     2    1
     8     3     2   ar
     9     3     4   ar
    10     2     1   ar
    11    18    13    1
    12    18    19   ar
    13    17    16    1
    14    14    13   ar
    15    14    10   ar
    16    13    12   ar
    17    12    16    1
    18    12    11   ar
    19    20    19   ar
    20    20    25    1
    21    10     4    1
    22    10    11   ar
    23     4     5   ar
    24    11    15    1
    25    26    25    1
    26    19    24    1
    27     1     6    1
    28     1     5   ar
