@<TRIPOS>MOLECULE
mol_data/opt/cam/geoms/mol2/5af5af-5af-5af-.out
 34 37 0 0 0
SMALL
GASTEIGER

@<TRIPOS>ATOM
      1 C          -1.4654   -2.1133    0.7019 C.ar    1  LIG1       -0.0202
      2 C          -0.5822   -1.9666   -0.3189 C.ar    1  LIG1       -0.0125
      3 C          -0.2818   -0.5973   -0.5737 C.ar    1  LIG1        0.1321
      4 C          -0.9383    0.2731    0.2624 C.ar    1  LIG1        0.0674
      5 S          -1.9491   -0.6051    1.3791 S.2     1  LIG1       -0.0924
      6 H          -1.8637   -3.0343    1.1022 H       1  LIG1        0.0695
      7 H          -0.1513   -2.7787   -0.8893 H       1  LIG1        0.0659
      8 O           0.5616   -0.2569   -1.5755 O.3     1  LIG1       -0.5056
      9 H           0.5159    0.7007   -1.7091 H       1  LIG1        0.2922
     10 C          -0.8367    1.7199    0.2370 C.ar    1  LIG1        0.0336
     11 C           0.2889    2.4652    0.0001 C.ar    1  LIG1       -0.0041
     12 C           0.0338    3.8640   -0.0014 C.ar    1  LIG1        0.1327
     13 C          -1.2775    4.1858    0.2491 C.ar    1  LIG1        0.0680
     14 S          -2.2303    2.7385    0.4541 S.2     1  LIG1       -0.0833
     15 H           1.2837    2.0510   -0.1074 H       1  LIG1        0.0666
     16 O           1.0375    4.7386   -0.2378 O.3     1  LIG1       -0.5056
     17 H           0.6607    5.6244   -0.3420 H       1  LIG1        0.2922
     18 C          -1.8269    5.5248    0.3292 C.ar    1  LIG1        0.0336
     19 C          -1.2263    6.6342    0.8661 C.ar    1  LIG1       -0.0041
     20 C          -2.0208    7.8066    0.7389 C.ar    1  LIG1        0.1327
     21 C          -3.2224    7.5930    0.1108 C.ar    1  LIG1        0.0679
     22 S          -3.3754    5.9208   -0.3585 S.2     1  LIG1       -0.0833
     23 H          -0.2898    6.6186    1.4098 H       1  LIG1        0.0666
     24 O          -1.5894    8.9810    1.2519 O.3     1  LIG1       -0.5056
     25 H          -2.3203    9.6159    1.2288 H       1  LIG1        0.2922
     26 C          -4.2530    8.5885   -0.1194 C.ar    1  LIG1        0.0330
     27 C          -4.0714    9.8956   -0.4873 C.ar    1  LIG1       -0.0047
     28 C          -5.2976   10.6189   -0.5767 C.ar    1  LIG1        0.1245
     29 C          -6.3914    9.8604   -0.2873 C.ar    1  LIG1        0.0178
     30 S          -5.9402    8.2428    0.1308 S.2     1  LIG1       -0.0923
     31 H          -7.4311   10.1536   -0.3037 H       1  LIG1        0.0730
     32 H          -3.1156   10.3267   -0.7589 H       1  LIG1        0.0666
     33 O          -5.2715   11.9263   -0.9411 O.3     1  LIG1       -0.5062
     34 H          -6.1723   12.2680   -0.9796 H       1  LIG1        0.2922
@<TRIPOS>BOND
     1     9     8    1
     2     8     3    1
     3    34    33    1
     4    33    28    1
     5     7     2    1
     6    32    27    1
     7    28    27   ar
     8    28    29   ar
     9     3     2   ar
    10     3     4   ar
    11    27    26   ar
    12    22    21   ar
    13    22    18   ar
    14    17    16    1
    15     2     1   ar
    16    31    29    1
    17    29    30   ar
    18    16    12    1
    19    26    21    1
    20    26    30   ar
    21    15    11    1
    22    12    11   ar
    23    12    13   ar
    24    11    10   ar
    25    21    20   ar
    26    10     4    1
    27    10    14   ar
    28    13    18    1
    29    13    14   ar
    30     4     5   ar
    31    18    19   ar
    32     1     6    1
    33     1     5   ar
    34    20    19   ar
    35    20    24    1
    36    19    23    1
    37    25    24    1
