@<TRIPOS>MOLECULE
mol_data/opt/cam/geoms/mol2/5af5af5af-5af.out
 34 37 0 0 0
SMALL
GASTEIGER

@<TRIPOS>ATOM
      1 C          -1.7566   -2.1128   -0.1996 C.ar    1  LIG1       -0.0202
      2 C          -0.4387   -1.9434   -0.4795 C.ar    1  LIG1       -0.0125
      3 C          -0.0400   -0.5797   -0.3724 C.ar    1  LIG1        0.1321
      4 C          -1.0617    0.2633   -0.0070 C.ar    1  LIG1        0.0674
      5 S          -2.5422   -0.6335    0.2027 S.2     1  LIG1       -0.0924
      6 H          -2.3184   -3.0355   -0.2039 H       1  LIG1        0.0695
      7 H           0.2436   -2.7347   -0.7597 H       1  LIG1        0.0659
      8 O           1.2350   -0.2165   -0.6422 O.3     1  LIG1       -0.5056
      9 H           1.2820    0.7496   -0.6812 H       1  LIG1        0.2922
     10 C          -0.9603    1.6990    0.1705 C.ar    1  LIG1        0.0336
     11 C           0.0898    2.3931    0.7130 C.ar    1  LIG1       -0.0041
     12 C          -0.1111    3.8006    0.6938 C.ar    1  LIG1        0.1327
     13 C          -1.3096    4.1792    0.1405 C.ar    1  LIG1        0.0680
     14 S          -2.2040    2.7787   -0.3903 S.2     1  LIG1       -0.0833
     15 H           0.9466    1.9310    1.1875 H       1  LIG1        0.0666
     16 O           0.8150    4.6276    1.2292 O.3     1  LIG1       -0.5056
     17 H           0.4360    5.5159    1.2987 H       1  LIG1        0.2922
     18 C          -1.8043    5.5368    0.0248 C.ar    1  LIG1        0.0336
     19 C          -1.0742    6.6595   -0.2687 C.ar    1  LIG1       -0.0041
     20 C          -1.8587    7.8456   -0.2545 C.ar    1  LIG1        0.1327
     21 C          -3.1830    7.6278    0.0319 C.ar    1  LIG1        0.0679
     22 S          -3.4717    5.9329    0.3264 S.2     1  LIG1       -0.0833
     23 H          -0.0291    6.6521   -0.5523 H       1  LIG1        0.0666
     24 O          -1.2859    9.0442   -0.5076 O.3     1  LIG1       -0.5056
     25 H          -1.9348    9.7409   -0.3308 H       1  LIG1        0.2922
     26 C          -4.2195    8.6419    0.0964 C.ar    1  LIG1        0.0330
     27 C          -4.3694    9.7241   -0.7298 C.ar    1  LIG1       -0.0047
     28 C          -5.4655   10.5567   -0.3555 C.ar    1  LIG1        0.1245
     29 C          -6.1385   10.1001    0.7373 C.ar    1  LIG1        0.0178
     30 S          -5.4243    8.6489    1.3523 S.2     1  LIG1       -0.0923
     31 H          -7.0131   10.5246    1.2087 H       1  LIG1        0.0730
     32 H          -3.7770    9.8995   -1.6195 H       1  LIG1        0.0666
     33 O          -5.7402   11.6632   -1.0924 O.3     1  LIG1       -0.5062
     34 H          -6.5204   12.1028   -0.7351 H       1  LIG1        0.2922
@<TRIPOS>BOND
     1    32    27    1
     2    33    34    1
     3    33    28    1
     4     7     2    1
     5    27    28   ar
     6    27    26   ar
     7     9     8    1
     8     8     3    1
     9    23    19    1
    10    24    25    1
    11    24    20    1
    12     2     3   ar
    13     2     1   ar
    14    14    13   ar
    15    14    10   ar
    16     3     4   ar
    17    28    29   ar
    18    19    20   ar
    19    19    18   ar
    20    20    21   ar
    21     6     1    1
    22     1     5   ar
    23     4    10    1
    24     4     5   ar
    25    18    13    1
    26    18    22   ar
    27    21    26    1
    28    21    22   ar
    29    26    30   ar
    30    13    12   ar
    31    10    11   ar
    32    12    11   ar
    33    12    16    1
    34    11    15    1
    35    29    31    1
    36    29    30   ar
    37    16    17    1
