@<TRIPOS>MOLECULE
mol_data/opt/cam/geoms/mol2/5af5af-5af-5af.out
 34 37 0 0 0
SMALL
GASTEIGER

@<TRIPOS>ATOM
      1 C          -1.4644   -2.1137    0.6995 C.ar    1  LIG1       -0.0202
      2 C          -0.5779   -1.9656   -0.3183 C.ar    1  LIG1       -0.0125
      3 C          -0.2773   -0.5959   -0.5709 C.ar    1  LIG1        0.1321
      4 C          -0.9369    0.2734    0.2638 C.ar    1  LIG1        0.0674
      5 S          -1.9509   -0.6063    1.3765 S.2     1  LIG1       -0.0924
      6 H          -1.8635   -3.0353    1.0977 H       1  LIG1        0.0695
      7 H          -0.1448   -2.7770   -0.8881 H       1  LIG1        0.0659
      8 O           0.5690   -0.2542   -1.5697 O.3     1  LIG1       -0.5056
      9 H           0.5233    0.7035   -1.7025 H       1  LIG1        0.2922
     10 C          -0.8359    1.7202    0.2401 C.ar    1  LIG1        0.0336
     11 C           0.2900    2.4663    0.0076 C.ar    1  LIG1       -0.0041
     12 C           0.0342    3.8650    0.0066 C.ar    1  LIG1        0.1327
     13 C          -1.2780    4.1859    0.2532 C.ar    1  LIG1        0.0680
     14 S          -2.2308    2.7380    0.4537 S.2     1  LIG1       -0.0833
     15 H           1.2854    2.0527   -0.0971 H       1  LIG1        0.0666
     16 O           1.0383    4.7403   -0.2258 O.3     1  LIG1       -0.5056
     17 H           0.6614    5.6260   -0.3303 H       1  LIG1        0.2922
     18 C          -1.8283    5.5247    0.3328 C.ar    1  LIG1        0.0336
     19 C          -1.2299    6.6337    0.8727 C.ar    1  LIG1       -0.0041
     20 C          -2.0246    7.8059    0.7442 C.ar    1  LIG1        0.1327
     21 C          -3.2241    7.5924    0.1120 C.ar    1  LIG1        0.0679
     22 S          -3.3748    5.9206   -0.3595 S.2     1  LIG1       -0.0833
     23 H          -0.2952    6.6180    1.4195 H       1  LIG1        0.0666
     24 O          -1.5954    8.9800    1.2597 O.3     1  LIG1       -0.5056
     25 H          -2.3265    9.6146    1.2349 H       1  LIG1        0.2922
     26 C          -4.2543    8.5876   -0.1206 C.ar    1  LIG1        0.0330
     27 C          -4.0722    9.8951   -0.4866 C.ar    1  LIG1       -0.0047
     28 C          -5.2985   10.6179   -0.5793 C.ar    1  LIG1        0.1245
     29 C          -6.3928    9.8587   -0.2941 C.ar    1  LIG1        0.0178
     30 S          -5.9422    8.2408    0.1238 S.2     1  LIG1       -0.0923
     31 H          -7.4326   10.1514   -0.3137 H       1  LIG1        0.0730
     32 H          -3.1157   10.3269   -0.7547 H       1  LIG1        0.0666
     33 O          -5.2718   11.9257   -0.9424 O.3     1  LIG1       -0.5062
     34 H          -6.1726   12.2671   -0.9835 H       1  LIG1        0.2922
@<TRIPOS>BOND
     1     9     8    1
     2     8     3    1
     3    34    33    1
     4    33    28    1
     5     7     2    1
     6    32    27    1
     7    28    27   ar
     8    28    29   ar
     9     3     2   ar
    10     3     4   ar
    11    27    26   ar
    12    22    21   ar
    13    22    18   ar
    14    17    16    1
    15     2     1   ar
    16    31    29    1
    17    29    30   ar
    18    16    12    1
    19    26    21    1
    20    26    30   ar
    21    15    11    1
    22    12    11   ar
    23    12    13   ar
    24    11    10   ar
    25    21    20   ar
    26    10     4    1
    27    10    14   ar
    28    13    18    1
    29    13    14   ar
    30     4     5   ar
    31    18    19   ar
    32     1     6    1
    33     1     5   ar
    34    20    19   ar
    35    20    24    1
    36    19    23    1
    37    25    24    1
