@<TRIPOS>MOLECULE
mol_data/opt/cam/geoms/mol2/5af5af.out
 18 19 0 0 0
SMALL
GASTEIGER

@<TRIPOS>ATOM
      1 C          -2.0064   -1.8560    0.2971 C.ar    1  LIG1       -0.0202
      2 C          -0.7042   -1.8110   -0.0848 C.ar    1  LIG1       -0.0125
      3 C          -0.2305   -0.4730   -0.2142 C.ar    1  LIG1        0.1321
      4 C          -1.1797    0.4756    0.0761 C.ar    1  LIG1        0.0674
      5 S          -2.6851   -0.2869    0.5126 S.2     1  LIG1       -0.0924
      6 H          -2.6136   -2.7329    0.4688 H       1  LIG1        0.0695
      7 H          -0.0838   -2.6757   -0.2796 H       1  LIG1        0.0659
      8 O           1.0405   -0.2309   -0.6115 O.3     1  LIG1       -0.5056
      9 H           1.1341    0.7171   -0.7842 H       1  LIG1        0.2922
     10 C          -0.9906    1.9146    0.0220 C.ar    1  LIG1        0.0330
     11 C           0.1140    2.6187    0.4214 C.ar    1  LIG1       -0.0047
     12 C          -0.0065    4.0195    0.1791 C.ar    1  LIG1        0.1245
     13 C          -1.1940    4.3667   -0.3902 C.ar    1  LIG1        0.0178
     14 S          -2.1846    2.9751   -0.6698 S.2     1  LIG1       -0.0923
     15 H          -1.5460    5.3542   -0.6517 H       1  LIG1        0.0730
     16 H           0.9620    2.1828    0.9350 H       1  LIG1        0.0666
     17 O           1.0116    4.8450    0.5348 O.3     1  LIG1       -0.5062
     18 H           0.7727    5.7563    0.3299 H       1  LIG1        0.2922
@<TRIPOS>BOND
     1     9     8    1
     2    14    13   ar
     3    14    10   ar
     4    15    13    1
     5     8     3    1
     6    13    12   ar
     7     7     2    1
     8     3     2   ar
     9     3     4   ar
    10     2     1   ar
    11    10     4    1
    12    10    11   ar
    13     4     5   ar
    14    12    11   ar
    15    12    17    1
    16     1     6    1
    17     1     5   ar
    18    18    17    1
    19    11    16    1
