@<TRIPOS>MOLECULE
mol_data/opt/cam/geoms/mol2/5af5af5af5af-.out
 34 37 0 0 0
SMALL
GASTEIGER

@<TRIPOS>ATOM
      1 C          -1.7298   -2.1270    0.1643 C.ar    1  LIG1       -0.0202
      2 C          -0.4409   -1.9720   -0.2337 C.ar    1  LIG1       -0.0125
      3 C          -0.0482   -0.6026   -0.2541 C.ar    1  LIG1        0.1321
      4 C          -1.0450    0.2597    0.1347 C.ar    1  LIG1        0.0674
      5 S          -2.4947   -0.6265    0.5263 S.2     1  LIG1       -0.0924
      6 H          -2.2811   -3.0500    0.2698 H       1  LIG1        0.0695
      7 H           0.2241   -2.7782   -0.5136 H       1  LIG1        0.0659
      8 O           1.1970   -0.2538   -0.6517 O.3     1  LIG1       -0.5056
      9 H           1.2316    0.7075   -0.7598 H       1  LIG1        0.2922
     10 C          -0.9433    1.7045    0.2050 C.ar    1  LIG1        0.0336
     11 C           0.1407    2.4384    0.6116 C.ar    1  LIG1       -0.0041
     12 C          -0.0740    3.8403    0.5122 C.ar    1  LIG1        0.1327
     13 C          -1.3167    4.1754    0.0330 C.ar    1  LIG1        0.0680
     14 S          -2.2381    2.7384   -0.3258 S.2     1  LIG1       -0.0833
     15 H           1.0371    2.0136    1.0460 H       1  LIG1        0.0666
     16 O           0.8845    4.7054    0.9131 O.3     1  LIG1       -0.5056
     17 H           0.5047    5.5953    0.9510 H       1  LIG1        0.2922
     18 C          -1.8326    5.5194   -0.1329 C.ar    1  LIG1        0.0336
     19 C          -1.1395    6.6241   -0.5564 C.ar    1  LIG1       -0.0041
     20 C          -1.9331    7.8041   -0.5594 C.ar    1  LIG1        0.1327
     21 C          -3.2253    7.6008   -0.1438 C.ar    1  LIG1        0.0679
     22 S          -3.4714    5.9286    0.2851 S.2     1  LIG1       -0.0833
     23 H          -0.1251    6.6013   -0.9348 H       1  LIG1        0.0666
     24 O          -1.4100    8.9755   -0.9867 O.3     1  LIG1       -0.5056
     25 H          -2.1279    9.6186   -1.0816 H       1  LIG1        0.2922
     26 C          -4.2699    8.6064   -0.0853 C.ar    1  LIG1        0.0330
     27 C          -4.1387    9.9109    0.3117 C.ar    1  LIG1       -0.0047
     28 C          -5.3547   10.6476    0.1965 C.ar    1  LIG1        0.1245
     29 C          -6.3925    9.9017   -0.2744 C.ar    1  LIG1        0.0178
     30 S          -5.8949    8.2796   -0.6159 S.2     1  LIG1       -0.0923
     31 H          -7.4172   10.2061   -0.4313 H       1  LIG1        0.0730
     32 H          -3.2375   10.3310    0.7414 H       1  LIG1        0.0666
     33 O          -5.3760   11.9544    0.5639 O.3     1  LIG1       -0.5062
     34 H          -6.2669   12.3058    0.4524 H       1  LIG1        0.2922
@<TRIPOS>BOND
     1    25    24    1
     2    24    20    1
     3    23    19    1
     4     9     8    1
     5     8     3    1
     6    30    29   ar
     7    30    26   ar
     8    20    19   ar
     9    20    21   ar
    10    19    18   ar
    11     7     2    1
    12    31    29    1
    13    14    13   ar
    14    14    10   ar
    15    29    28   ar
    16     3     2   ar
    17     3     4   ar
    18     2     1   ar
    19    21    26    1
    20    21    22   ar
    21    18    13    1
    22    18    22   ar
    23    26    27   ar
    24    13    12   ar
    25     4    10    1
    26     4     5   ar
    27     1     6    1
    28     1     5   ar
    29    28    27   ar
    30    28    33    1
    31    10    11   ar
    32    27    32    1
    33    34    33    1
    34    12    11   ar
    35    12    16    1
    36    11    15    1
    37    16    17    1
