@<TRIPOS>MOLECULE
mol_data/opt/cam/geoms/mol2/5af5af-5af5af-.out
 34 37 0 0 0
SMALL
GASTEIGER

@<TRIPOS>ATOM
      1 C          -1.4437   -2.0388    1.0781 C.ar    1  LIG1       -0.0202
      2 C          -0.6564   -1.9821   -0.0267 C.ar    1  LIG1       -0.0125
      3 C          -0.3652   -0.6404   -0.4079 C.ar    1  LIG1        0.1321
      4 C          -0.9320    0.2998    0.4181 C.ar    1  LIG1        0.0674
      5 S          -1.8460   -0.4771    1.6835 S.2     1  LIG1       -0.0924
      6 H          -1.8138   -2.9211    1.5797 H       1  LIG1        0.0695
      7 H          -0.2889   -2.8409   -0.5725 H       1  LIG1        0.0659
      8 O           0.3860   -0.3886   -1.5047 O.3     1  LIG1       -0.5056
      9 H           0.3393    0.5576   -1.7035 H       1  LIG1        0.2922
     10 C          -0.8181    1.7390    0.2766 C.ar    1  LIG1        0.0336
     11 C           0.2886    2.4460   -0.1157 C.ar    1  LIG1       -0.0041
     12 C           0.0481    3.8450   -0.1989 C.ar    1  LIG1        0.1327
     13 C          -1.2314    4.2063    0.1440 C.ar    1  LIG1        0.0680
     14 S          -2.1758    2.7941    0.5420 S.2     1  LIG1       -0.0833
     15 H           1.2654    2.0087   -0.2812 H       1  LIG1        0.0666
     16 O           1.0347    4.6829   -0.5900 O.3     1  LIG1       -0.5056
     17 H           0.6581    5.5641   -0.7281 H       1  LIG1        0.2922
     18 C          -1.7578    5.5571    0.1727 C.ar    1  LIG1        0.0336
     19 C          -1.1009    6.6922    0.5720 C.ar    1  LIG1       -0.0041
     20 C          -1.8907    7.8658    0.4267 C.ar    1  LIG1        0.1327
     21 C          -3.1492    7.6262   -0.0658 C.ar    1  LIG1        0.0679
     22 S          -3.3610    5.9265   -0.3939 S.2     1  LIG1       -0.0833
     23 H          -0.1141    6.7019    1.0182 H       1  LIG1        0.0666
     24 O          -1.3840    9.0740    0.7612 O.3     1  LIG1       -0.5056
     25 H          -2.0075    9.7595    0.4803 H       1  LIG1        0.2922
     26 C          -4.1778    8.6237   -0.2984 C.ar    1  LIG1        0.0330
     27 C          -4.4754    9.7034    0.4903 C.ar    1  LIG1       -0.0047
     28 C          -5.5101   10.5184   -0.0572 C.ar    1  LIG1        0.1245
     29 C          -5.9915   10.0513   -1.2428 C.ar    1  LIG1        0.0178
     30 S          -5.1652    8.6117   -1.7314 S.2     1  LIG1       -0.0923
     31 H          -6.7856   10.4619   -1.8495 H       1  LIG1        0.0730
     32 H          -4.0361    9.8883    1.4630 H       1  LIG1        0.0666
     33 O          -5.9168   11.6204    0.6233 O.3     1  LIG1       -0.5062
     34 H          -6.6365   12.0475    0.1447 H       1  LIG1        0.2922
@<TRIPOS>BOND
     1    31    29    1
     2    30    29   ar
     3    30    26   ar
     4     9     8    1
     5     8     3    1
     6    29    28   ar
     7    17    16    1
     8    16    12    1
     9     7     2    1
    10     3     2   ar
    11     3     4   ar
    12    22    21   ar
    13    22    18   ar
    14    26    21    1
    15    26    27   ar
    16    15    11    1
    17    12    11   ar
    18    12    13   ar
    19    11    10   ar
    20    21    20   ar
    21    28    27   ar
    22    28    33    1
    23     2     1   ar
    24    13    18    1
    25    13    14   ar
    26    34    33    1
    27    18    19   ar
    28    10     4    1
    29    10    14   ar
    30     4     5   ar
    31    20    19   ar
    32    20    24    1
    33    25    24    1
    34    27    32    1
    35    19    23    1
    36     1     6    1
    37     1     5   ar
