@<TRIPOS>MOLECULE
mol_data/opt/cam/geoms/mol2/5af5af-.out
 18 19 0 0 0
SMALL
GASTEIGER

@<TRIPOS>ATOM
      1 C          -2.0052   -1.8559    0.2996 C.ar    1  LIG1       -0.0202
      2 C          -0.7058   -1.8108   -0.0916 C.ar    1  LIG1       -0.0125
      3 C          -0.2326   -0.4729   -0.2230 C.ar    1  LIG1        0.1321
      4 C          -1.1794    0.4757    0.0751 C.ar    1  LIG1        0.0674
      5 S          -2.6819   -0.2869    0.5215 S.2     1  LIG1       -0.0924
      6 H          -2.6114   -2.7328    0.4747 H       1  LIG1        0.0695
      7 H          -0.0870   -2.6755   -0.2918 H       1  LIG1        0.0659
      8 O           1.0356   -0.2307   -0.6293 O.3     1  LIG1       -0.5056
      9 H           1.1282    0.7175   -0.8016 H       1  LIG1        0.2922
     10 C          -0.9903    1.9147    0.0212 C.ar    1  LIG1        0.0330
     11 C           0.1173    2.6181    0.4136 C.ar    1  LIG1       -0.0047
     12 C          -0.0044    4.0192    0.1737 C.ar    1  LIG1        0.1245
     13 C          -1.1958    4.3673   -0.3869 C.ar    1  LIG1        0.0178
     14 S          -2.1888    2.9762   -0.6611 S.2     1  LIG1       -0.0923
     15 H          -1.5493    5.3551   -0.6450 H       1  LIG1        0.0730
     16 H           0.9688    2.1813    0.9208 H       1  LIG1        0.0666
     17 O           1.0163    4.8440    0.5231 O.3     1  LIG1       -0.5062
     18 H           0.7763    5.7556    0.3209 H       1  LIG1        0.2922
@<TRIPOS>BOND
     1     9     8    1
     2    14    13   ar
     3    14    10   ar
     4    15    13    1
     5     8     3    1
     6    13    12   ar
     7     7     2    1
     8     3     2   ar
     9     3     4   ar
    10     2     1   ar
    11    10     4    1
    12    10    11   ar
    13     4     5   ar
    14    12    11   ar
    15    12    17    1
    16     1     6    1
    17     1     5   ar
    18    18    17    1
    19    11    16    1
