@<TRIPOS>MOLECULE
mol_data/opt/cam/geoms/mol2/5af5af-5af5af.out
 34 37 0 0 0
SMALL
GASTEIGER

@<TRIPOS>ATOM
      1 C          -1.4481   -2.0447    1.0436 C.ar    1  LIG1       -0.0202
      2 C          -0.6546   -1.9815   -0.0564 C.ar    1  LIG1       -0.0125
      3 C          -0.3616   -0.6376   -0.4282 C.ar    1  LIG1        0.1321
      4 C          -0.9333    0.2977    0.4000 C.ar    1  LIG1        0.0674
      5 S          -1.8541   -0.4867    1.6558 S.2     1  LIG1       -0.0924
      6 H          -1.8207   -2.9300    1.5381 H       1  LIG1        0.0695
      7 H          -0.2839   -2.8371   -0.6051 H       1  LIG1        0.0659
      8 O           0.3956   -0.3793   -1.5193 O.3     1  LIG1       -0.5056
      9 H           0.3498    0.5680   -1.7129 H       1  LIG1        0.2922
     10 C          -0.8189    1.7377    0.2675 C.ar    1  LIG1        0.0336
     11 C           0.2898    2.4472   -0.1145 C.ar    1  LIG1       -0.0041
     12 C           0.0495    3.8466   -0.1909 C.ar    1  LIG1        0.1327
     13 C          -1.2320    4.2057    0.1468 C.ar    1  LIG1        0.0680
     14 S          -2.1782    2.7910    0.5315 S.2     1  LIG1       -0.0833
     15 H           1.2676    2.0110   -0.2770 H       1  LIG1        0.0666
     16 O           1.0381    4.6870   -0.5717 O.3     1  LIG1       -0.5056
     17 H           0.6620    5.5688   -0.7068 H       1  LIG1        0.2922
     18 C          -1.7589    5.5562    0.1804 C.ar    1  LIG1        0.0336
     19 C          -1.1044    6.6891    0.5899 C.ar    1  LIG1       -0.0041
     20 C          -1.8938    7.8633    0.4469 C.ar    1  LIG1        0.1327
     21 C          -3.1494    7.6263   -0.0539 C.ar    1  LIG1        0.0679
     22 S          -3.3590    5.9285   -0.3931 S.2     1  LIG1       -0.0833
     23 H          -0.1201    6.6965    1.0416 H       1  LIG1        0.0666
     24 O          -1.3892    9.0697    0.7913 O.3     1  LIG1       -0.5056
     25 H          -2.0113    9.7567    0.5108 H       1  LIG1        0.2922
     26 C          -4.1771    8.6250   -0.2864 C.ar    1  LIG1        0.0330
     27 C          -4.4793    9.6999    0.5069 C.ar    1  LIG1       -0.0047
     28 C          -5.5111   10.5179   -0.0416 C.ar    1  LIG1        0.1245
     29 C          -5.9858   10.0575   -1.2326 C.ar    1  LIG1        0.0178
     30 S          -5.1564    8.6210   -1.7249 S.2     1  LIG1       -0.0923
     31 H          -6.7767   10.4714   -1.8414 H       1  LIG1        0.0730
     32 H          -4.0454    9.8793    1.4830 H       1  LIG1        0.0666
     33 O          -5.9218   11.6158    0.6429 O.3     1  LIG1       -0.5062
     34 H          -6.6391   12.0455    0.1628 H       1  LIG1        0.2922
@<TRIPOS>BOND
     1    31    29    1
     2    30    29   ar
     3    30    26   ar
     4     9     8    1
     5     8     3    1
     6    29    28   ar
     7    17    16    1
     8     7     2    1
     9    16    12    1
    10     3     2   ar
    11     3     4   ar
    12    22    21   ar
    13    22    18   ar
    14    26    21    1
    15    26    27   ar
    16    15    11    1
    17    12    11   ar
    18    12    13   ar
    19    11    10   ar
    20     2     1   ar
    21    21    20   ar
    22    28    27   ar
    23    28    33    1
    24    13    18    1
    25    13    14   ar
    26    34    33    1
    27    18    19   ar
    28    10     4    1
    29    10    14   ar
    30     4     5   ar
    31    20    19   ar
    32    20    24    1
    33    27    32    1
    34    25    24    1
    35    19    23    1
    36     1     6    1
    37     1     5   ar
