@<TRIPOS>MOLECULE
mol_data/opt/cam/geoms/mol2/5af5af5af-.out
 26 28 0 0 0
SMALL
GASTEIGER

@<TRIPOS>ATOM
      1 C          -1.8955   -2.0019    0.0856 C.ar    1  LIG1       -0.0202
      2 C          -0.6146   -1.8701   -0.3452 C.ar    1  LIG1       -0.0125
      3 C          -0.1846   -0.5117   -0.3377 C.ar    1  LIG1        0.1321
      4 C          -1.1453    0.3653    0.1045 C.ar    1  LIG1        0.0674
      5 S          -2.6072   -0.4924    0.5131 S.2     1  LIG1       -0.0924
      6 H          -2.4692   -2.9124    0.1804 H       1  LIG1        0.0695
      7 H           0.0194   -2.6853   -0.6675 H       1  LIG1        0.0659
      8 O           1.0582   -0.1847   -0.7612 O.3     1  LIG1       -0.5056
      9 H           1.1161    0.7784   -0.8403 H       1  LIG1        0.2922
     10 C          -1.0012    1.8046    0.2129 C.ar    1  LIG1        0.0336
     11 C           0.1121    2.4961    0.6139 C.ar    1  LIG1       -0.0041
     12 C          -0.0658    3.9061    0.5598 C.ar    1  LIG1        0.1327
     13 C          -1.3089    4.2887    0.1217 C.ar    1  LIG1        0.0679
     14 S          -2.2779    2.8892   -0.2572 S.2     1  LIG1       -0.0833
     15 H           1.0065    2.0338    1.0130 H       1  LIG1        0.0666
     16 O           0.9259    4.7341    0.9600 O.3     1  LIG1       -0.5056
     17 H           0.5725    5.6338    1.0185 H       1  LIG1        0.2922
     18 C          -1.7898    5.6530    0.0068 C.ar    1  LIG1        0.0330
     19 C          -1.0848    6.7436   -0.4296 C.ar    1  LIG1       -0.0047
     20 C          -1.8413    7.9512   -0.3660 C.ar    1  LIG1        0.1245
     21 C          -3.1061    7.7693    0.1053 C.ar    1  LIG1        0.0178
     22 S          -3.3917    6.1109    0.5103 S.2     1  LIG1       -0.0923
     23 H          -3.8858    8.5069    0.2288 H       1  LIG1        0.0730
     24 H          -0.0886    6.6976   -0.8522 H       1  LIG1        0.0666
     25 O          -1.2717    9.1133   -0.7766 O.3     1  LIG1       -0.5062
     26 H          -1.9108    9.8307   -0.6971 H       1  LIG1        0.2922
@<TRIPOS>BOND
     1    24    19    1
     2     9     8    1
     3    25    26    1
     4    25    20    1
     5     8     3    1
     6     7     2    1
     7    19    20   ar
     8    19    18   ar
     9    20    21   ar
    10     2     3   ar
    11     2     1   ar
    12     3     4   ar
    13    14    13   ar
    14    14    10   ar
    15    18    13    1
    16    18    22   ar
    17     1     6    1
    18     1     5   ar
    19     4    10    1
    20     4     5   ar
    21    21    23    1
    22    21    22   ar
    23    13    12   ar
    24    10    11   ar
    25    12    11   ar
    26    12    16    1
    27    11    15    1
    28    16    17    1
