@<TRIPOS>MOLECULE
mol_data/opt/cam/geoms/mol2/5af5af5af.out
 26 28 0 0 0
SMALL
GASTEIGER

@<TRIPOS>ATOM
      1 C          -1.8977   -2.0015    0.0840 C.ar    1  LIG1       -0.0202
      2 C          -0.6169   -1.8703   -0.3472 C.ar    1  LIG1       -0.0125
      3 C          -0.1863   -0.5121   -0.3401 C.ar    1  LIG1        0.1321
      4 C          -1.1465    0.3654    0.1022 C.ar    1  LIG1        0.0674
      5 S          -2.6086   -0.4916    0.5114 S.2     1  LIG1       -0.0924
      6 H          -2.4718   -2.9118    0.1791 H       1  LIG1        0.0695
      7 H           0.0167   -2.6859   -0.6695 H       1  LIG1        0.0659
      8 O           1.0566   -0.1857   -0.7640 O.3     1  LIG1       -0.5056
      9 H           1.1148    0.7774   -0.8432 H       1  LIG1        0.2922
     10 C          -1.0018    1.8046    0.2102 C.ar    1  LIG1        0.0336
     11 C           0.1119    2.4957    0.6108 C.ar    1  LIG1       -0.0041
     12 C          -0.0654    3.9058    0.5564 C.ar    1  LIG1        0.1327
     13 C          -1.3084    4.2888    0.1186 C.ar    1  LIG1        0.0679
     14 S          -2.2781    2.8896   -0.2598 S.2     1  LIG1       -0.0833
     15 H           1.0062    2.0332    1.0097 H       1  LIG1        0.0666
     16 O           0.9267    4.7334    0.9562 O.3     1  LIG1       -0.5056
     17 H           0.5738    5.6334    1.0144 H       1  LIG1        0.2922
     18 C          -1.7888    5.6533    0.0036 C.ar    1  LIG1        0.0330
     19 C          -1.0835    6.7435   -0.4332 C.ar    1  LIG1       -0.0047
     20 C          -1.8394    7.9515   -0.3697 C.ar    1  LIG1        0.1245
     21 C          -3.1042    7.7702    0.1020 C.ar    1  LIG1        0.0178
     22 S          -3.3904    6.1120    0.5075 S.2     1  LIG1       -0.0923
     23 H          -3.8835    8.5082    0.2256 H       1  LIG1        0.0730
     24 H          -0.0874    6.6970   -0.8561 H       1  LIG1        0.0666
     25 O          -1.2694    9.1132   -0.7807 O.3     1  LIG1       -0.5062
     26 H          -1.9083    9.8309   -0.7011 H       1  LIG1        0.2922
@<TRIPOS>BOND
     1    24    19    1
     2     9     8    1
     3    25    26    1
     4    25    20    1
     5     8     3    1
     6     7     2    1
     7    19    20   ar
     8    19    18   ar
     9    20    21   ar
    10     2     3   ar
    11     2     1   ar
    12     3     4   ar
    13    14    13   ar
    14    14    10   ar
    15    18    13    1
    16    18    22   ar
    17     1     6    1
    18     1     5   ar
    19    21    23    1
    20    21    22   ar
    21     4    10    1
    22     4     5   ar
    23    13    12   ar
    24    10    11   ar
    25    12    11   ar
    26    12    16    1
    27    11    15    1
    28    16    17    1
