@<TRIPOS>MOLECULE
mol_data/opt/cam/geoms/mol2/5af5af5af5af.out
 34 37 0 0 0
SMALL
GASTEIGER

@<TRIPOS>ATOM
      1 C          -1.7341   -2.1276    0.1533 C.ar    1  LIG1       -0.0202
      2 C          -0.4422   -1.9722   -0.2349 C.ar    1  LIG1       -0.0125
      3 C          -0.0488   -0.6029   -0.2493 C.ar    1  LIG1        0.1321
      4 C          -1.0481    0.2588    0.1342 C.ar    1  LIG1        0.0674
      5 S          -2.5009   -0.6276    0.5131 S.2     1  LIG1       -0.0924
      6 H          -2.2865   -3.0506    0.2527 H       1  LIG1        0.0695
      7 H           0.2245   -2.7780   -0.5117 H       1  LIG1        0.0659
      8 O           1.1994   -0.2538   -0.6370 O.3     1  LIG1       -0.5056
      9 H           1.2351    0.7078   -0.7427 H       1  LIG1        0.2922
     10 C          -0.9464    1.7035    0.2084 C.ar    1  LIG1        0.0336
     11 C           0.1349    2.4360    0.6245 C.ar    1  LIG1       -0.0041
     12 C          -0.0784    3.8382    0.5266 C.ar    1  LIG1        0.1327
     13 C          -1.3175    4.1750    0.0391 C.ar    1  LIG1        0.0680
     14 S          -2.2369    2.7391   -0.3296 S.2     1  LIG1       -0.0833
     15 H           1.0279    2.0099    1.0645 H       1  LIG1        0.0666
     16 O           0.8775    4.7020    0.9365 O.3     1  LIG1       -0.5056
     17 H           0.4977    5.5920    0.9736 H       1  LIG1        0.2922
     18 C          -1.8316    5.5195   -0.1275 C.ar    1  LIG1        0.0336
     19 C          -1.1350    6.6249   -0.5434 C.ar    1  LIG1       -0.0041
     20 C          -1.9280    7.8052   -0.5496 C.ar    1  LIG1        0.1327
     21 C          -3.2233    7.6016   -0.1439 C.ar    1  LIG1        0.0679
     22 S          -3.4733    5.9285    0.2794 S.2     1  LIG1       -0.0833
     23 H          -0.1178    6.6024   -0.9145 H       1  LIG1        0.0666
     24 O          -1.4014    8.9773   -0.9704 O.3     1  LIG1       -0.5056
     25 H          -2.1183    9.6209   -1.0692 H       1  LIG1        0.2922
     26 C          -4.2678    8.6075   -0.0908 C.ar    1  LIG1        0.0330
     27 C          -4.1389    9.9111    0.3102 C.ar    1  LIG1       -0.0047
     28 C          -5.3537   10.6486    0.1878 C.ar    1  LIG1        0.1245
     29 C          -6.3884    9.9042   -0.2924 C.ar    1  LIG1        0.0178
     30 S          -5.8891    8.2826   -0.6339 S.2     1  LIG1       -0.0923
     31 H          -7.4118   10.2095   -0.4561 H       1  LIG1        0.0730
     32 H          -3.2407   10.3297    0.7473 H       1  LIG1        0.0666
     33 O          -5.3772   11.9545    0.5580 O.3     1  LIG1       -0.5062
     34 H          -6.2671   12.3066    0.4408 H       1  LIG1        0.2922
@<TRIPOS>BOND
     1    25    24    1
     2    24    20    1
     3    23    19    1
     4     9     8    1
     5     8     3    1
     6    30    29   ar
     7    30    26   ar
     8    20    19   ar
     9    20    21   ar
    10    19    18   ar
    11     7     2    1
    12    31    29    1
    13    14    13   ar
    14    14    10   ar
    15    29    28   ar
    16     3     2   ar
    17     3     4   ar
    18     2     1   ar
    19    21    26    1
    20    21    22   ar
    21    18    13    1
    22    18    22   ar
    23    26    27   ar
    24    13    12   ar
    25     4    10    1
    26     4     5   ar
    27     1     6    1
    28     1     5   ar
    29    28    27   ar
    30    28    33    1
    31    10    11   ar
    32    27    32    1
    33    34    33    1
    34    12    11   ar
    35    12    16    1
    36    11    15    1
    37    16    17    1
