@<TRIPOS>MOLECULE
mol_data/opt/cam/geoms/mol2/5af5af-5af.out
 26 28 0 0 0
SMALL
GASTEIGER

@<TRIPOS>ATOM
      1 C          -1.8245   -1.9692    0.6092 C.ar    1  LIG1       -0.0202
      2 C          -0.7141   -1.8955   -0.1688 C.ar    1  LIG1       -0.0125
      3 C          -0.3009   -0.5491   -0.3854 C.ar    1  LIG1        0.1321
      4 C          -1.1024    0.3774    0.2362 C.ar    1  LIG1        0.0674
      5 S          -2.3917   -0.4181    1.0991 S.2     1  LIG1       -0.0924
      6 H          -2.3480   -2.8585    0.9289 H       1  LIG1        0.0695
      7 H          -0.1934   -2.7450   -0.5902 H       1  LIG1        0.0659
      8 O           0.7750   -0.2794   -1.1604 O.3     1  LIG1       -0.5056
      9 H           0.8062    0.6736   -1.3277 H       1  LIG1        0.2922
     10 C          -0.9354    1.8179    0.1884 C.ar    1  LIG1        0.0336
     11 C           0.2447    2.5142    0.2155 C.ar    1  LIG1       -0.0041
     12 C           0.0582    3.9197    0.1007 C.ar    1  LIG1        0.1327
     13 C          -1.2580    4.2951    0.0015 C.ar    1  LIG1        0.0679
     14 S          -2.2934    2.8914    0.0133 S.2     1  LIG1       -0.0833
     15 H           1.2160    2.0628    0.3756 H       1  LIG1        0.0666
     16 O           1.1253    4.7507    0.0948 O.3     1  LIG1       -0.5056
     17 H           0.8201    5.6445   -0.1190 H       1  LIG1        0.2922
     18 C          -1.7505    5.6562   -0.1079 C.ar    1  LIG1        0.0330
     19 C          -1.2762    6.7620    0.5468 C.ar    1  LIG1       -0.0047
     20 C          -1.9525    7.9597    0.1688 C.ar    1  LIG1        0.1245
     21 C          -2.9318    7.7553   -0.7557 C.ar    1  LIG1        0.0178
     22 S          -3.0289    6.0875   -1.2071 S.2     1  LIG1       -0.0923
     23 H          -3.6042    8.4820   -1.1882 H       1  LIG1        0.0730
     24 H          -0.5238    6.7342    1.3254 H       1  LIG1        0.0666
     25 O          -1.5936    9.1351    0.7459 O.3     1  LIG1       -0.5062
     26 H          -2.1538    9.8437    0.4089 H       1  LIG1        0.2922
@<TRIPOS>BOND
     1     9     8    1
     2    22    21   ar
     3    22    18   ar
     4    23    21    1
     5     8     3    1
     6    21    20   ar
     7     7     2    1
     8     3     2   ar
     9     3     4   ar
    10     2     1   ar
    11    17    16    1
    12    18    13    1
    13    18    19   ar
    14    13    14   ar
    15    13    12   ar
    16    14    10   ar
    17    16    12    1
    18    12    11   ar
    19    20    19   ar
    20    20    25    1
    21    10    11   ar
    22    10     4    1
    23    11    15    1
    24     4     5   ar
    25    26    25    1
    26    19    24    1
    27     1     6    1
    28     1     5   ar
