@<TRIPOS>MOLECULE
mol_data/opt/cam/geoms/mol2/5af5af5af-5af-.out
 34 37 0 0 0
SMALL
GASTEIGER

@<TRIPOS>ATOM
      1 C          -1.7611   -2.1135   -0.1822 C.ar    1  LIG1       -0.0202
      2 C          -0.4451   -1.9456   -0.4716 C.ar    1  LIG1       -0.0125
      3 C          -0.0450   -0.5818   -0.3714 C.ar    1  LIG1        0.1321
      4 C          -1.0638    0.2629   -0.0017 C.ar    1  LIG1        0.0674
      5 S          -2.5433   -0.6326    0.2208 S.2     1  LIG1       -0.0924
      6 H          -2.3234   -3.0359   -0.1799 H       1  LIG1        0.0695
      7 H           0.2350   -2.7382   -0.7540 H       1  LIG1        0.0659
      8 O           1.2283   -0.2201   -0.6510 O.3     1  LIG1       -0.5056
      9 H           1.2755    0.7459   -0.6934 H       1  LIG1        0.2922
     10 C          -0.9605    1.6990    0.1706 C.ar    1  LIG1        0.0336
     11 C           0.0936    2.3944    0.7038 C.ar    1  LIG1       -0.0041
     12 C          -0.1068    3.8018    0.6816 C.ar    1  LIG1        0.1327
     13 C          -1.3088    4.1793    0.1353 C.ar    1  LIG1        0.0680
     14 S          -2.2074    2.7776   -0.3850 S.2     1  LIG1       -0.0833
     15 H           0.9533    1.9332    1.1739 H       1  LIG1        0.0666
     16 O           0.8233    4.6300    1.2081 O.3     1  LIG1       -0.5056
     17 H           0.4452    5.5187    1.2774 H       1  LIG1        0.2922
     18 C          -1.8036    5.5368    0.0188 C.ar    1  LIG1        0.0336
     19 C          -1.0751    6.6583   -0.2832 C.ar    1  LIG1       -0.0041
     20 C          -1.8589    7.8448   -0.2674 C.ar    1  LIG1        0.1327
     21 C          -3.1813    7.6285    0.0287 C.ar    1  LIG1        0.0679
     22 S          -3.4688    5.9346    0.3304 S.2     1  LIG1       -0.0833
     23 H          -0.0319    6.6494   -0.5739 H       1  LIG1        0.0666
     24 O          -1.2872    9.0423   -0.5281 O.3     1  LIG1       -0.5056
     25 H          -1.9346    9.7398   -0.3491 H       1  LIG1        0.2922
     26 C          -4.2169    8.6433    0.0971 C.ar    1  LIG1        0.0330
     27 C          -4.3719    9.7231   -0.7314 C.ar    1  LIG1       -0.0047
     28 C          -5.4650   10.5573   -0.3523 C.ar    1  LIG1        0.1245
     29 C          -6.1307   10.1045    0.7465 C.ar    1  LIG1        0.0178
     30 S          -5.4131    8.6548    1.3611 S.2     1  LIG1       -0.0923
     31 H          -7.0019   10.5309    1.2225 H       1  LIG1        0.0730
     32 H          -3.7854    9.8953   -1.6256 H       1  LIG1        0.0666
     33 O          -5.7442   11.6616   -1.0908 O.3     1  LIG1       -0.5062
     34 H          -6.5217   12.1028   -0.7295 H       1  LIG1        0.2922
@<TRIPOS>BOND
     1    32    27    1
     2    33    34    1
     3    33    28    1
     4     7     2    1
     5    27    28   ar
     6    27    26   ar
     7     9     8    1
     8     8     3    1
     9    23    19    1
    10    24    25    1
    11    24    20    1
    12     2     3   ar
    13     2     1   ar
    14    14    13   ar
    15    14    10   ar
    16     3     4   ar
    17    28    29   ar
    18    19    20   ar
    19    19    18   ar
    20    20    21   ar
    21     1     6    1
    22     1     5   ar
    23     4    10    1
    24     4     5   ar
    25    18    13    1
    26    18    22   ar
    27    21    26    1
    28    21    22   ar
    29    26    30   ar
    30    13    12   ar
    31    10    11   ar
    32    12    11   ar
    33    12    16    1
    34    11    15    1
    35    29    31    1
    36    29    30   ar
    37    16    17    1
