@<TRIPOS>MOLECULE
mol_data/opt/cam/geoms/mol2/5ag.out
 10 10 0 0 0
SMALL
GASTEIGER

@<TRIPOS>ATOM
      1 C          -2.1145   -1.7669   -0.0001 C.ar    1  LIG1       -0.0233
      2 C          -0.7572   -1.7265   -0.0004 C.ar    1  LIG1       -0.0415
      3 C          -0.2501   -0.3877   -0.0002 C.ar    1  LIG1        0.0117
      4 C          -1.2419    0.5453    0.0004 C.ar    1  LIG1       -0.0112
      5 S          -2.8046   -0.1889    0.0011 S.2     1  LIG1       -0.1040
      6 H          -2.7507   -2.6401   -0.0002 H       1  LIG1        0.0694
      7 H          -1.1464    1.6213    0.0006 H       1  LIG1        0.0704
      8 H          -0.1276   -2.6077   -0.0010 H       1  LIG1        0.0634
      9 S           1.4977   -0.0897   -0.0008 S.3     1  LIG1       -0.1421
     10 H           1.4306    1.2510   -0.0006 H       1  LIG1        0.1071
@<TRIPOS>BOND
     1     8     2    1
     2     9    10    1
     3     9     3    1
     4     2     3   ar
     5     2     1   ar
     6     6     1    1
     7     3     4   ar
     8     1     5   ar
     9     4     7    1
    10     4     5   ar
