@<TRIPOS>MOLECULE
mol_data/opt/cam/geoms/mol2/5ag5ag-.out
 18 19 0 0 0
SMALL
GASTEIGER

@<TRIPOS>ATOM
      1 C          -2.0917   -1.8340    0.3697 C.ar    1  LIG1       -0.0227
      2 C          -0.7913   -1.8609   -0.0177 C.ar    1  LIG1       -0.0409
      3 C          -0.2430   -0.5545   -0.2083 C.ar    1  LIG1        0.0200
      4 C          -1.1480    0.4453    0.0472 C.ar    1  LIG1        0.0390
      5 S          -2.6860   -0.2279    0.5192 S.2     1  LIG1       -0.0950
      6 H          -2.7387   -2.6754    0.5717 H       1  LIG1        0.0694
      7 H          -0.2286   -2.7716   -0.1809 H       1  LIG1        0.0634
      8 S           1.4330   -0.3806   -0.7509 S.3     1  LIG1       -0.1415
      9 H           1.3583    0.9227   -1.0686 H       1  LIG1        0.1071
     10 C          -0.9649    1.8901   -0.0294 C.ar    1  LIG1        0.0280
     11 C           0.0549    2.6392    0.4879 C.ar    1  LIG1       -0.0332
     12 C          -0.0828    4.0357    0.2228 C.ar    1  LIG1        0.0124
     13 C          -1.2097    4.3241   -0.4855 C.ar    1  LIG1       -0.0105
     14 S          -2.1116    2.9023   -0.8586 S.2     1  LIG1       -0.0950
     15 H          -1.5633    5.2919   -0.8102 H       1  LIG1        0.0704
     16 H           0.8633    2.2132    1.0694 H       1  LIG1        0.0640
     17 S           1.1326    5.1832    0.8128 S.3     1  LIG1       -0.1421
     18 H           0.5535    6.2909    0.3233 H       1  LIG1        0.1071
@<TRIPOS>BOND
     1     9     8    1
     2    14    13   ar
     3    14    10   ar
     4    15    13    1
     5     8     3    1
     6    13    12   ar
     7     3     2   ar
     8     3     4   ar
     9     7     2    1
    10    10     4    1
    11    10    11   ar
    12     2     1   ar
    13     4     5   ar
    14    12    11   ar
    15    12    17    1
    16    18    17    1
    17     1     5   ar
    18     1     6    1
    19    11    16    1
