@<TRIPOS>MOLECULE
mol_data/opt/cam/geoms/mol2/5ag5ag5ag5ag.out
 34 37 0 0 0
SMALL
GASTEIGER

@<TRIPOS>ATOM
      1 C          -2.0070   -1.9997    0.1948 C.ar    1  LIG1       -0.0227
      2 C          -0.7292   -1.9787   -0.2621 C.ar    1  LIG1       -0.0409
      3 C          -0.1804   -0.6601   -0.3134 C.ar    1  LIG1        0.0200
      4 C          -1.0627    0.3004    0.1168 C.ar    1  LIG1        0.0391
      5 S          -2.5798   -0.4254    0.5795 S.2     1  LIG1       -0.0950
      6 H          -2.6496   -2.8588    0.3225 H       1  LIG1        0.0694
      7 H          -0.1841   -2.8616   -0.5714 H       1  LIG1        0.0634
      8 S           1.4662   -0.4236   -0.9186 S.3     1  LIG1       -0.1415
      9 H           1.3713    0.9020   -1.1153 H       1  LIG1        0.1071
     10 C          -0.8738    1.7414    0.2162 C.ar    1  LIG1        0.0286
     11 C           0.1972    2.4202    0.7266 C.ar    1  LIG1       -0.0326
     12 C           0.0472    3.8369    0.6842 C.ar    1  LIG1        0.0206
     13 C          -1.1491    4.2320    0.1366 C.ar    1  LIG1        0.0397
     14 S          -2.0921    2.8466   -0.3417 S.2     1  LIG1       -0.0861
     15 H           1.0522    1.9258    1.1703 H       1  LIG1        0.0640
     16 S           1.3265    4.8658    1.3464 S.3     1  LIG1       -0.1415
     17 H           0.5908    5.9863    1.4389 H       1  LIG1        0.1071
     18 C          -1.6662    5.5774   -0.0678 C.ar    1  LIG1        0.0286
     19 C          -1.0102    6.6681   -0.5672 C.ar    1  LIG1       -0.0326
     20 C          -1.8262    7.8335   -0.6524 C.ar    1  LIG1        0.0206
     21 C          -3.1101    7.6210   -0.2141 C.ar    1  LIG1        0.0397
     22 S          -3.3121    5.9750    0.3202 S.2     1  LIG1       -0.0861
     23 H           0.0143    6.6330   -0.9162 H       1  LIG1        0.0640
     24 S          -1.1451    9.3254   -1.3184 S.3     1  LIG1       -0.1415
     25 H          -2.3164    9.9528   -1.5173 H       1  LIG1        0.1071
     26 C          -4.2271    8.5549   -0.1536 C.ar    1  LIG1        0.0280
     27 C          -4.2297    9.8375    0.3212 C.ar    1  LIG1       -0.0332
     28 C          -5.5083   10.4664    0.2319 C.ar    1  LIG1        0.0124
     29 C          -6.4566    9.6477   -0.3025 C.ar    1  LIG1       -0.0105
     30 S          -5.8090    8.1058   -0.7223 S.2     1  LIG1       -0.0950
     31 H          -7.5013    9.8616   -0.4755 H       1  LIG1        0.0704
     32 H          -3.3562   10.3087    0.7547 H       1  LIG1        0.0640
     33 S          -5.7283   12.1316    0.7975 S.3     1  LIG1       -0.1421
     34 H          -7.0402   12.2171    0.5261 H       1  LIG1        0.1071
@<TRIPOS>BOND
     1    25    24    1
     2    24    20    1
     3     9     8    1
     4     8     3    1
     5    23    19    1
     6    30    29   ar
     7    30    26   ar
     8    20    19   ar
     9    20    21   ar
    10     7     2    1
    11    19    18   ar
    12    31    29    1
    13    14    13   ar
    14    14    10   ar
    15     3     2   ar
    16     3     4   ar
    17    29    28   ar
    18     2     1   ar
    19    21    26    1
    20    21    22   ar
    21    26    27   ar
    22    18    13    1
    23    18    22   ar
    24     4    10    1
    25     4     5   ar
    26    13    12   ar
    27     1     6    1
    28     1     5   ar
    29    10    11   ar
    30    28    27   ar
    31    28    33    1
    32    27    32    1
    33    34    33    1
    34    12    11   ar
    35    12    16    1
    36    11    15    1
    37    16    17    1
