@<TRIPOS>MOLECULE
mol_data/opt/cam/geoms/mol2/5ag5ag.out
 18 19 0 0 0
SMALL
GASTEIGER

@<TRIPOS>ATOM
      1 C          -2.0947   -1.8329    0.3704 C.ar    1  LIG1       -0.0227
      2 C          -0.7913   -1.8609   -0.0068 C.ar    1  LIG1       -0.0409
      3 C          -0.2416   -0.5551   -0.1968 C.ar    1  LIG1        0.0200
      4 C          -1.1484    0.4455    0.0491 C.ar    1  LIG1        0.0390
      5 S          -2.6901   -0.2264    0.5109 S.2     1  LIG1       -0.0950
      6 H          -2.7433   -2.6737    0.5698 H       1  LIG1        0.0694
      7 H          -0.2275   -2.7721   -0.1631 H       1  LIG1        0.0634
      8 S           1.4386   -0.3828   -0.7269 S.3     1  LIG1       -0.1415
      9 H           1.3668    0.9202   -1.0467 H       1  LIG1        0.1071
     10 C          -0.9644    1.8900   -0.0301 C.ar    1  LIG1        0.0280
     11 C           0.0507    2.6404    0.4945 C.ar    1  LIG1       -0.0332
     12 C          -0.0841    4.0360    0.2240 C.ar    1  LIG1        0.0124
     13 C          -1.2042    4.3227   -0.4956 C.ar    1  LIG1       -0.0105
     14 S          -2.1035    2.9002   -0.8723 S.2     1  LIG1       -0.0950
     15 H          -1.5543    5.2896   -0.8269 H       1  LIG1        0.0704
     16 H           0.8533    2.2158    1.0850 H       1  LIG1        0.0640
     17 S           1.1268    5.1848    0.8210 S.3     1  LIG1       -0.1421
     18 H           0.5467    6.2924    0.3324 H       1  LIG1        0.1071
@<TRIPOS>BOND
     1     9     8    1
     2    14    13   ar
     3    14    10   ar
     4    15    13    1
     5     8     3    1
     6    13    12   ar
     7     3     2   ar
     8     3     4   ar
     9     7     2    1
    10    10     4    1
    11    10    11   ar
    12     2     1   ar
    13     4     5   ar
    14    12    11   ar
    15    12    17    1
    16    18    17    1
    17     1     5   ar
    18     1     6    1
    19    11    16    1
