@<TRIPOS>MOLECULE
mol_data/opt/cam/geoms/mol2/5ag5ag-5ag-5ag.out
 34 37 0 0 0
SMALL
GASTEIGER

@<TRIPOS>ATOM
      1 C          -1.5716   -1.9842    0.9865 C.ar    1  LIG1       -0.0227
      2 C          -0.8329   -1.9722   -0.1521 C.ar    1  LIG1       -0.0409
      3 C          -0.4622   -0.6531   -0.5587 C.ar    1  LIG1        0.0200
      4 C          -0.9285    0.3170    0.2940 C.ar    1  LIG1        0.0391
      5 S          -1.8355   -0.4005    1.5999 S.2     1  LIG1       -0.0950
      6 H          -1.9827   -2.8419    1.4989 H       1  LIG1        0.0694
      7 H          -0.5636   -2.8625   -0.7064 H       1  LIG1        0.0634
      8 S           0.4750   -0.4302   -2.0437 S.3     1  LIG1       -0.1415
      9 H           0.2510    0.8880   -2.1749 H       1  LIG1        0.1071
     10 C          -0.7551    1.7622    0.2233 C.ar    1  LIG1        0.0286
     11 C           0.3888    2.4639   -0.0350 C.ar    1  LIG1       -0.0326
     12 C           0.2036    3.8772   -0.0348 C.ar    1  LIG1        0.0206
     13 C          -1.0900    4.2468    0.2423 C.ar    1  LIG1        0.0397
     14 S          -2.0935    2.8407    0.4746 S.2     1  LIG1       -0.0861
     15 H           1.3474    1.9891   -0.2033 H       1  LIG1        0.0640
     16 S           1.5798    4.9336   -0.3871 S.3     1  LIG1       -0.1415
     17 H           0.8647    6.0485   -0.6122 H       1  LIG1        0.1071
     18 C          -1.6605    5.5825    0.3478 C.ar    1  LIG1        0.0286
     19 C          -1.1491    6.6699    0.9997 C.ar    1  LIG1       -0.0326
     20 C          -1.9805    7.8249    0.9195 C.ar    1  LIG1        0.0206
     21 C          -3.1305    7.6074    0.2012 C.ar    1  LIG1        0.0397
     22 S          -3.1832    5.9705   -0.3926 S.2     1  LIG1       -0.0861
     23 H          -0.2285    6.6384    1.5690 H       1  LIG1        0.0640
     24 S          -1.4881    9.3107    1.7462 S.3     1  LIG1       -0.1415
     25 H          -2.6838    9.9207    1.6884 H       1  LIG1        0.1071
     26 C          -4.2199    8.5303   -0.0910 C.ar    1  LIG1        0.0280
     27 C          -4.1358    9.8220   -0.5324 C.ar    1  LIG1       -0.0332
     28 C          -5.4115   10.4352   -0.7197 C.ar    1  LIG1        0.0124
     29 C          -6.4426    9.5957   -0.4243 C.ar    1  LIG1       -0.0105
     30 S          -5.8817    8.0529    0.1027 S.2     1  LIG1       -0.0950
     31 H          -7.5027    9.7950   -0.4844 H       1  LIG1        0.0704
     32 H          -3.1949   10.3113   -0.7521 H       1  LIG1        0.0640
     33 S          -5.5250   12.1093   -1.2904 S.3     1  LIG1       -0.1421
     34 H          -6.8652   12.1689   -1.3357 H       1  LIG1        0.1071
@<TRIPOS>BOND
     1     9     8    1
     2     8     3    1
     3    34    33    1
     4    33    28    1
     5    32    27    1
     6    28    27   ar
     7    28    29   ar
     8     7     2    1
     9    17    16    1
    10     3     2   ar
    11     3     4   ar
    12    27    26   ar
    13    31    29    1
    14    29    30   ar
    15    22    21   ar
    16    22    18   ar
    17    16    12    1
    18    15    11    1
    19     2     1   ar
    20    26    30   ar
    21    26    21    1
    22    11    12   ar
    23    11    10   ar
    24    12    13   ar
    25    21    20   ar
    26    10     4    1
    27    10    14   ar
    28    13    18    1
    29    13    14   ar
    30     4     5   ar
    31    18    19   ar
    32    20    19   ar
    33    20    24    1
    34     1     6    1
    35     1     5   ar
    36    19    23    1
    37    25    24    1
