@<TRIPOS>MOLECULE
mol_data/opt/cam/geoms/mol2/5ag5ag-5ag5ag-.out
 34 37 0 0 0
SMALL
GASTEIGER

@<TRIPOS>ATOM
      1 C          -1.6008   -1.8925    1.3208 C.ar    1  LIG1       -0.0227
      2 C          -0.9288   -1.9718    0.1442 C.ar    1  LIG1       -0.0409
      3 C          -0.5571   -0.6908   -0.3693 C.ar    1  LIG1        0.0200
      4 C          -0.9551    0.3432    0.4419 C.ar    1  LIG1        0.0391
      5 S          -1.7988   -0.2666    1.8414 S.2     1  LIG1       -0.0950
      6 H          -1.9979   -2.7054    1.9113 H       1  LIG1        0.0694
      7 H          -0.7087   -2.9023   -0.3638 H       1  LIG1        0.0634
      8 S           0.2969   -0.5865   -1.9163 S.3     1  LIG1       -0.1415
      9 H           0.0968    0.7266   -2.1180 H       1  LIG1        0.1071
     10 C          -0.7587    1.7765    0.2656 C.ar    1  LIG1        0.0286
     11 C           0.3825    2.4336   -0.0997 C.ar    1  LIG1       -0.0326
     12 C           0.2243    3.8479   -0.1842 C.ar    1  LIG1        0.0206
     13 C          -1.0449    4.2637    0.1358 C.ar    1  LIG1        0.0397
     14 S          -2.0604    2.8990    0.5152 S.2     1  LIG1       -0.0861
     15 H           1.3213    1.9272   -0.2864 H       1  LIG1        0.0640
     16 S           1.5993    4.8468   -0.6791 S.3     1  LIG1       -0.1415
     17 H           0.8973    5.9656   -0.9254 H       1  LIG1        0.1071
     18 C          -1.5834    5.6166    0.1831 C.ar    1  LIG1        0.0286
     19 C          -1.0181    6.7303    0.7384 C.ar    1  LIG1       -0.0326
     20 C          -1.8183    7.9025    0.6040 C.ar    1  LIG1        0.0206
     21 C          -3.0053    7.6681   -0.0450 C.ar    1  LIG1        0.0397
     22 S          -3.1266    5.9958   -0.5186 S.2     1  LIG1       -0.0861
     23 H          -0.0641    6.7159    1.2507 H       1  LIG1        0.0640
     24 S          -1.2191    9.4428    1.2378 S.3     1  LIG1       -0.1415
     25 H          -2.1222   10.2230    0.6207 H       1  LIG1        0.1071
     26 C          -4.0817    8.6012   -0.3546 C.ar    1  LIG1        0.0280
     27 C          -4.6725    9.5115    0.4772 C.ar    1  LIG1       -0.0332
     28 C          -5.7036   10.2671   -0.1592 C.ar    1  LIG1        0.0124
     29 C          -5.8824    9.9118   -1.4619 C.ar    1  LIG1       -0.0105
     30 S          -4.7902    8.6673   -1.9421 S.2     1  LIG1       -0.0950
     31 H          -6.5944   10.3107   -2.1698 H       1  LIG1        0.0704
     32 H          -4.4062    9.6170    1.5217 H       1  LIG1        0.0640
     33 S          -6.5994   11.4994    0.7463 S.3     1  LIG1       -0.1421
     34 H          -7.4097   11.8724   -0.2568 H       1  LIG1        0.1071
@<TRIPOS>BOND
     1    31    29    1
     2     9     8    1
     3    30    29   ar
     4    30    26   ar
     5     8     3    1
     6    29    28   ar
     7    17    16    1
     8    16    12    1
     9    22    21   ar
    10    22    18   ar
    11     3     2   ar
    12     3     4   ar
    13     7     2    1
    14    26    21    1
    15    26    27   ar
    16    15    11    1
    17    34    33    1
    18    12    11   ar
    19    12    13   ar
    20    28    27   ar
    21    28    33    1
    22    11    10   ar
    23    21    20   ar
    24    13    18    1
    25    13    14   ar
    26     2     1   ar
    27    18    19   ar
    28    10     4    1
    29    10    14   ar
    30     4     5   ar
    31    27    32    1
    32    20    19   ar
    33    20    24    1
    34    25    24    1
    35    19    23    1
    36     1     5   ar
    37     1     6    1
