@<TRIPOS>MOLECULE
mol_data/opt/cam/geoms/mol2/5ag5ag-5ag.out
 26 28 0 0 0
SMALL
GASTEIGER

@<TRIPOS>ATOM
      1 C          -1.9691   -1.8844    0.7887 C.ar    1  LIG1       -0.0227
      2 C          -0.8757   -1.9315   -0.0140 C.ar    1  LIG1       -0.0409
      3 C          -0.3582   -0.6354   -0.3225 C.ar    1  LIG1        0.0200
      4 C          -1.0753    0.3775    0.2651 C.ar    1  LIG1        0.0391
      5 S          -2.3997   -0.2713    1.1967 S.2     1  LIG1       -0.0950
      6 H          -2.5522   -2.7144    1.1608 H       1  LIG1        0.0694
      7 H          -0.4463   -2.8492   -0.3960 H       1  LIG1        0.0634
      8 S           1.0470   -0.4894   -1.3890 S.3     1  LIG1       -0.1415
      9 H           0.9182    0.8243   -1.6395 H       1  LIG1        0.1071
     10 C          -0.8585    1.8170    0.1944 C.ar    1  LIG1        0.0286
     11 C           0.3167    2.5011    0.3296 C.ar    1  LIG1       -0.0326
     12 C           0.1727    3.9133    0.1965 C.ar    1  LIG1        0.0206
     13 C          -1.1257    4.3000   -0.0257 C.ar    1  LIG1        0.0397
     14 S          -2.1754    2.9110   -0.0999 S.2     1  LIG1       -0.0861
     15 H           1.2618    2.0157    0.5388 H       1  LIG1        0.0640
     16 S           1.6042    4.9487    0.3101 S.3     1  LIG1       -0.1415
     17 H           1.0274    6.0605   -0.1759 H       1  LIG1        0.1071
     18 C          -1.6675    5.6429   -0.1944 C.ar    1  LIG1        0.0280
     19 C          -1.4248    6.7516    0.5683 C.ar    1  LIG1       -0.0332
     20 C          -2.1299    7.9085    0.1176 C.ar    1  LIG1        0.0124
     21 C          -2.9020    7.6563   -0.9758 C.ar    1  LIG1       -0.0105
     22 S          -2.7710    6.0149   -1.4870 S.2     1  LIG1       -0.0950
     23 H          -3.5415    8.3418   -1.5126 H       1  LIG1        0.0704
     24 H          -0.7906    6.7369    1.4461 H       1  LIG1        0.0640
     25 S          -1.9569    9.4518    0.9719 S.3     1  LIG1       -0.1421
     26 H          -2.7965   10.1553    0.1960 H       1  LIG1        0.1071
@<TRIPOS>BOND
     1     9     8    1
     2    23    21    1
     3    22    21   ar
     4    22    18   ar
     5     8     3    1
     6    21    20   ar
     7     7     2    1
     8     3     2   ar
     9     3     4   ar
    10    18    13    1
    11    18    19   ar
    12    17    16    1
    13    14    13   ar
    14    14    10   ar
    15    13    12   ar
    16     2     1   ar
    17    20    19   ar
    18    20    25    1
    19    10     4    1
    20    10    11   ar
    21    26    25    1
    22    12    16    1
    23    12    11   ar
    24     4     5   ar
    25    11    15    1
    26    19    24    1
    27     1     6    1
    28     1     5   ar
