@<TRIPOS>MOLECULE
mol_data/opt/cam/geoms/mol2/5ag5ag-5ag5ag.out
 34 37 0 0 0
SMALL
GASTEIGER

@<TRIPOS>ATOM
      1 C          -1.5900   -1.8914    1.3250 C.ar    1  LIG1       -0.0227
      2 C          -0.9234   -1.9709    0.1454 C.ar    1  LIG1       -0.0409
      3 C          -0.5550   -0.6900   -0.3707 C.ar    1  LIG1        0.0200
      4 C          -0.9499    0.3442    0.4417 C.ar    1  LIG1        0.0391
      5 S          -1.7867   -0.2653    1.8456 S.2     1  LIG1       -0.0950
      6 H          -1.9837   -2.7042    1.9179 H       1  LIG1        0.0694
      7 H          -0.7051   -2.9016   -0.3631 H       1  LIG1        0.0634
      8 S           0.2917   -0.5860   -1.9216 S.3     1  LIG1       -0.1415
      9 H           0.0898    0.7268   -2.1233 H       1  LIG1        0.1071
     10 C          -0.7553    1.7776    0.2636 C.ar    1  LIG1        0.0286
     11 C           0.3837    2.4352   -0.1074 C.ar    1  LIG1       -0.0326
     12 C           0.2242    3.8493   -0.1920 C.ar    1  LIG1        0.0206
     13 C          -1.0438    4.2645    0.1337 C.ar    1  LIG1        0.0397
     14 S          -2.0567    2.8993    0.5186 S.2     1  LIG1       -0.0861
     15 H           1.3220    1.9294   -0.2981 H       1  LIG1        0.0640
     16 S           1.5961    4.8489   -0.6940 S.3     1  LIG1       -0.1415
     17 H           0.8922    5.9670   -0.9376 H       1  LIG1        0.1071
     18 C          -1.5831    5.6171    0.1826 C.ar    1  LIG1        0.0286
     19 C          -1.0160    6.7315    0.7346 C.ar    1  LIG1       -0.0326
     20 C          -1.8175    7.9030    0.6032 C.ar    1  LIG1        0.0206
     21 C          -3.0074    7.6674   -0.0402 C.ar    1  LIG1        0.0397
     22 S          -3.1297    5.9947   -0.5122 S.2     1  LIG1       -0.0861
     23 H          -0.0596    6.7180    1.2425 H       1  LIG1        0.0640
     24 S          -1.2165    9.4441    1.2333 S.3     1  LIG1       -0.1415
     25 H          -2.1229   10.2233    0.6198 H       1  LIG1        0.1071
     26 C          -4.0858    8.5997   -0.3455 C.ar    1  LIG1        0.0280
     27 C          -4.6735    9.5101    0.4885 C.ar    1  LIG1       -0.0332
     28 C          -5.7079   10.2645   -0.1436 C.ar    1  LIG1        0.0124
     29 C          -5.8925    9.9084   -1.4453 C.ar    1  LIG1       -0.0105
     30 S          -4.8016    8.6642   -1.9298 S.2     1  LIG1       -0.0950
     31 H          -6.6080   10.3063   -2.1501 H       1  LIG1        0.0704
     32 H          -4.4024    9.6163    1.5317 H       1  LIG1        0.0640
     33 S          -6.6004   11.4968    0.7652 S.3     1  LIG1       -0.1421
     34 H          -7.4155   11.8687   -0.2344 H       1  LIG1        0.1071
@<TRIPOS>BOND
     1    31    29    1
     2     9     8    1
     3    30    29   ar
     4    30    26   ar
     5     8     3    1
     6    29    28   ar
     7    17    16    1
     8    16    12    1
     9    22    21   ar
    10    22    18   ar
    11     3     2   ar
    12     3     4   ar
    13     7     2    1
    14    26    21    1
    15    26    27   ar
    16    15    11    1
    17    34    33    1
    18    12    11   ar
    19    12    13   ar
    20    28    27   ar
    21    28    33    1
    22    11    10   ar
    23    21    20   ar
    24    13    18    1
    25    13    14   ar
    26     2     1   ar
    27    18    19   ar
    28    10     4    1
    29    10    14   ar
    30     4     5   ar
    31    27    32    1
    32    20    19   ar
    33    20    24    1
    34    25    24    1
    35    19    23    1
    36     1     5   ar
    37     1     6    1
