@<TRIPOS>MOLECULE
mol_data/opt/cam/geoms/mol2/5ag5ag5ag.out
 26 28 0 0 0
SMALL
GASTEIGER

@<TRIPOS>ATOM
      1 C          -2.0234   -1.9482    0.2018 C.ar    1  LIG1       -0.0227
      2 C          -0.7860   -1.9073   -0.3541 C.ar    1  LIG1       -0.0409
      3 C          -0.2508   -0.5837   -0.4192 C.ar    1  LIG1        0.0200
      4 C          -1.1018    0.3604    0.1007 C.ar    1  LIG1        0.0391
      5 S          -2.5733   -0.3870    0.6653 S.2     1  LIG1       -0.0950
      6 H          -2.6488   -2.8148    0.3605 H       1  LIG1        0.0694
      7 H          -0.2618   -2.7792   -0.7250 H       1  LIG1        0.0634
      8 S           1.3411   -0.3212   -1.1475 S.3     1  LIG1       -0.1415
      9 H           1.2267    1.0090   -1.2975 H       1  LIG1        0.1071
     10 C          -0.9139    1.8005    0.2173 C.ar    1  LIG1        0.0286
     11 C           0.1876    2.4748    0.6645 C.ar    1  LIG1       -0.0326
     12 C           0.0278    3.8914    0.6637 C.ar    1  LIG1        0.0206
     13 C          -1.2060    4.2903    0.2121 C.ar    1  LIG1        0.0397
     14 S          -2.1737    2.9099   -0.2285 S.2     1  LIG1       -0.0861
     15 H           1.0749    1.9764    1.0345 H       1  LIG1        0.0640
     16 S           1.3449    4.9158    1.2549 S.3     1  LIG1       -0.1415
     17 H           0.6193    6.0393    1.3825 H       1  LIG1        0.1071
     18 C          -1.7425    5.6384    0.0754 C.ar    1  LIG1        0.0280
     19 C          -1.1387    6.7347   -0.4758 C.ar    1  LIG1       -0.0332
     20 C          -1.9603    7.9021   -0.4466 C.ar    1  LIG1        0.0124
     21 C          -3.1771    7.6702    0.1197 C.ar    1  LIG1       -0.0105
     22 S          -3.3389    6.0350    0.6425 S.2     1  LIG1       -0.0950
     23 H          -3.9900    8.3674    0.2619 H       1  LIG1        0.0704
     24 H          -0.1526    6.7038   -0.9224 H       1  LIG1        0.0640
     25 S          -1.3653    9.4326   -1.1138 S.3     1  LIG1       -0.1421
     26 H          -2.4844   10.1424   -0.8996 H       1  LIG1        0.1071
@<TRIPOS>BOND
     1     9     8    1
     2     8     3    1
     3    25    26    1
     4    25    20    1
     5    24    19    1
     6     7     2    1
     7    19    20   ar
     8    19    18   ar
     9    20    21   ar
    10     3     2   ar
    11     3     4   ar
    12     2     1   ar
    13    14    13   ar
    14    14    10   ar
    15    18    13    1
    16    18    22   ar
    17     4    10    1
    18     4     5   ar
    19    21    23    1
    20    21    22   ar
    21     1     6    1
    22     1     5   ar
    23    13    12   ar
    24    10    11   ar
    25    12    11   ar
    26    12    16    1
    27    11    15    1
    28    16    17    1
