@<TRIPOS>MOLECULE
mol_data/opt/cam/geoms/mol2/5ag5ag5ag-5ag.out
 34 37 0 0 0
SMALL
GASTEIGER

@<TRIPOS>ATOM
      1 C          -2.0497   -1.9803   -0.1232 C.ar    1  LIG1       -0.0227
      2 C          -0.7548   -1.9452   -0.5284 C.ar    1  LIG1       -0.0409
      3 C          -0.1937   -0.6318   -0.4784 C.ar    1  LIG1        0.0200
      4 C          -1.0843    0.3102   -0.0251 C.ar    1  LIG1        0.0391
      5 S          -2.6244   -0.4261    0.3335 S.2     1  LIG1       -0.0950
      6 H          -2.7037   -2.8387   -0.0728 H       1  LIG1        0.0694
      7 H          -0.2052   -2.8136   -0.8693 H       1  LIG1        0.0634
      8 S           1.4773   -0.3766   -1.0038 S.3     1  LIG1       -0.1415
      9 H           1.4023    0.9598   -1.1193 H       1  LIG1        0.1071
     10 C          -0.8875    1.7405    0.1697 C.ar    1  LIG1        0.0286
     11 C           0.1682    2.3750    0.7625 C.ar    1  LIG1       -0.0326
     12 C           0.0323    3.7933    0.8011 C.ar    1  LIG1        0.0206
     13 C          -1.1377    4.2341    0.2324 C.ar    1  LIG1        0.0397
     14 S          -2.0728    2.8910   -0.3667 S.2     1  LIG1       -0.0861
     15 H           1.0006    1.8451    1.2084 H       1  LIG1        0.0640
     16 S           1.2930    4.7654    1.5752 S.3     1  LIG1       -0.1415
     17 H           0.5675    5.8894    1.6991 H       1  LIG1        0.1071
     18 C          -1.6343    5.5959    0.0903 C.ar    1  LIG1        0.0286
     19 C          -0.9488    6.7059   -0.3181 C.ar    1  LIG1       -0.0326
     20 C          -1.7428    7.8896   -0.3391 C.ar    1  LIG1        0.0206
     21 C          -3.0431    7.6682    0.0418 C.ar    1  LIG1        0.0397
     22 S          -3.2856    5.9931    0.4557 S.2     1  LIG1       -0.0861
     23 H           0.0916    6.6813   -0.6175 H       1  LIG1        0.0640
     24 S          -1.0019    9.4267   -0.8102 S.3     1  LIG1       -0.1415
     25 H          -2.0062   10.2143   -0.3906 H       1  LIG1        0.1071
     26 C          -4.1471    8.6161    0.1311 C.ar    1  LIG1        0.0280
     27 C          -4.5377    9.5435   -0.7947 C.ar    1  LIG1       -0.0332
     28 C          -5.6680   10.3104   -0.3789 C.ar    1  LIG1        0.0124
     29 C          -6.1207    9.9465    0.8532 C.ar    1  LIG1       -0.0105
     30 S          -5.1713    8.6796    1.5359 S.2     1  LIG1       -0.0950
     31 H          -6.9591   10.3510    1.4014 H       1  LIG1        0.0704
     32 H          -4.0573    9.6536   -1.7592 H       1  LIG1        0.0640
     33 S          -6.3367   11.5656   -1.4365 S.3     1  LIG1       -0.1421
     34 H          -7.3412   11.9341   -0.6259 H       1  LIG1        0.1071
@<TRIPOS>BOND
     1    32    27    1
     2    33    34    1
     3    33    28    1
     4     9     8    1
     5     8     3    1
     6     7     2    1
     7    24    25    1
     8    24    20    1
     9    27    28   ar
    10    27    26   ar
    11    23    19    1
    12     2     3   ar
    13     2     1   ar
    14     3     4   ar
    15    28    29   ar
    16    14    10   ar
    17    14    13   ar
    18    20    19   ar
    19    20    21   ar
    20    19    18   ar
    21     1     6    1
    22     1     5   ar
    23     4    10    1
    24     4     5   ar
    25    21    26    1
    26    21    22   ar
    27    18    13    1
    28    18    22   ar
    29    26    30   ar
    30    10    11   ar
    31    13    12   ar
    32    11    12   ar
    33    11    15    1
    34    12    16    1
    35    29    31    1
    36    29    30   ar
    37    16    17    1
