@<TRIPOS>MOLECULE
mol_data/opt/cam/geoms/mol2/5ag5ag5ag5ag-.out
 34 37 0 0 0
SMALL
GASTEIGER

@<TRIPOS>ATOM
      1 C          -2.0016   -1.9991    0.2047 C.ar    1  LIG1       -0.0227
      2 C          -0.7261   -1.9782   -0.2587 C.ar    1  LIG1       -0.0409
      3 C          -0.1783   -0.6594   -0.3152 C.ar    1  LIG1        0.0200
      4 C          -1.0590    0.3014    0.1177 C.ar    1  LIG1        0.0391
      5 S          -2.5735   -0.4245    0.5891 S.2     1  LIG1       -0.0950
      6 H          -2.6430   -2.8584    0.3372 H       1  LIG1        0.0694
      7 H          -0.1820   -2.8614   -0.5692 H       1  LIG1        0.0634
      8 S           1.4651   -0.4230   -0.9291 S.3     1  LIG1       -0.1415
      9 H           1.3685    0.9022   -1.1278 H       1  LIG1        0.1071
     10 C          -0.8705    1.7427    0.2137 C.ar    1  LIG1        0.0286
     11 C           0.2026    2.4230    0.7176 C.ar    1  LIG1       -0.0326
     12 C           0.0516    3.8396    0.6735 C.ar    1  LIG1        0.0206
     13 C          -1.1476    4.2330    0.1312 C.ar    1  LIG1        0.0397
     14 S          -2.0922    2.8462   -0.3399 S.2     1  LIG1       -0.0861
     15 H           1.0602    1.9300    1.1580 H       1  LIG1        0.0640
     16 S           1.3335    4.8704    1.3275 S.3     1  LIG1       -0.1415
     17 H           0.5975    5.9905    1.4223 H       1  LIG1        0.1071
     18 C          -1.6666    5.5778   -0.0731 C.ar    1  LIG1        0.0286
     19 C          -1.0136    6.6681   -0.5773 C.ar    1  LIG1       -0.0326
     20 C          -1.8309    7.8328   -0.6607 C.ar    1  LIG1        0.0206
     21 C          -3.1126    7.6201   -0.2162 C.ar    1  LIG1        0.0397
     22 S          -3.3109    5.9749    0.3218 S.2     1  LIG1       -0.0861
     23 H           0.0093    6.6332   -0.9309 H       1  LIG1        0.0640
     24 S          -1.1539    9.3241   -1.3323 S.3     1  LIG1       -0.1415
     25 H          -2.3266    9.9504   -1.5267 H       1  LIG1        0.1071
     26 C          -4.2300    8.5533   -0.1524 C.ar    1  LIG1        0.0280
     27 C          -4.2314    9.8368    0.3200 C.ar    1  LIG1       -0.0332
     28 C          -5.5110   10.4645    0.2357 C.ar    1  LIG1        0.0124
     29 C          -6.4611    9.6439   -0.2925 C.ar    1  LIG1       -0.0105
     30 S          -5.8141    8.1021   -0.7132 S.2     1  LIG1       -0.0950
     31 H          -7.5069    9.8566   -0.4608 H       1  LIG1        0.0704
     32 H          -3.3563   10.3095    0.7484 H       1  LIG1        0.0640
     33 S          -5.7298   12.1304    0.7995 S.3     1  LIG1       -0.1421
     34 H          -7.0431   12.2142    0.5346 H       1  LIG1        0.1071
@<TRIPOS>BOND
     1    25    24    1
     2    24    20    1
     3     9     8    1
     4    23    19    1
     5     8     3    1
     6    30    29   ar
     7    30    26   ar
     8    20    19   ar
     9    20    21   ar
    10    19    18   ar
    11     7     2    1
    12    31    29    1
    13    14    13   ar
    14    14    10   ar
    15     3     2   ar
    16     3     4   ar
    17    29    28   ar
    18     2     1   ar
    19    21    26    1
    20    21    22   ar
    21    26    27   ar
    22    18    13    1
    23    18    22   ar
    24     4    10    1
    25     4     5   ar
    26    13    12   ar
    27     1     6    1
    28     1     5   ar
    29    10    11   ar
    30    28    27   ar
    31    28    33    1
    32    27    32    1
    33    34    33    1
    34    12    11   ar
    35    12    16    1
    36    11    15    1
    37    16    17    1
