@<TRIPOS>MOLECULE
mol_data/opt/cam/geoms/mol2/5ag5ag-5ag-.out
 26 28 0 0 0
SMALL
GASTEIGER

@<TRIPOS>ATOM
      1 C          -1.9726   -1.8896    0.7525 C.ar    1  LIG1       -0.0227
      2 C          -0.8732   -1.9312   -0.0422 C.ar    1  LIG1       -0.0409
      3 C          -0.3539   -0.6330   -0.3388 C.ar    1  LIG1        0.0200
      4 C          -1.0759    0.3759    0.2496 C.ar    1  LIG1        0.0391
      5 S          -2.4070   -0.2792    1.1672 S.2     1  LIG1       -0.0950
      6 H          -2.5581   -2.7220    1.1151 H       1  LIG1        0.0694
      7 H          -0.4405   -2.8464   -0.4266 H       1  LIG1        0.0634
      8 S           1.0592   -0.4799   -1.3938 S.3     1  LIG1       -0.1415
      9 H           0.9317    0.8352   -1.6372 H       1  LIG1        0.1071
     10 C          -0.8593    1.8159    0.1893 C.ar    1  LIG1        0.0286
     11 C           0.3146    2.4997    0.3375 C.ar    1  LIG1       -0.0326
     12 C           0.1709    3.9126    0.2120 C.ar    1  LIG1        0.0206
     13 C          -1.1260    4.3002   -0.0176 C.ar    1  LIG1        0.0397
     14 S          -2.1744    2.9112   -0.1082 S.2     1  LIG1       -0.0861
     15 H           1.2583    2.0134    0.5507 H       1  LIG1        0.0640
     16 S           1.6010    4.9478    0.3427 S.3     1  LIG1       -0.1415
     17 H           1.0274    6.0624   -0.1408 H       1  LIG1        0.1071
     18 C          -1.6671    5.6438   -0.1820 C.ar    1  LIG1        0.0280
     19 C          -1.4307    6.7478    0.5894 C.ar    1  LIG1       -0.0332
     20 C          -2.1329    7.9072    0.1406 C.ar    1  LIG1        0.0124
     21 C          -2.8966    7.6615   -0.9601 C.ar    1  LIG1       -0.0105
     22 S          -2.7611    6.0233   -1.4805 S.2     1  LIG1       -0.0950
     23 H          -3.5324    8.3501   -1.4975 H       1  LIG1        0.0704
     24 H          -0.8031    6.7280    1.4718 H       1  LIG1        0.0640
     25 S          -1.9671    9.4453    1.0057 S.3     1  LIG1       -0.1421
     26 H          -2.8010   10.1533    0.2277 H       1  LIG1        0.1071
@<TRIPOS>BOND
     1     9     8    1
     2    23    21    1
     3    22    21   ar
     4    22    18   ar
     5     8     3    1
     6    21    20   ar
     7     7     2    1
     8     3     2   ar
     9     3     4   ar
    10    18    13    1
    11    18    19   ar
    12    17    16    1
    13    14    13   ar
    14    14    10   ar
    15     2     1   ar
    16    13    12   ar
    17    20    19   ar
    18    20    25    1
    19    10     4    1
    20    10    11   ar
    21    12    11   ar
    22    12    16    1
    23    26    25    1
    24     4     5   ar
    25    11    15    1
    26    19    24    1
    27     1     6    1
    28     1     5   ar
