@<TRIPOS>MOLECULE
mol_data/opt/cam/geoms/mol2/5ag5ag5ag-.out
 26 28 0 0 0
SMALL
GASTEIGER

@<TRIPOS>ATOM
      1 C          -2.0201   -1.9489    0.2021 C.ar    1  LIG1       -0.0227
      2 C          -0.7814   -1.9071   -0.3512 C.ar    1  LIG1       -0.0409
      3 C          -0.2471   -0.5830   -0.4149 C.ar    1  LIG1        0.0200
      4 C          -1.0999    0.3604    0.1032 C.ar    1  LIG1        0.0391
      5 S          -2.5721   -0.3881    0.6646 S.2     1  LIG1       -0.0950
      6 H          -2.6451   -2.8160    0.3593 H       1  LIG1        0.0694
      7 H          -0.2558   -2.7785   -0.7210 H       1  LIG1        0.0634
      8 S           1.3462   -0.3193   -1.1397 S.3     1  LIG1       -0.1415
      9 H           1.2312    1.0109   -1.2897 H       1  LIG1        0.1071
     10 C          -0.9133    1.8006    0.2205 C.ar    1  LIG1        0.0286
     11 C           0.1868    2.4756    0.6701 C.ar    1  LIG1       -0.0326
     12 C           0.0259    3.8921    0.6691 C.ar    1  LIG1        0.0206
     13 C          -1.2072    4.2902    0.2149 C.ar    1  LIG1        0.0397
     14 S          -2.1729    2.9092   -0.2280 S.2     1  LIG1       -0.0861
     15 H           1.0736    1.9778    1.0420 H       1  LIG1        0.0640
     16 S           1.3410    4.9174    1.2634 S.3     1  LIG1       -0.1415
     17 H           0.6143    6.0404    1.3896 H       1  LIG1        0.1071
     18 C          -1.7443    5.6379    0.0771 C.ar    1  LIG1        0.0280
     19 C          -1.1402    6.7347   -0.4725 C.ar    1  LIG1       -0.0332
     20 C          -1.9626    7.9015   -0.4450 C.ar    1  LIG1        0.0124
     21 C          -3.1805    7.6687    0.1185 C.ar    1  LIG1       -0.0105
     22 S          -3.3423    6.0333    0.6407 S.2     1  LIG1       -0.0950
     23 H          -3.9942    8.3653    0.2590 H       1  LIG1        0.0704
     24 H          -0.1530    6.7045   -0.9170 H       1  LIG1        0.0640
     25 S          -1.3673    9.4325   -1.1107 S.3     1  LIG1       -0.1421
     26 H          -2.4873   10.1415   -0.8989 H       1  LIG1        0.1071
@<TRIPOS>BOND
     1     9     8    1
     2     8     3    1
     3    25    26    1
     4    25    20    1
     5    24    19    1
     6     7     2    1
     7    19    20   ar
     8    19    18   ar
     9    20    21   ar
    10     3     2   ar
    11     3     4   ar
    12     2     1   ar
    13    14    13   ar
    14    14    10   ar
    15    18    13    1
    16    18    22   ar
    17     4    10    1
    18     4     5   ar
    19    21    23    1
    20    21    22   ar
    21     1     6    1
    22     1     5   ar
    23    13    12   ar
    24    10    11   ar
    25    12    11   ar
    26    12    16    1
    27    11    15    1
    28    16    17    1
