@<TRIPOS>MOLECULE
mol_data/opt/cam/geoms/mol2/5ag5ag5ag-5ag-.out
 34 37 0 0 0
SMALL
GASTEIGER

@<TRIPOS>ATOM
      1 C          -2.0539   -1.9806   -0.1048 C.ar    1  LIG1       -0.0227
      2 C          -0.7616   -1.9475   -0.5182 C.ar    1  LIG1       -0.0409
      3 C          -0.1995   -0.6342   -0.4758 C.ar    1  LIG1        0.0200
      4 C          -1.0867    0.3096   -0.0197 C.ar    1  LIG1        0.0391
      5 S          -2.6249   -0.4247    0.3508 S.2     1  LIG1       -0.0950
      6 H          -2.7081   -2.8385   -0.0477 H       1  LIG1        0.0694
      7 H          -0.2145   -2.8172   -0.8600 H       1  LIG1        0.0634
      8 S           1.4683   -0.3815   -1.0125 S.3     1  LIG1       -0.1415
      9 H           1.3932    0.9546   -1.1315 H       1  LIG1        0.1071
     10 C          -0.8879    1.7404    0.1695 C.ar    1  LIG1        0.0286
     11 C           0.1718    2.3761    0.7537 C.ar    1  LIG1       -0.0326
     12 C           0.0369    3.7947    0.7889 C.ar    1  LIG1        0.0206
     13 C          -1.1364    4.2343    0.2262 C.ar    1  LIG1        0.0397
     14 S          -2.0760    2.8899   -0.3629 S.2     1  LIG1       -0.0861
     15 H           1.0067    1.8472    1.1960 H       1  LIG1        0.0640
     16 S           1.3030    4.7684    1.5520 S.3     1  LIG1       -0.1415
     17 H           0.5788    5.8932    1.6771 H       1  LIG1        0.1071
     18 C          -1.6332    5.5960    0.0831 C.ar    1  LIG1        0.0286
     19 C          -0.9498    6.7043   -0.3330 C.ar    1  LIG1       -0.0326
     20 C          -1.7432    7.8885   -0.3525 C.ar    1  LIG1        0.0206
     21 C          -3.0413    7.6689    0.0372 C.ar    1  LIG1        0.0397
     22 S          -3.2820    5.9952    0.4577 S.2     1  LIG1       -0.0861
     23 H           0.0887    6.6783   -0.6388 H       1  LIG1        0.0640
     24 S          -1.0045    9.4236   -0.8330 S.3     1  LIG1       -0.1415
     25 H          -2.0057   10.2131   -0.4095 H       1  LIG1        0.1071
     26 C          -4.1441    8.6177    0.1305 C.ar    1  LIG1        0.0280
     27 C          -4.5400    9.5425   -0.7956 C.ar    1  LIG1       -0.0332
     28 C          -5.6674   10.3112   -0.3751 C.ar    1  LIG1        0.0124
     29 C          -6.1125    9.9513    0.8609 C.ar    1  LIG1       -0.0105
     30 S          -5.1595    8.6860    1.5415 S.2     1  LIG1       -0.0950
     31 H          -6.9472   10.3579    1.4132 H       1  LIG1        0.0704
     32 H          -4.0657    9.6494   -1.7634 H       1  LIG1        0.0640
     33 S          -6.3420   11.5636   -1.4322 S.3     1  LIG1       -0.1421
     34 H          -7.3413   11.9350   -0.6164 H       1  LIG1        0.1071
@<TRIPOS>BOND
     1    32    27    1
     2    33    34    1
     3    33    28    1
     4     9     8    1
     5     8     3    1
     6     7     2    1
     7    24    25    1
     8    24    20    1
     9    27    28   ar
    10    27    26   ar
    11    23    19    1
    12     2     3   ar
    13     2     1   ar
    14     3     4   ar
    15    28    29   ar
    16    14    10   ar
    17    14    13   ar
    18    20    19   ar
    19    20    21   ar
    20    19    18   ar
    21     1     6    1
    22     1     5   ar
    23     4    10    1
    24     4     5   ar
    25    21    26    1
    26    21    22   ar
    27    18    13    1
    28    18    22   ar
    29    26    30   ar
    30    10    11   ar
    31    13    12   ar
    32    11    12   ar
    33    11    15    1
    34    12    16    1
    35    29    31    1
    36    29    30   ar
    37    16    17    1
