@<TRIPOS>MOLECULE
mol_data/opt/cam/geoms/mol2/5ag5ag-5ag-5ag-.out
 34 37 0 0 0
SMALL
GASTEIGER

@<TRIPOS>ATOM
      1 C          -1.5677   -1.9804    1.0085 C.ar    1  LIG1       -0.0227
      2 C          -0.8376   -1.9735   -0.1356 C.ar    1  LIG1       -0.0409
      3 C          -0.4693   -0.6563   -0.5504 C.ar    1  LIG1        0.0200
      4 C          -0.9287    0.3176    0.3018 C.ar    1  LIG1        0.0391
      5 S          -1.8262   -0.3940    1.6173 S.2     1  LIG1       -0.0950
      6 H          -1.9754   -2.8358    1.5274 H       1  LIG1        0.0694
      7 H          -0.5729   -2.8662   -0.6883 H       1  LIG1        0.0634
      8 S           0.4569   -0.4399   -2.0433 S.3     1  LIG1       -0.1415
      9 H           0.2325    0.8779   -2.1783 H       1  LIG1        0.1071
     10 C          -0.7551    1.7624    0.2238 C.ar    1  LIG1        0.0286
     11 C           0.3872    2.4624   -0.0459 C.ar    1  LIG1       -0.0326
     12 C           0.2027    3.8759   -0.0501 C.ar    1  LIG1        0.0206
     13 C          -1.0885    4.2472    0.2352 C.ar    1  LIG1        0.0397
     14 S          -2.0909    2.8426    0.4808 S.2     1  LIG1       -0.0861
     15 H           1.3443    1.9865   -0.2195 H       1  LIG1        0.0640
     16 S           1.5768    4.9300   -0.4171 S.3     1  LIG1       -0.1415
     17 H           0.8605    6.0444   -0.6413 H       1  LIG1        0.1071
     18 C          -1.6576    5.5837    0.3396 C.ar    1  LIG1        0.0286
     19 C          -1.1407    6.6735    0.9832 C.ar    1  LIG1       -0.0326
     20 C          -1.9721    7.8286    0.9045 C.ar    1  LIG1        0.0206
     21 C          -3.1276    7.6088    0.1957 C.ar    1  LIG1        0.0397
     22 S          -3.1856    5.9695   -0.3910 S.2     1  LIG1       -0.0861
     23 H          -0.2159    6.6438    1.5457 H       1  LIG1        0.0640
     24 S          -1.4728    9.3175    1.7214 S.3     1  LIG1       -0.1415
     25 H          -2.6685    9.9279    1.6701 H       1  LIG1        0.1071
     26 C          -4.2186    8.5311   -0.0920 C.ar    1  LIG1        0.0280
     27 C          -4.1372    9.8209   -0.5393 C.ar    1  LIG1       -0.0332
     28 C          -5.4140   10.4341   -0.7195 C.ar    1  LIG1        0.0124
     29 C          -6.4432    9.5963   -0.4129 C.ar    1  LIG1       -0.0105
     30 S          -5.8792    8.0553    0.1161 S.2     1  LIG1       -0.0950
     31 H          -7.5037    9.7959   -0.4658 H       1  LIG1        0.0704
     32 H          -3.1977   10.3088   -0.7681 H       1  LIG1        0.0640
     33 S          -5.5309   12.1059   -1.2961 S.3     1  LIG1       -0.1421
     34 H          -6.8714   12.1660   -1.3316 H       1  LIG1        0.1071
@<TRIPOS>BOND
     1     9     8    1
     2     8     3    1
     3    34    33    1
     4    33    28    1
     5    32    27    1
     6    28    27   ar
     7    28    29   ar
     8     7     2    1
     9    17    16    1
    10     3     2   ar
    11     3     4   ar
    12    27    26   ar
    13    31    29    1
    14    16    12    1
    15    29    30   ar
    16    22    21   ar
    17    22    18   ar
    18    15    11    1
    19     2     1   ar
    20    26    30   ar
    21    26    21    1
    22    12    11   ar
    23    12    13   ar
    24    11    10   ar
    25    21    20   ar
    26    10     4    1
    27    10    14   ar
    28    13    18    1
    29    13    14   ar
    30     4     5   ar
    31    18    19   ar
    32    20    19   ar
    33    20    24    1
    34    19    23    1
    35     1     6    1
    36     1     5   ar
    37    25    24    1
