@<TRIPOS>MOLECULE
mol_data/opt/cam/geoms/mol2/5ah.out
 11 11 0 0 0
SMALL
GASTEIGER

@<TRIPOS>ATOM
      1 C          -2.0961   -1.7565    0.0240 C.ar    1  LIG1       -0.0225
      2 C          -0.7394   -1.7269   -0.0149 C.ar    1  LIG1       -0.0340
      3 C          -0.2120   -0.3935   -0.0495 C.ar    1  LIG1        0.0316
      4 C          -1.2019    0.5467   -0.0355 C.ar    1  LIG1       -0.0037
      5 S          -2.7739   -0.1740    0.0320 S.2     1  LIG1       -0.1032
      6 H          -2.7372   -2.6254    0.0563 H       1  LIG1        0.0694
      7 H          -1.0940    1.6214   -0.0510 H       1  LIG1        0.0712
      8 H          -0.1162   -2.6136   -0.0096 H       1  LIG1        0.0641
      9 N           1.1628   -0.1373   -0.0329 N.pl3   1  LIG1       -0.3576
     10 H           1.7063   -0.8119   -0.5536 H       1  LIG1        0.1423
     11 H           1.4064    0.8031   -0.3104 H       1  LIG1        0.1423
@<TRIPOS>BOND
     1    10     9    1
     2    11     9    1
     3     7     4    1
     4     3     4   ar
     5     3     9    1
     6     3     2   ar
     7     4     5   ar
     8     2     8    1
     9     2     1   ar
    10     1     5   ar
    11     1     6    1
