@<TRIPOS>MOLECULE
mol_data/opt/cam/geoms/mol2/5ah5ah5ah-.out
 29 31 0 0 0
SMALL
GASTEIGER

@<TRIPOS>ATOM
      1 C          -1.9094   -1.9225    0.7242 C.ar    1  LIG1       -0.0219
      2 C          -0.7308   -1.9249    0.0504 C.ar    1  LIG1       -0.0334
      3 C          -0.2442   -0.6083   -0.2250 C.ar    1  LIG1        0.0400
      4 C          -1.0800    0.3727    0.2602 C.ar    1  LIG1        0.0465
      5 S          -2.4623   -0.3303    1.0628 S.2     1  LIG1       -0.0942
      6 H          -2.4834   -2.7776    1.0505 H       1  LIG1        0.0694
      7 H          -0.2080   -2.8258   -0.2488 H       1  LIG1        0.0641
      8 N           0.9576   -0.3769   -0.8916 N.pl3   1  LIG1       -0.3571
      9 H           1.2023   -1.1069   -1.5466 H       1  LIG1        0.1424
     10 H           1.0047    0.5365   -1.3259 H       1  LIG1        0.1424
     11 C          -0.8965    1.8077    0.1531 C.ar    1  LIG1        0.0301
     12 C           0.2821    2.5041    0.1907 C.ar    1  LIG1       -0.0250
     13 C           0.1196    3.9140    0.0373 C.ar    1  LIG1        0.0406
     14 C          -1.1977    4.2836   -0.1089 C.ar    1  LIG1        0.0471
     15 S          -2.2430    2.8842   -0.0722 S.2     1  LIG1       -0.0853
     16 H           1.2387    2.0323    0.3827 H       1  LIG1        0.0648
     17 N           1.1954    4.7984    0.0798 N.pl3   1  LIG1       -0.3570
     18 H           2.0629    4.3983   -0.2498 H       1  LIG1        0.1424
     19 H           1.0027    5.6865   -0.3662 H       1  LIG1        0.1424
     20 C          -1.7157    5.6281   -0.2773 C.ar    1  LIG1        0.0295
     21 C          -1.2426    6.7847    0.2834 C.ar    1  LIG1       -0.0257
     22 C          -1.9730    7.9517   -0.1088 C.ar    1  LIG1        0.0323
     23 C          -2.9947    7.6559   -0.9638 C.ar    1  LIG1       -0.0031
     24 S          -3.0763    5.9617   -1.3108 S.2     1  LIG1       -0.0942
     25 H          -3.7158    8.3354   -1.3940 H       1  LIG1        0.0712
     26 H          -0.4399    6.8000    1.0116 H       1  LIG1        0.0647
     27 N          -1.6868    9.2148    0.4160 N.pl3   1  LIG1       -0.3575
     28 H          -0.7047    9.3703    0.5946 H       1  LIG1        0.1423
     29 H          -2.0811    9.9799   -0.1127 H       1  LIG1        0.1423
@<TRIPOS>BOND
     1     9     8    1
     2    25    23    1
     3    10     8    1
     4    24    23   ar
     5    24    20   ar
     6    23    22   ar
     7     8     3    1
     8    19    17    1
     9    20    14    1
    10    20    21   ar
    11    18    17    1
    12     7     2    1
    13     3     2   ar
    14     3     4   ar
    15    29    27    1
    16    14    15   ar
    17    14    13   ar
    18    22    21   ar
    19    22    27    1
    20    15    11   ar
    21    13    17    1
    22    13    12   ar
    23     2     1   ar
    24    11    12   ar
    25    11     4    1
    26    12    16    1
    27     4     5   ar
    28    21    26    1
    29    27    28    1
    30     1     6    1
    31     1     5   ar
