@<TRIPOS>MOLECULE
mol_data/opt/cam/geoms/mol2/5ah5ah5ah5ah-.out
 38 41 0 0 0
SMALL
GASTEIGER

@<TRIPOS>ATOM
      1 C          -1.6183   -1.9524    1.1847 C.ar    1  LIG1       -0.0219
      2 C          -0.6834   -1.9803    0.2005 C.ar    1  LIG1       -0.0334
      3 C          -0.2846   -0.6745   -0.2257 C.ar    1  LIG1        0.0400
      4 C          -0.9363    0.3244    0.4631 C.ar    1  LIG1        0.0465
      5 S          -2.0360   -0.3486    1.6409 S.2     1  LIG1       -0.0942
      6 H          -2.0819   -2.7951    1.6768 H       1  LIG1        0.0694
      7 H          -0.2775   -2.8924   -0.2211 H       1  LIG1        0.0641
      8 N           0.6755   -0.4687   -1.2142 N.pl3   1  LIG1       -0.3571
      9 H           0.7179   -1.2135   -1.8965 H       1  LIG1        0.1424
     10 H           0.6011    0.4359   -1.6627 H       1  LIG1        0.1424
     11 C          -0.7783    1.7548    0.2831 C.ar    1  LIG1        0.0301
     12 C           0.3667    2.4347   -0.0381 C.ar    1  LIG1       -0.0250
     13 C           0.1808    3.8441   -0.1605 C.ar    1  LIG1        0.0406
     14 C          -1.1183    4.2313    0.0808 C.ar    1  LIG1        0.0472
     15 S          -2.1215    2.8468    0.4427 S.2     1  LIG1       -0.0853
     16 H           1.3327    1.9515   -0.1277 H       1  LIG1        0.0648
     17 N           1.2294    4.7124   -0.4543 N.pl3   1  LIG1       -0.3570
     18 H           1.9673    4.2879   -0.9989 H       1  LIG1        0.1424
     19 H           0.9255    5.5886   -0.8600 H       1  LIG1        0.1424
     20 C          -1.6484    5.5793    0.0505 C.ar    1  LIG1        0.0301
     21 C          -1.0094    6.7387    0.4047 C.ar    1  LIG1       -0.0250
     22 C          -1.8103    7.9080    0.2385 C.ar    1  LIG1        0.0406
     23 C          -3.0700    7.6263   -0.2383 C.ar    1  LIG1        0.0471
     24 S          -3.2655    5.9097   -0.4983 S.2     1  LIG1       -0.0853
     25 H          -0.0145    6.7555    0.8342 H       1  LIG1        0.0648
     26 N          -1.3519    9.1805    0.5734 N.pl3   1  LIG1       -0.3570
     27 H          -0.3522    9.2904    0.4752 H       1  LIG1        0.1424
     28 H          -1.8552    9.9241    0.1059 H       1  LIG1        0.1424
     29 C          -4.1341    8.5732   -0.5121 C.ar    1  LIG1        0.0295
     30 C          -4.4281    9.7239    0.1701 C.ar    1  LIG1       -0.0257
     31 C          -5.5347   10.4479   -0.3783 C.ar    1  LIG1        0.0323
     32 C          -6.0639    9.8276   -1.4726 C.ar    1  LIG1       -0.0031
     33 S          -5.2211    8.3647   -1.8560 S.2     1  LIG1       -0.0942
     34 H          -6.9140   10.1372   -2.0627 H       1  LIG1        0.0712
     35 H          -3.9176   10.0148    1.0809 H       1  LIG1        0.0647
     36 N          -6.0313   11.6074    0.2232 N.pl3   1  LIG1       -0.3575
     37 H          -5.3199   12.1821    0.6523 H       1  LIG1        0.1423
     38 H          -6.6264   12.1606   -0.3768 H       1  LIG1        0.1423
@<TRIPOS>BOND
     1    34    32    1
     2     9     8    1
     3    33    32   ar
     4    33    29   ar
     5    10     8    1
     6    32    31   ar
     7     8     3    1
     8    18    17    1
     9    19    17    1
    10    29    23    1
    11    29    30   ar
    12    24    23   ar
    13    24    20   ar
    14    17    13    1
    15    31    30   ar
    16    31    36    1
    17    38    36    1
    18    23    22   ar
    19     3     2   ar
    20     3     4   ar
    21     7     2    1
    22    13    12   ar
    23    13    14   ar
    24    16    12    1
    25    12    11   ar
    26    20    14    1
    27    20    21   ar
    28    14    15   ar
    29    28    26    1
    30    30    35    1
    31     2     1   ar
    32    36    37    1
    33    22    21   ar
    34    22    26    1
    35    11    15   ar
    36    11     4    1
    37    21    25    1
    38     4     5   ar
    39    27    26    1
    40     1     5   ar
    41     1     6    1
