@<TRIPOS>MOLECULE
mol_data/opt/cam/geoms/mol2/5ah5ah5ah-5ah-.out
 38 41 0 0 0
SMALL
GASTEIGER

@<TRIPOS>ATOM
      1 C          -1.6271   -1.9530    1.1767 C.ar    1  LIG1       -0.0219
      2 C          -0.6852   -1.9803    0.1993 C.ar    1  LIG1       -0.0334
      3 C          -0.2834   -0.6743   -0.2233 C.ar    1  LIG1        0.0400
      4 C          -0.9401    0.3243    0.4613 C.ar    1  LIG1        0.0465
      5 S          -2.0481   -0.3495    1.6309 S.2     1  LIG1       -0.0942
      6 H          -2.0942   -2.7959    1.6652 H       1  LIG1        0.0694
      7 H          -0.2762   -2.8922   -0.2198 H       1  LIG1        0.0641
      8 N           0.6837   -0.4680   -1.2048 N.pl3   1  LIG1       -0.3571
      9 H           0.7310   -1.2123   -1.8871 H       1  LIG1        0.1424
     10 H           0.6125    0.4369   -1.6534 H       1  LIG1        0.1424
     11 C          -0.7809    1.7547    0.2832 C.ar    1  LIG1        0.0301
     12 C           0.3664    2.4348   -0.0294 C.ar    1  LIG1       -0.0250
     13 C           0.1813    3.8443   -0.1524 C.ar    1  LIG1        0.0406
     14 C          -1.1195    4.2313    0.0798 C.ar    1  LIG1        0.0472
     15 S          -2.1252    2.8466    0.4337 S.2     1  LIG1       -0.0853
     16 H           1.3330    1.9517   -0.1124 H       1  LIG1        0.0648
     17 N           1.2319    4.7128   -0.4383 N.pl3   1  LIG1       -0.3570
     18 H           1.9737    4.2887   -0.9777 H       1  LIG1        0.1424
     19 H           0.9309    5.5892   -0.8457 H       1  LIG1        0.1424
     20 C          -1.6494    5.5793    0.0464 C.ar    1  LIG1        0.0301
     21 C          -1.0130    6.7386    0.4058 C.ar    1  LIG1       -0.0250
     22 C          -1.8128    7.9079    0.2344 C.ar    1  LIG1        0.0406
     23 C          -3.0691    7.6264   -0.2515 C.ar    1  LIG1        0.0471
     24 S          -3.2625    5.9099   -0.5138 S.2     1  LIG1       -0.0853
     25 H          -0.0212    6.7551    0.8423 H       1  LIG1        0.0648
     26 N          -1.3569    9.1803    0.5733 N.pl3   1  LIG1       -0.3570
     27 H          -0.3565    9.2902    0.4823 H       1  LIG1        0.1424
     28 H          -1.8569    9.9241    0.1026 H       1  LIG1        0.1424
     29 C          -4.1311    8.5734   -0.5324 C.ar    1  LIG1        0.0295
     30 C          -4.4301    9.7238    0.1483 C.ar    1  LIG1       -0.0257
     31 C          -5.5328   10.4480   -0.4077 C.ar    1  LIG1        0.0323
     32 C          -6.0541    9.8282   -1.5060 C.ar    1  LIG1       -0.0031
     33 S          -5.2085    8.3656   -1.8842 S.2     1  LIG1       -0.0942
     34 H          -6.9000   10.1381   -2.1021 H       1  LIG1        0.0712
     35 H          -3.9262   10.0141    1.0628 H       1  LIG1        0.0647
     36 N          -6.0338   11.6071    0.1909 N.pl3   1  LIG1       -0.3575
     37 H          -5.3255   12.1816    0.6253 H       1  LIG1        0.1423
     38 H          -6.6246   12.1607   -0.4131 H       1  LIG1        0.1423
@<TRIPOS>BOND
     1    34    32    1
     2     9     8    1
     3    33    32   ar
     4    33    29   ar
     5    10     8    1
     6    32    31   ar
     7     8     3    1
     8    18    17    1
     9    19    17    1
    10    29    23    1
    11    29    30   ar
    12    24    23   ar
    13    24    20   ar
    14    17    13    1
    15    38    36    1
    16    31    30   ar
    17    31    36    1
    18    23    22   ar
    19     3     2   ar
    20     3     4   ar
    21     7     2    1
    22    13    12   ar
    23    13    14   ar
    24    16    12    1
    25    12    11   ar
    26    20    14    1
    27    20    21   ar
    28    14    15   ar
    29    28    26    1
    30    30    35    1
    31    36    37    1
    32     2     1   ar
    33    22    21   ar
    34    22    26    1
    35    11    15   ar
    36    11     4    1
    37    21    25    1
    38     4     5   ar
    39    27    26    1
    40     1     5   ar
    41     1     6    1
