@<TRIPOS>MOLECULE
mol_data/opt/cam/geoms/mol2/5ah5ah-5ah-5ah-.out
 38 41 0 0 0
SMALL
GASTEIGER

@<TRIPOS>ATOM
      1 C          -1.6178   -1.9569    1.1745 C.ar    1  LIG1       -0.0219
      2 C          -0.6837   -1.9812    0.1896 C.ar    1  LIG1       -0.0334
      3 C          -0.2851   -0.6739   -0.2322 C.ar    1  LIG1        0.0400
      4 C          -0.9363    0.3226    0.4607 C.ar    1  LIG1        0.0465
      5 S          -2.0350   -0.3547    1.6369 S.2     1  LIG1       -0.0942
      6 H          -2.0810   -2.8013    1.6641 H       1  LIG1        0.0694
      7 H          -0.2781   -2.8918   -0.2356 H       1  LIG1        0.0641
      8 N           0.6742   -0.4647   -1.2208 N.pl3   1  LIG1       -0.3571
      9 H           0.7160   -1.2069   -1.9057 H       1  LIG1        0.1424
     10 H           0.5995    0.4416   -1.6659 H       1  LIG1        0.1424
     11 C          -0.7783    1.7536    0.2857 C.ar    1  LIG1        0.0301
     12 C           0.3665    2.4345   -0.0339 C.ar    1  LIG1       -0.0250
     13 C           0.1806    3.8443   -0.1511 C.ar    1  LIG1        0.0406
     14 C          -1.1183    4.2308    0.0926 C.ar    1  LIG1        0.0472
     15 S          -2.1213    2.8450    0.4503 S.2     1  LIG1       -0.0853
     16 H           1.3324    1.9516   -0.1260 H       1  LIG1        0.0648
     17 N           1.2289    4.7137   -0.4426 N.pl3   1  LIG1       -0.3570
     18 H           1.9664    4.2912   -0.9892 H       1  LIG1        0.1424
     19 H           0.9248    5.5913   -0.8449 H       1  LIG1        0.1424
     20 C          -1.6484    5.5789    0.0675 C.ar    1  LIG1        0.0301
     21 C          -1.0091    6.7370    0.4254 C.ar    1  LIG1       -0.0250
     22 C          -1.8101    7.9069    0.2639 C.ar    1  LIG1        0.0406
     23 C          -3.0702    7.6269   -0.2129 C.ar    1  LIG1        0.0471
     24 S          -3.2659    5.9113   -0.4789 S.2     1  LIG1       -0.0853
     25 H          -0.0139    6.7522    0.8541 H       1  LIG1        0.0648
     26 N          -1.3514    9.1782    0.6030 N.pl3   1  LIG1       -0.3570
     27 H          -0.3517    9.2884    0.5045 H       1  LIG1        0.1424
     28 H          -1.8550    9.9235    0.1386 H       1  LIG1        0.1424
     29 C          -4.1344    8.5749   -0.4825 C.ar    1  LIG1        0.0295
     30 C          -4.4279    9.7232    0.2041 C.ar    1  LIG1       -0.0257
     31 C          -5.5349   10.4491   -0.3409 C.ar    1  LIG1        0.0323
     32 C          -6.0649    9.8328   -1.4370 C.ar    1  LIG1       -0.0031
     33 S          -5.2224    8.3712   -1.8263 S.2     1  LIG1       -0.0942
     34 H          -6.9154   10.1446   -2.0254 H       1  LIG1        0.0712
     35 H          -3.9167   10.0107    1.1155 H       1  LIG1        0.0647
     36 N          -6.0310   11.6065    0.2652 N.pl3   1  LIG1       -0.3575
     37 H          -5.3192   12.1796    0.6957 H       1  LIG1        0.1423
     38 H          -6.6265   12.1619   -0.3324 H       1  LIG1        0.1423
@<TRIPOS>BOND
     1    34    32    1
     2     9     8    1
     3    33    32   ar
     4    33    29   ar
     5    10     8    1
     6    32    31   ar
     7     8     3    1
     8    18    17    1
     9    19    17    1
    10    29    23    1
    11    29    30   ar
    12    24    23   ar
    13    24    20   ar
    14    17    13    1
    15    31    30   ar
    16    31    36    1
    17    38    36    1
    18     7     2    1
    19     3     2   ar
    20     3     4   ar
    21    23    22   ar
    22    13    12   ar
    23    13    14   ar
    24    16    12    1
    25    12    11   ar
    26    20    14    1
    27    20    21   ar
    28    14    15   ar
    29    28    26    1
    30     2     1   ar
    31    30    35    1
    32    22    21   ar
    33    22    26    1
    34    36    37    1
    35    11    15   ar
    36    11     4    1
    37    21    25    1
    38     4     5   ar
    39    27    26    1
    40     1     5   ar
    41     1     6    1
