@<TRIPOS>MOLECULE
mol_data/opt/cam/geoms/mol2/5ah5ah-5ah5ah.out
 38 41 0 0 0
SMALL
GASTEIGER

@<TRIPOS>ATOM
      1 C          -1.6093   -1.9575    1.1774 C.ar    1  LIG1       -0.0219
      2 C          -0.6821   -1.9813    0.1860 C.ar    1  LIG1       -0.0334
      3 C          -0.2864   -0.6737   -0.2377 C.ar    1  LIG1        0.0400
      4 C          -0.9327    0.3223    0.4602 C.ar    1  LIG1        0.0465
      5 S          -2.0233   -0.3556    1.6436 S.2     1  LIG1       -0.0942
      6 H          -2.0692   -2.8022    1.6696 H       1  LIG1        0.0694
      7 H          -0.2795   -2.8916   -0.2425 H       1  LIG1        0.0641
      8 N           0.6661   -0.4639   -1.2328 N.pl3   1  LIG1       -0.3571
      9 H           0.7031   -1.2057   -1.9185 H       1  LIG1        0.1424
     10 H           0.5883    0.4426   -1.6769 H       1  LIG1        0.1424
     11 C          -0.7760    1.7534    0.2850 C.ar    1  LIG1        0.0301
     12 C           0.3666    2.4346   -0.0421 C.ar    1  LIG1       -0.0250
     13 C           0.1799    3.8445   -0.1572 C.ar    1  LIG1        0.0406
     14 C          -1.1172    4.2308    0.0957 C.ar    1  LIG1        0.0472
     15 S          -2.1177    2.8448    0.4595 S.2     1  LIG1       -0.0853
     16 H           1.3318    1.9517   -0.1412 H       1  LIG1        0.0648
     17 N           1.2263    4.7140   -0.4554 N.pl3   1  LIG1       -0.3570
     18 H           1.9599    4.2918   -1.0074 H       1  LIG1        0.1424
     19 H           0.9193    5.5919   -0.8551 H       1  LIG1        0.1424
     20 C          -1.6474    5.5789    0.0751 C.ar    1  LIG1        0.0301
     21 C          -1.0057    6.7368    0.4292 C.ar    1  LIG1       -0.0250
     22 C          -1.8077    7.9068    0.2741 C.ar    1  LIG1        0.0406
     23 C          -3.0711    7.6272   -0.1942 C.ar    1  LIG1        0.0471
     24 S          -3.2687    5.9117   -0.4599 S.2     1  LIG1       -0.0853
     25 H          -0.0075    6.7517    0.8511 H       1  LIG1        0.0648
     26 N          -1.3466    9.1779    0.6107 N.pl3   1  LIG1       -0.3570
     27 H          -0.3477    9.2881    0.5053 H       1  LIG1        0.1424
     28 H          -1.8535    9.9235    0.1502 H       1  LIG1        0.1424
     29 C          -4.1371    8.5753   -0.4558 C.ar    1  LIG1        0.0295
     30 C          -4.4258    9.7232    0.2334 C.ar    1  LIG1       -0.0257
     31 C          -5.5365   10.4495   -0.3034 C.ar    1  LIG1        0.0323
     32 C          -6.0742    9.8338   -1.3962 C.ar    1  LIG1       -0.0031
     33 S          -5.2344    8.3725   -1.7922 S.2     1  LIG1       -0.0942
     34 H          -6.9288   10.1460   -1.9785 H       1  LIG1        0.0712
     35 H          -3.9083   10.0102    1.1414 H       1  LIG1        0.0647
     36 N          -6.0284   11.6064    0.3068 N.pl3   1  LIG1       -0.3575
     37 H          -5.3136   12.1794    0.7327 H       1  LIG1        0.1423
     38 H          -6.6280   12.1623   -0.2864 H       1  LIG1        0.1423
@<TRIPOS>BOND
     1    34    32    1
     2     9     8    1
     3    33    32   ar
     4    33    29   ar
     5    10     8    1
     6    32    31   ar
     7     8     3    1
     8    18    17    1
     9    19    17    1
    10    24    23   ar
    11    24    20   ar
    12    29    23    1
    13    29    30   ar
    14    17    13    1
    15    31    30   ar
    16    31    36    1
    17    38    36    1
    18     7     2    1
    19     3     2   ar
    20     3     4   ar
    21    23    22   ar
    22    13    12   ar
    23    13    14   ar
    24    16    12    1
    25    12    11   ar
    26    20    14    1
    27    20    21   ar
    28    14    15   ar
    29    28    26    1
    30     2     1   ar
    31    30    35    1
    32    22    21   ar
    33    22    26    1
    34    11    15   ar
    35    11     4    1
    36    36    37    1
    37    21    25    1
    38     4     5   ar
    39    27    26    1
    40     1     5   ar
    41     1     6    1
