@<TRIPOS>MOLECULE
mol_data/opt/cam/geoms/mol2/5ah5ah.out
 20 21 0 0 0
SMALL
GASTEIGER

@<TRIPOS>ATOM
      1 C          -2.0377   -1.8497    0.3761 C.ar    1  LIG1       -0.0219
      2 C          -0.7309   -1.8407    0.0086 C.ar    1  LIG1       -0.0334
      3 C          -0.2145   -0.5198   -0.1804 C.ar    1  LIG1        0.0400
      4 C          -1.1591    0.4525    0.0570 C.ar    1  LIG1        0.0465
      5 S          -2.6821   -0.2623    0.5235 S.2     1  LIG1       -0.0942
      6 H          -2.6592   -2.7097    0.5796 H       1  LIG1        0.0694
      7 H          -0.1353   -2.7360   -0.1267 H       1  LIG1        0.0641
      8 N           1.1105   -0.2768   -0.5397 N.pl3   1  LIG1       -0.3571
      9 H           1.5136   -1.0077   -1.1099 H       1  LIG1        0.1424
     10 H           1.2484    0.6342   -0.9596 H       1  LIG1        0.1424
     11 C          -0.9800    1.8898   -0.0488 C.ar    1  LIG1        0.0294
     12 C           0.1328    2.6197    0.2722 C.ar    1  LIG1       -0.0257
     13 C          -0.0121    4.0227    0.0257 C.ar    1  LIG1        0.0323
     14 C          -1.2417    4.3313   -0.4791 C.ar    1  LIG1       -0.0031
     15 S          -2.2330    2.9250   -0.6706 S.2     1  LIG1       -0.0942
     16 H          -1.6272    5.3081   -0.7325 H       1  LIG1        0.0712
     17 H           1.0103    2.1821    0.7341 H       1  LIG1        0.0647
     18 N           0.9887    4.9396    0.3580 N.pl3   1  LIG1       -0.3575
     19 H           1.9262    4.5832    0.2369 H       1  LIG1        0.1423
     20 H           0.8868    5.8404   -0.0875 H       1  LIG1        0.1423
@<TRIPOS>BOND
     1     9     8    1
     2    10     8    1
     3    16    14    1
     4    15    14   ar
     5    15    11   ar
     6     8     3    1
     7    14    13   ar
     8     3     2   ar
     9     3     4   ar
    10     7     2    1
    11    20    18    1
    12    11     4    1
    13    11    12   ar
    14     2     1   ar
    15    13    12   ar
    16    13    18    1
    17     4     5   ar
    18    19    18    1
    19    12    17    1
    20     1     5   ar
    21     1     6    1
