@<TRIPOS>MOLECULE
mol_data/opt/cam/geoms/mol2/5ah5ah-5ah-.out
 29 31 0 0 0
SMALL
GASTEIGER

@<TRIPOS>ATOM
      1 C          -1.9027   -1.9249    0.7264 C.ar    1  LIG1       -0.0219
      2 C          -0.7301   -1.9254    0.0421 C.ar    1  LIG1       -0.0334
      3 C          -0.2459   -0.6080   -0.2338 C.ar    1  LIG1        0.0400
      4 C          -1.0772    0.3716    0.2618 C.ar    1  LIG1        0.0465
      5 S          -2.4524   -0.3337    1.0746 S.2     1  LIG1       -0.0942
      6 H          -2.4738   -2.7809    1.0554 H       1  LIG1        0.0694
      7 H          -0.2101   -2.8255   -0.2644 H       1  LIG1        0.0641
      8 N           0.9499   -0.3747   -0.9105 N.pl3   1  LIG1       -0.3571
      9 H           1.1887   -1.1028   -1.5698 H       1  LIG1        0.1424
     10 H           0.9932    0.5400   -1.3425 H       1  LIG1        0.1424
     11 C          -0.8946    1.8069    0.1572 C.ar    1  LIG1        0.0301
     12 C           0.2843    2.5032    0.1862 C.ar    1  LIG1       -0.0250
     13 C           0.1206    3.9134    0.0385 C.ar    1  LIG1        0.0406
     14 C          -1.1979    4.2836   -0.0948 C.ar    1  LIG1        0.0471
     15 S          -2.2430    2.8841   -0.0529 S.2     1  LIG1       -0.0853
     16 H           1.2426    2.0307    0.3683 H       1  LIG1        0.0648
     17 N           1.1968    4.7977    0.0739 N.pl3   1  LIG1       -0.3570
     18 H           2.0613    4.3985   -0.2646 H       1  LIG1        0.1424
     19 H           1.0001    5.6871   -0.3678 H       1  LIG1        0.1424
     20 C          -1.7174    5.6285   -0.2546 C.ar    1  LIG1        0.0295
     21 C          -1.2392    6.7835    0.3052 C.ar    1  LIG1       -0.0257
     22 C          -1.9730    7.9517   -0.0771 C.ar    1  LIG1        0.0323
     23 C          -3.0023    7.6584   -0.9238 C.ar    1  LIG1       -0.0031
     24 S          -3.0872    5.9653   -1.2750 S.2     1  LIG1       -0.0942
     25 H          -3.7273    8.3392   -1.3455 H       1  LIG1        0.0712
     26 H          -0.4300    6.7967    1.0261 H       1  LIG1        0.0647
     27 N          -1.6820    9.2133    0.4488 N.pl3   1  LIG1       -0.3575
     28 H          -0.6984    9.3681    0.6191 H       1  LIG1        0.1423
     29 H          -2.0810    9.9799   -0.0741 H       1  LIG1        0.1423
@<TRIPOS>BOND
     1     9     8    1
     2    25    23    1
     3    10     8    1
     4    24    23   ar
     5    24    20   ar
     6    23    22   ar
     7     8     3    1
     8    19    17    1
     9    18    17    1
    10     7     2    1
    11    20    14    1
    12    20    21   ar
    13     3     2   ar
    14     3     4   ar
    15    14    15   ar
    16    14    13   ar
    17    22    21   ar
    18    22    27    1
    19    29    27    1
    20    15    11   ar
    21    13    17    1
    22    13    12   ar
    23     2     1   ar
    24    11    12   ar
    25    11     4    1
    26    12    16    1
    27     4     5   ar
    28    21    26    1
    29    27    28    1
    30     1     6    1
    31     1     5   ar
