@<TRIPOS>MOLECULE
mol_data/opt/cam/geoms/mol2/5ah5ah-5ah5ah-.out
 38 41 0 0 0
SMALL
GASTEIGER

@<TRIPOS>ATOM
      1 C          -1.6088   -1.9563    1.1824 C.ar    1  LIG1       -0.0219
      2 C          -0.6818   -1.9812    0.1908 C.ar    1  LIG1       -0.0334
      3 C          -0.2863   -0.6741   -0.2345 C.ar    1  LIG1        0.0400
      4 C          -0.9324    0.3227    0.4625 C.ar    1  LIG1        0.0465
      5 S          -2.0228   -0.3539    1.6469 S.2     1  LIG1       -0.0942
      6 H          -2.0686   -2.8005    1.6757 H       1  LIG1        0.0694
      7 H          -0.2793   -2.8920   -0.2367 H       1  LIG1        0.0641
      8 N           0.6660   -0.4654   -1.2300 N.pl3   1  LIG1       -0.3571
      9 H           0.7029   -1.2080   -1.9148 H       1  LIG1        0.1424
     10 H           0.5881    0.4406   -1.6751 H       1  LIG1        0.1424
     11 C          -0.7758    1.7536    0.2856 C.ar    1  LIG1        0.0301
     12 C           0.3667    2.4344   -0.0425 C.ar    1  LIG1       -0.0250
     13 C           0.1800    3.8442   -0.1591 C.ar    1  LIG1        0.0406
     14 C          -1.1171    4.2307    0.0936 C.ar    1  LIG1        0.0472
     15 S          -2.1175    2.8452    0.4592 S.2     1  LIG1       -0.0853
     16 H           1.3319    1.9515   -0.1413 H       1  LIG1        0.0648
     17 N           1.2262    4.7134   -0.4586 N.pl3   1  LIG1       -0.3570
     18 H           1.9598    4.2905   -1.0102 H       1  LIG1        0.1424
     19 H           0.9192    5.5908   -0.8592 H       1  LIG1        0.1424
     20 C          -1.6474    5.5788    0.0716 C.ar    1  LIG1        0.0301
     21 C          -1.0055    6.7372    0.4243 C.ar    1  LIG1       -0.0250
     22 C          -1.8076    7.9070    0.2679 C.ar    1  LIG1        0.0406
     23 C          -3.0711    7.6267   -0.1997 C.ar    1  LIG1        0.0471
     24 S          -3.2687    5.9109   -0.4634 S.2     1  LIG1       -0.0853
     25 H          -0.0073    6.7526    0.8459 H       1  LIG1        0.0648
     26 N          -1.3465    9.1785    0.6031 N.pl3   1  LIG1       -0.3570
     27 H          -0.3476    9.2885    0.4973 H       1  LIG1        0.1424
     28 H          -1.8535    9.9235    0.1418 H       1  LIG1        0.1424
     29 C          -4.1372    8.5745   -0.4622 C.ar    1  LIG1        0.0295
     30 C          -4.4258    9.7232    0.2258 C.ar    1  LIG1       -0.0257
     31 C          -5.5367   10.4489   -0.3116 C.ar    1  LIG1        0.0323
     32 C          -6.0745    9.8319   -1.4036 C.ar    1  LIG1       -0.0031
     33 S          -5.2348    8.3702   -1.7981 S.2     1  LIG1       -0.0942
     34 H          -6.9292   10.1435   -1.9860 H       1  LIG1        0.0712
     35 H          -3.9081   10.0113    1.1334 H       1  LIG1        0.0647
     36 N          -6.0284   11.6065    0.2973 N.pl3   1  LIG1       -0.3575
     37 H          -5.3136   12.1800    0.7225 H       1  LIG1        0.1423
     38 H          -6.6282   12.1617   -0.2963 H       1  LIG1        0.1423
@<TRIPOS>BOND
     1    34    32    1
     2     9     8    1
     3    33    32   ar
     4    33    29   ar
     5    10     8    1
     6    32    31   ar
     7     8     3    1
     8    18    17    1
     9    19    17    1
    10    24    23   ar
    11    24    20   ar
    12    29    23    1
    13    29    30   ar
    14    17    13    1
    15    31    30   ar
    16    31    36    1
    17    38    36    1
    18     7     2    1
    19     3     2   ar
    20     3     4   ar
    21    23    22   ar
    22    13    12   ar
    23    13    14   ar
    24    16    12    1
    25    12    11   ar
    26    20    14    1
    27    20    21   ar
    28    14    15   ar
    29    28    26    1
    30     2     1   ar
    31    30    35    1
    32    22    21   ar
    33    22    26    1
    34    11    15   ar
    35    11     4    1
    36    36    37    1
    37    21    25    1
    38     4     5   ar
    39    27    26    1
    40     1     5   ar
    41     1     6    1
