@<TRIPOS>MOLECULE
mol_data/opt/cam/geoms/mol2/5ah5ah-.out
 20 21 0 0 0
SMALL
GASTEIGER

@<TRIPOS>ATOM
      1 C          -2.0348   -1.8496    0.3857 C.ar    1  LIG1       -0.0219
      2 C          -0.7304   -1.8410    0.0099 C.ar    1  LIG1       -0.0334
      3 C          -0.2153   -0.5203   -0.1841 C.ar    1  LIG1        0.0400
      4 C          -1.1584    0.4523    0.0580 C.ar    1  LIG1        0.0465
      5 S          -2.6784   -0.2620    0.5351 S.2     1  LIG1       -0.0942
      6 H          -2.6549   -2.7094    0.5942 H       1  LIG1        0.0694
      7 H          -0.1356   -2.7364   -0.1281 H       1  LIG1        0.0641
      8 N           1.1074   -0.2776   -0.5521 N.pl3   1  LIG1       -0.3571
      9 H           1.5069   -1.0093   -1.1239 H       1  LIG1        0.1424
     10 H           1.2425    0.6329   -0.9741 H       1  LIG1        0.1424
     11 C          -0.9801    1.8894   -0.0508 C.ar    1  LIG1        0.0294
     12 C           0.1346    2.6198    0.2622 C.ar    1  LIG1       -0.0257
     13 C          -0.0119    4.0225    0.0147 C.ar    1  LIG1        0.0323
     14 C          -1.2448    4.3304   -0.4826 C.ar    1  LIG1       -0.0031
     15 S          -2.2371    2.9237   -0.6660 S.2     1  LIG1       -0.0942
     16 H          -1.6320    5.3068   -0.7348 H       1  LIG1        0.0712
     17 H           1.0151    2.1829    0.7191 H       1  LIG1        0.0647
     18 N           0.9908    4.9399    0.3395 N.pl3   1  LIG1       -0.3575
     19 H           1.9276    4.5834    0.2129 H       1  LIG1        0.1423
     20 H           0.8861    5.8402   -0.1065 H       1  LIG1        0.1423
@<TRIPOS>BOND
     1     9     8    1
     2    10     8    1
     3    16    14    1
     4    15    14   ar
     5    15    11   ar
     6     8     3    1
     7    14    13   ar
     8     3     2   ar
     9     3     4   ar
    10     7     2    1
    11    20    18    1
    12    11     4    1
    13    11    12   ar
    14     2     1   ar
    15    13    12   ar
    16    13    18    1
    17     4     5   ar
    18    19    18    1
    19    12    17    1
    20     1     5   ar
    21     1     6    1
