@<TRIPOS>MOLECULE
mol_data/opt/cam/geoms/mol2/5ah5ah5ah.out
 29 31 0 0 0
SMALL
GASTEIGER

@<TRIPOS>ATOM
      1 C          -1.9074   -1.9214    0.7325 C.ar    1  LIG1       -0.0219
      2 C          -0.7304   -1.9250    0.0558 C.ar    1  LIG1       -0.0334
      3 C          -0.2445   -0.6088   -0.2230 C.ar    1  LIG1        0.0400
      4 C          -1.0791    0.3730    0.2625 C.ar    1  LIG1        0.0465
      5 S          -2.4595   -0.3287    1.0696 S.2     1  LIG1       -0.0942
      6 H          -2.4806   -2.7760    1.0617 H       1  LIG1        0.0694
      7 H          -0.2083   -2.8264   -0.2430 H       1  LIG1        0.0641
      8 N           0.9557   -0.3786   -0.8930 N.pl3   1  LIG1       -0.3571
      9 H           1.1988   -1.1098   -1.5472 H       1  LIG1        0.1424
     10 H           1.0017    0.5340   -1.3290 H       1  LIG1        0.1424
     11 C          -0.8960    1.8078    0.1523 C.ar    1  LIG1        0.0301
     12 C           0.2827    2.5043    0.1858 C.ar    1  LIG1       -0.0250
     13 C           0.1198    3.9138    0.0304 C.ar    1  LIG1        0.0406
     14 C          -1.1978    4.2832   -0.1133 C.ar    1  LIG1        0.0471
     15 S          -2.2430    2.8839   -0.0716 S.2     1  LIG1       -0.0853
     16 H           1.2398    2.0328    0.3764 H       1  LIG1        0.0648
     17 N           1.1957    4.7984    0.0687 N.pl3   1  LIG1       -0.3570
     18 H           2.0624    4.3977   -0.2622 H       1  LIG1        0.1424
     19 H           1.0019    5.6857   -0.3784 H       1  LIG1        0.1424
     20 C          -1.7163    5.6274   -0.2828 C.ar    1  LIG1        0.0295
     21 C          -1.2418    6.7850    0.2747 C.ar    1  LIG1       -0.0257
     22 C          -1.9732    7.9513   -0.1178 C.ar    1  LIG1        0.0323
     23 C          -2.9969    7.6540   -0.9698 C.ar    1  LIG1       -0.0031
     24 S          -3.0794    5.9592   -1.3136 S.2     1  LIG1       -0.0942
     25 H          -3.7192    8.3327   -1.3995 H       1  LIG1        0.0712
     26 H          -0.4374    6.8016    1.0009 H       1  LIG1        0.0647
     27 N          -1.6858    9.2153    0.4041 N.pl3   1  LIG1       -0.3575
     28 H          -0.7033    9.3711    0.5801 H       1  LIG1        0.1423
     29 H          -2.0814    9.9794   -0.1250 H       1  LIG1        0.1423
@<TRIPOS>BOND
     1     9     8    1
     2    25    23    1
     3    10     8    1
     4    24    23   ar
     5    24    20   ar
     6    23    22   ar
     7     8     3    1
     8    19    17    1
     9    20    14    1
    10    20    21   ar
    11    18    17    1
    12     7     2    1
    13     3     2   ar
    14     3     4   ar
    15    29    27    1
    16    22    21   ar
    17    22    27    1
    18    14    15   ar
    19    14    13   ar
    20    15    11   ar
    21    13    17    1
    22    13    12   ar
    23     2     1   ar
    24    11    12   ar
    25    11     4    1
    26    12    16    1
    27     4     5   ar
    28    21    26    1
    29    27    28    1
    30     1     6    1
    31     1     5   ar
