@<TRIPOS>MOLECULE
mol_data/opt/cam/geoms/mol2/5ah5ah-5ah-5ah.out
 38 41 0 0 0
SMALL
GASTEIGER

@<TRIPOS>ATOM
      1 C          -1.6183   -1.9581    1.1694 C.ar    1  LIG1       -0.0219
      2 C          -0.6839   -1.9813    0.1846 C.ar    1  LIG1       -0.0334
      3 C          -0.2852   -0.6735   -0.2355 C.ar    1  LIG1        0.0400
      4 C          -0.9365    0.3222    0.4584 C.ar    1  LIG1        0.0465
      5 S          -2.0356   -0.3564    1.6335 S.2     1  LIG1       -0.0942
      6 H          -2.0817   -2.8030    1.6578 H       1  LIG1        0.0694
      7 H          -0.2782   -2.8914   -0.2415 H       1  LIG1        0.0641
      8 N           0.6744   -0.4631   -1.2236 N.pl3   1  LIG1       -0.3571
      9 H           0.7164   -1.2046   -1.9093 H       1  LIG1        0.1424
     10 H           0.5998    0.4437   -1.6677 H       1  LIG1        0.1424
     11 C          -0.7785    1.7534    0.2850 C.ar    1  LIG1        0.0301
     12 C           0.3664    2.4347   -0.0334 C.ar    1  LIG1       -0.0250
     13 C           0.1805    3.8447   -0.1490 C.ar    1  LIG1        0.0406
     14 C          -1.1185    4.2308    0.0947 C.ar    1  LIG1        0.0472
     15 S          -2.1215    2.8447    0.4505 S.2     1  LIG1       -0.0853
     16 H           1.3323    1.9519   -0.1259 H       1  LIG1        0.0648
     17 N           1.2290    4.7143   -0.4393 N.pl3   1  LIG1       -0.3570
     18 H           1.9666    4.2924   -0.9862 H       1  LIG1        0.1424
     19 H           0.9249    5.5924   -0.8407 H       1  LIG1        0.1424
     20 C          -1.6485    5.5790    0.0710 C.ar    1  LIG1        0.0301
     21 C          -1.0093    6.7367    0.4304 C.ar    1  LIG1       -0.0250
     22 C          -1.8102    7.9068    0.2701 C.ar    1  LIG1        0.0406
     23 C          -3.0702    7.6274   -0.2074 C.ar    1  LIG1        0.0471
     24 S          -3.2658    5.9120   -0.4754 S.2     1  LIG1       -0.0853
     25 H          -0.0142    6.7513    0.8594 H       1  LIG1        0.0648
     26 N          -1.3516    9.1777    0.6108 N.pl3   1  LIG1       -0.3570
     27 H          -0.3519    9.2879    0.5126 H       1  LIG1        0.1424
     28 H          -1.8551    9.9235    0.1471 H       1  LIG1        0.1424
     29 C          -4.1343    8.5756   -0.4762 C.ar    1  LIG1        0.0295
     30 C          -4.4279    9.7231    0.2116 C.ar    1  LIG1       -0.0257
     31 C          -5.5348   10.4497   -0.3328 C.ar    1  LIG1        0.0323
     32 C          -6.0645    9.8346   -1.4297 C.ar    1  LIG1       -0.0031
     33 S          -5.2220    8.3736   -1.8205 S.2     1  LIG1       -0.0942
     34 H          -6.9149   10.1472   -2.0180 H       1  LIG1        0.0712
     35 H          -3.9170   10.0096    1.1235 H       1  LIG1        0.0647
     36 N          -6.0311   11.6064    0.2745 N.pl3   1  LIG1       -0.3575
     37 H          -5.3194   12.1791    0.7059 H       1  LIG1        0.1423
     38 H          -6.6264   12.1625   -0.3226 H       1  LIG1        0.1423
@<TRIPOS>BOND
     1    34    32    1
     2     9     8    1
     3    33    32   ar
     4    33    29   ar
     5    10     8    1
     6    32    31   ar
     7     8     3    1
     8    18    17    1
     9    19    17    1
    10    29    23    1
    11    29    30   ar
    12    24    23   ar
    13    24    20   ar
    14    17    13    1
    15    31    30   ar
    16    31    36    1
    17    38    36    1
    18     7     2    1
    19     3     2   ar
    20     3     4   ar
    21    23    22   ar
    22    13    12   ar
    23    13    14   ar
    24    16    12    1
    25    12    11   ar
    26    20    14    1
    27    20    21   ar
    28    14    15   ar
    29    28    26    1
    30     2     1   ar
    31    30    35    1
    32    22    21   ar
    33    22    26    1
    34    36    37    1
    35    11    15   ar
    36    11     4    1
    37    21    25    1
    38     4     5   ar
    39    27    26    1
    40     1     5   ar
    41     1     6    1
