@<TRIPOS>MOLECULE
mol_data/opt/cam/geoms/mol2/5ah5ah-5ah.out
 29 31 0 0 0
SMALL
GASTEIGER

@<TRIPOS>ATOM
      1 C          -1.9006   -1.9238    0.7346 C.ar    1  LIG1       -0.0219
      2 C          -0.7297   -1.9255    0.0475 C.ar    1  LIG1       -0.0334
      3 C          -0.2462   -0.6086   -0.2318 C.ar    1  LIG1        0.0400
      4 C          -1.0764    0.3719    0.2640 C.ar    1  LIG1        0.0465
      5 S          -2.4496   -0.3320    1.0813 S.2     1  LIG1       -0.0942
      6 H          -2.4709   -2.7793    1.0664 H       1  LIG1        0.0694
      7 H          -0.2104   -2.8261   -0.2586 H       1  LIG1        0.0641
      8 N           0.9480   -0.3764   -0.9117 N.pl3   1  LIG1       -0.3571
      9 H           1.1853   -1.1057   -1.5703 H       1  LIG1        0.1424
     10 H           0.9902    0.5375   -1.3455 H       1  LIG1        0.1424
     11 C          -0.8941    1.8070    0.1564 C.ar    1  LIG1        0.0301
     12 C           0.2849    2.5034    0.1815 C.ar    1  LIG1       -0.0250
     13 C           0.1207    3.9134    0.0316 C.ar    1  LIG1        0.0406
     14 C          -1.1981    4.2832   -0.0993 C.ar    1  LIG1        0.0471
     15 S          -2.2430    2.8838   -0.0524 S.2     1  LIG1       -0.0853
     16 H           1.2436    2.0312    0.3621 H       1  LIG1        0.0648
     17 N           1.1970    4.7977    0.0629 N.pl3   1  LIG1       -0.3570
     18 H           2.0607    4.3980   -0.2769 H       1  LIG1        0.1424
     19 H           0.9992    5.6864   -0.3798 H       1  LIG1        0.1424
     20 C          -1.7180    5.6279   -0.2602 C.ar    1  LIG1        0.0295
     21 C          -1.2385    6.7838    0.2964 C.ar    1  LIG1       -0.0257
     22 C          -1.9733    7.9514   -0.0862 C.ar    1  LIG1        0.0323
     23 C          -3.0045    7.6565   -0.9299 C.ar    1  LIG1       -0.0031
     24 S          -3.0902    5.9628   -1.2779 S.2     1  LIG1       -0.0942
     25 H          -3.7305    8.3365   -1.3511 H       1  LIG1        0.0712
     26 H          -0.4276    6.7983    1.0155 H       1  LIG1        0.0647
     27 N          -1.6811    9.2138    0.4368 N.pl3   1  LIG1       -0.3575
     28 H          -0.6971    9.3691    0.6045 H       1  LIG1        0.1423
     29 H          -2.0814    9.9795   -0.0865 H       1  LIG1        0.1423
@<TRIPOS>BOND
     1     9     8    1
     2    25    23    1
     3    10     8    1
     4    24    23   ar
     5    24    20   ar
     6    23    22   ar
     7     8     3    1
     8    19    17    1
     9    18    17    1
    10    20    14    1
    11    20    21   ar
    12     7     2    1
    13     3     2   ar
    14     3     4   ar
    15    14    15   ar
    16    14    13   ar
    17    29    27    1
    18    22    21   ar
    19    22    27    1
    20    15    11   ar
    21    13    17    1
    22    13    12   ar
    23     2     1   ar
    24    11    12   ar
    25    11     4    1
    26    12    16    1
    27     4     5   ar
    28    21    26    1
    29    27    28    1
    30     1     6    1
    31     1     5   ar
