@<TRIPOS>MOLECULE
mol_data/opt/cam/geoms/mol2/5ah5ah5ah-5ah.out
 38 41 0 0 0
SMALL
GASTEIGER

@<TRIPOS>ATOM
      1 C          -1.6276   -1.9542    1.1716 C.ar    1  LIG1       -0.0219
      2 C          -0.6854   -1.9804    0.1944 C.ar    1  LIG1       -0.0334
      3 C          -0.2835   -0.6739   -0.2266 C.ar    1  LIG1        0.0400
      4 C          -0.9404    0.3239    0.4590 C.ar    1  LIG1        0.0465
      5 S          -2.0487   -0.3512    1.6275 S.2     1  LIG1       -0.0942
      6 H          -2.0948   -2.7977    1.6589 H       1  LIG1        0.0694
      7 H          -0.2763   -2.8918   -0.2257 H       1  LIG1        0.0641
      8 N           0.6839   -0.4664   -1.2077 N.pl3   1  LIG1       -0.3571
      9 H           0.7314   -1.2100   -1.8908 H       1  LIG1        0.1424
     10 H           0.6128    0.4390   -1.6551 H       1  LIG1        0.1424
     11 C          -0.7811    1.7546    0.2825 C.ar    1  LIG1        0.0301
     12 C           0.3663    2.4350   -0.0290 C.ar    1  LIG1       -0.0250
     13 C           0.1813    3.8446   -0.1504 C.ar    1  LIG1        0.0406
     14 C          -1.1196    4.2314    0.0819 C.ar    1  LIG1        0.0472
     15 S          -2.1254    2.8463    0.4340 S.2     1  LIG1       -0.0853
     16 H           1.3329    1.9520   -0.1123 H       1  LIG1        0.0648
     17 N           1.2319    4.7134   -0.4350 N.pl3   1  LIG1       -0.3570
     18 H           1.9738    4.2899   -0.9747 H       1  LIG1        0.1424
     19 H           0.9310    5.5903   -0.8414 H       1  LIG1        0.1424
     20 C          -1.6495    5.5794    0.0499 C.ar    1  LIG1        0.0301
     21 C          -1.0133    6.7383    0.4108 C.ar    1  LIG1       -0.0250
     22 C          -1.8129    7.9078    0.2406 C.ar    1  LIG1        0.0406
     23 C          -3.0691    7.6268   -0.2460 C.ar    1  LIG1        0.0471
     24 S          -3.2625    5.9106   -0.5104 S.2     1  LIG1       -0.0853
     25 H          -0.0216    6.7543    0.8477 H       1  LIG1        0.0648
     26 N          -1.3571    9.1798    0.5810 N.pl3   1  LIG1       -0.3570
     27 H          -0.3567    9.2898    0.4905 H       1  LIG1        0.1424
     28 H          -1.8570    9.9241    0.1111 H       1  LIG1        0.1424
     29 C          -4.1311    8.5741   -0.5261 C.ar    1  LIG1        0.0295
     30 C          -4.4302    9.7238    0.1558 C.ar    1  LIG1       -0.0257
     31 C          -5.5328   10.4486   -0.3996 C.ar    1  LIG1        0.0323
     32 C          -6.0538    9.8301   -1.4988 C.ar    1  LIG1       -0.0031
     33 S          -5.2081    8.3679   -1.8784 S.2     1  LIG1       -0.0942
     34 H          -6.8995   10.1407   -2.0947 H       1  LIG1        0.0712
     35 H          -3.9266   10.0131    1.0708 H       1  LIG1        0.0647
     36 N          -6.0339   11.6070    0.2002 N.pl3   1  LIG1       -0.3575
     37 H          -5.3257   12.1811    0.6355 H       1  LIG1        0.1423
     38 H          -6.6245   12.1613   -0.4033 H       1  LIG1        0.1423
@<TRIPOS>BOND
     1    34    32    1
     2     9     8    1
     3    33    32   ar
     4    33    29   ar
     5    10     8    1
     6    32    31   ar
     7     8     3    1
     8    18    17    1
     9    19    17    1
    10    29    23    1
    11    29    30   ar
    12    24    23   ar
    13    24    20   ar
    14    17    13    1
    15    38    36    1
    16    31    30   ar
    17    31    36    1
    18    23    22   ar
    19     3     2   ar
    20     3     4   ar
    21     7     2    1
    22    13    12   ar
    23    13    14   ar
    24    16    12    1
    25    12    11   ar
    26    20    14    1
    27    20    21   ar
    28    14    15   ar
    29    28    26    1
    30    30    35    1
    31     2     1   ar
    32    36    37    1
    33    22    21   ar
    34    22    26    1
    35    11    15   ar
    36    11     4    1
    37    21    25    1
    38     4     5   ar
    39    27    26    1
    40     1     5   ar
    41     1     6    1
