@<TRIPOS>MOLECULE
mol_data/opt/cam/geoms/mol2/5ah5ah5ah5ah.out
 38 41 0 0 0
SMALL
GASTEIGER

@<TRIPOS>ATOM
      1 C          -1.6187   -1.9537    1.1796 C.ar    1  LIG1       -0.0219
      2 C          -0.6837   -1.9804    0.1956 C.ar    1  LIG1       -0.0334
      3 C          -0.2847   -0.6741   -0.2290 C.ar    1  LIG1        0.0400
      4 C          -0.9366    0.3240    0.4608 C.ar    1  LIG1        0.0465
      5 S          -2.0365   -0.3504    1.6377 S.2     1  LIG1       -0.0942
      6 H          -2.0824   -2.7968    1.6708 H       1  LIG1        0.0694
      7 H          -0.2777   -2.8920   -0.2269 H       1  LIG1        0.0641
      8 N           0.6756   -0.4672   -1.2171 N.pl3   1  LIG1       -0.3571
      9 H           0.7181   -1.2112   -1.9002 H       1  LIG1        0.1424
     10 H           0.6013    0.4379   -1.6646 H       1  LIG1        0.1424
     11 C          -0.7785    1.7546    0.2825 C.ar    1  LIG1        0.0301
     12 C           0.3666    2.4348   -0.0377 C.ar    1  LIG1       -0.0250
     13 C           0.1808    3.8444   -0.1585 C.ar    1  LIG1        0.0406
     14 C          -1.1184    4.2313    0.0829 C.ar    1  LIG1        0.0472
     15 S          -2.1217    2.8465    0.4431 S.2     1  LIG1       -0.0853
     16 H           1.3326    1.9518   -0.1277 H       1  LIG1        0.0648
     17 N           1.2294    4.7130   -0.4512 N.pl3   1  LIG1       -0.3570
     18 H           1.9674    4.2892   -0.9960 H       1  LIG1        0.1424
     19 H           0.9256    5.5897   -0.8559 H       1  LIG1        0.1424
     20 C          -1.6484    5.5794    0.0540 C.ar    1  LIG1        0.0301
     21 C          -1.0095    6.7384    0.4097 C.ar    1  LIG1       -0.0250
     22 C          -1.8104    7.9079    0.2446 C.ar    1  LIG1        0.0406
     23 C          -3.0700    7.6267   -0.2327 C.ar    1  LIG1        0.0471
     24 S          -3.2654    5.9104   -0.4948 S.2     1  LIG1       -0.0853
     25 H          -0.0147    6.7547    0.8393 H       1  LIG1        0.0648
     26 N          -1.3521    9.1800    0.5810 N.pl3   1  LIG1       -0.3570
     27 H          -0.3523    9.2899    0.4832 H       1  LIG1        0.1424
     28 H          -1.8553    9.9241    0.1142 H       1  LIG1        0.1424
     29 C          -4.1340    8.5739   -0.5057 C.ar    1  LIG1        0.0295
     30 C          -4.4282    9.7239    0.1777 C.ar    1  LIG1       -0.0257
     31 C          -5.5347   10.4485   -0.3701 C.ar    1  LIG1        0.0323
     32 C          -6.0636    9.8294   -1.4652 C.ar    1  LIG1       -0.0031
     33 S          -5.2207    8.3670   -1.8501 S.2     1  LIG1       -0.0942
     34 H          -6.9136   10.1398   -2.0551 H       1  LIG1        0.0712
     35 H          -3.9179   10.0137    1.0889 H       1  LIG1        0.0647
     36 N          -6.0314   11.6073    0.2326 N.pl3   1  LIG1       -0.3575
     37 H          -5.3200   12.1816    0.6625 H       1  LIG1        0.1423
     38 H          -6.6263   12.1613   -0.3669 H       1  LIG1        0.1423
@<TRIPOS>BOND
     1    34    32    1
     2     9     8    1
     3    33    32   ar
     4    33    29   ar
     5    10     8    1
     6    32    31   ar
     7     8     3    1
     8    18    17    1
     9    19    17    1
    10    29    23    1
    11    29    30   ar
    12    24    23   ar
    13    24    20   ar
    14    17    13    1
    15    31    30   ar
    16    31    36    1
    17    38    36    1
    18    23    22   ar
    19     3     2   ar
    20     3     4   ar
    21     7     2    1
    22    13    12   ar
    23    13    14   ar
    24    16    12    1
    25    12    11   ar
    26    20    14    1
    27    20    21   ar
    28    14    15   ar
    29    28    26    1
    30    30    35    1
    31     2     1   ar
    32    36    37    1
    33    22    21   ar
    34    22    26    1
    35    11    15   ar
    36    11     4    1
    37    21    25    1
    38     4     5   ar
    39    27    26    1
    40     1     5   ar
    41     1     6    1
