@<TRIPOS>MOLECULE
mol_data/opt/cam/geoms/mol2/5ai.out
 12 12 0 0 0
SMALL
GASTEIGER

@<TRIPOS>ATOM
      1 C          -2.1331   -1.7658   -0.0471 C.ar    1  LIG1       -0.0241
      2 C          -0.7758   -1.7273   -0.0842 C.ar    1  LIG1       -0.0518
      3 C          -0.2439   -0.3995    0.0117 C.ar    1  LIG1       -0.0434
      4 C          -1.2365    0.5268    0.1192 C.ar    1  LIG1       -0.0214
      5 S          -2.8082   -0.1865    0.1066 S.2     1  LIG1       -0.1048
      6 H          -2.7773   -2.6315   -0.1008 H       1  LIG1        0.0693
      7 H          -1.1286    1.5989    0.2061 H       1  LIG1        0.0696
      8 H          -0.1568   -2.6123   -0.1771 H       1  LIG1        0.0625
      9 C           1.2232   -0.0854   -0.0057 C.3     1  LIG1       -0.0392
     10 H           1.4001    0.9887    0.0797 H       1  LIG1        0.0278
     11 H           1.6914   -0.4293   -0.9333 H       1  LIG1        0.0278
     12 H           1.7439   -0.5775    0.8216 H       1  LIG1        0.0278
@<TRIPOS>BOND
     1    11     9    1
     2     8     2    1
     3     6     1    1
     4     2     1   ar
     5     2     3   ar
     6     1     5   ar
     7     9     3    1
     8     9    10    1
     9     9    12    1
    10     3     4   ar
    11     5     4   ar
    12     4     7    1
