@<TRIPOS>MOLECULE
mol_data/opt/cam/geoms/mol2/5ai5ai-5ai5ai-.out
 42 45 0 0 0
SMALL
GASTEIGER

@<TRIPOS>ATOM
      1 C          -1.7175   -1.8298   -1.4863 C.ar    1  LIG1       -0.0235
      2 C          -0.8668   -1.9386   -0.4330 C.ar    1  LIG1       -0.0512
      3 C          -0.4187   -0.6798    0.0751 C.ar    1  LIG1       -0.0352
      4 C          -0.9512    0.3734   -0.6285 C.ar    1  LIG1        0.0288
      5 S          -1.9945   -0.1855   -1.9086 S.2     1  LIG1       -0.0959
      6 H          -2.2002   -2.6231   -2.0384 H       1  LIG1        0.0693
      7 H          -0.5648   -2.8877   -0.0054 H       1  LIG1        0.0626
      8 C           0.5005   -0.5622    1.2552 C.3     1  LIG1       -0.0386
      9 H           0.3782    0.3969    1.7618 H       1  LIG1        0.0278
     10 H           1.5515   -0.6475    0.9578 H       1  LIG1        0.0278
     11 H           0.3036   -1.3595    1.9764 H       1  LIG1        0.0278
     12 C          -0.7362    1.7999   -0.4231 C.ar    1  LIG1        0.0270
     13 C           0.4258    2.4459   -0.1051 C.ar    1  LIG1       -0.0429
     14 C           0.2956    3.8577    0.0427 C.ar    1  LIG1       -0.0346
     15 C          -0.9920    4.2809   -0.1840 C.ar    1  LIG1        0.0294
     16 S          -2.0402    2.9412   -0.5613 S.2     1  LIG1       -0.0869
     17 H           1.3707    1.9280    0.0068 H       1  LIG1        0.0632
     18 C           1.4495    4.7415    0.4153 C.3     1  LIG1       -0.0386
     19 H           1.1091    5.6519    0.9119 H       1  LIG1        0.0278
     20 H           2.0288    5.0415   -0.4648 H       1  LIG1        0.0278
     21 H           2.1328    4.2173    1.0883 H       1  LIG1        0.0278
     22 C          -1.5195    5.6376   -0.1440 C.ar    1  LIG1        0.0270
     23 C          -0.9281    6.7916   -0.5781 C.ar    1  LIG1       -0.0429
     24 C          -1.7112    7.9664   -0.3811 C.ar    1  LIG1       -0.0346
     25 C          -2.9228    7.6843    0.2017 C.ar    1  LIG1        0.0294
     26 S          -3.0898    5.9799    0.5198 S.2     1  LIG1       -0.0869
     27 H           0.0460    6.8081   -1.0516 H       1  LIG1        0.0632
     28 C          -1.2303    9.3339   -0.7688 C.3     1  LIG1       -0.0386
     29 H          -1.7248   10.1102   -0.1823 H       1  LIG1        0.0278
     30 H          -1.4242    9.5444   -1.8263 H       1  LIG1        0.0278
     31 H          -0.1516    9.4200   -0.6149 H       1  LIG1        0.0278
     32 C          -3.9983    8.6052    0.5467 C.ar    1  LIG1        0.0264
     33 C          -4.4604    9.6748   -0.1689 C.ar    1  LIG1       -0.0435
     34 C          -5.5338   10.3774    0.4618 C.ar    1  LIG1       -0.0428
     35 C          -5.8680    9.8111    1.6545 C.ar    1  LIG1       -0.0208
     36 S          -4.8886    8.4444    2.0360 S.2     1  LIG1       -0.0959
     37 H          -6.6455   10.1262    2.3364 H       1  LIG1        0.0696
     38 H          -4.0675    9.9396   -1.1431 H       1  LIG1        0.0632
     39 C          -6.2082   11.5770   -0.1357 C.3     1  LIG1       -0.0392
     40 H          -7.0116   11.9408    0.5078 H       1  LIG1        0.0278
     41 H          -6.6414   11.3420   -1.1128 H       1  LIG1        0.0278
     42 H          -5.4996   12.3978   -0.2840 H       1  LIG1        0.0278
@<TRIPOS>BOND
     1     6     1    1
     2     5     1   ar
     3     5     4   ar
     4    30    28    1
     5     1     2   ar
     6    38    33    1
     7    41    39    1
     8    27    23    1
     9    28    31    1
    10    28    24    1
    11    28    29    1
    12     4    12    1
    13     4     3   ar
    14    23    24   ar
    15    23    22   ar
    16    16    12   ar
    17    16    15   ar
    18    20    18    1
    19     2     7    1
    20     2     3   ar
    21    12    13   ar
    22    24    25   ar
    23    42    39    1
    24    15    22    1
    25    15    14   ar
    26    33    34   ar
    27    33    32   ar
    28    22    26   ar
    29    39    34    1
    30    39    40    1
    31    13    17    1
    32    13    14   ar
    33    14    18    1
    34     3     8    1
    35    25    26   ar
    36    25    32    1
    37    18    19    1
    38    18    21    1
    39    34    35   ar
    40    32    36   ar
    41    10     8    1
    42     8     9    1
    43     8    11    1
    44    35    36   ar
    45    35    37    1
