@<TRIPOS>MOLECULE
mol_data/opt/cam/geoms/mol2/5ai5ai.out
 22 23 0 0 0
SMALL
GASTEIGER

@<TRIPOS>ATOM
      1 C          -2.1181   -1.8092   -0.4759 C.ar    1  LIG1       -0.0235
      2 C          -0.8012   -1.8511   -0.1471 C.ar    1  LIG1       -0.0512
      3 C          -0.2296   -0.5634    0.0975 C.ar    1  LIG1       -0.0352
      4 C          -1.1506    0.4428   -0.0622 C.ar    1  LIG1        0.0288
      5 S          -2.7095   -0.1938   -0.5133 S.2     1  LIG1       -0.0959
      6 H          -2.7771   -2.6364   -0.6967 H       1  LIG1        0.0693
      7 H          -0.2361   -2.7723   -0.0633 H       1  LIG1        0.0626
      8 C           1.2024   -0.3750    0.5043 C.3     1  LIG1       -0.0386
      9 H           1.3452    0.5696    1.0319 H       1  LIG1        0.0278
     10 H           1.8706   -0.3733   -0.3639 H       1  LIG1        0.0278
     11 H           1.5264   -1.1881    1.1592 H       1  LIG1        0.0278
     12 C          -0.9579    1.8803    0.0909 C.ar    1  LIG1        0.0264
     13 C           0.0989    2.6424   -0.3217 C.ar    1  LIG1       -0.0435
     14 C          -0.0254    4.0313   -0.0049 C.ar    1  LIG1       -0.0428
     15 C          -1.1940    4.2922    0.6438 C.ar    1  LIG1       -0.0208
     16 S          -2.1429    2.8740    0.8936 S.2     1  LIG1       -0.0959
     17 H          -1.5526    5.2509    0.9914 H       1  LIG1        0.0696
     18 H           0.9378    2.2294   -0.8691 H       1  LIG1        0.0632
     19 C           1.0039    5.0624   -0.3628 C.3     1  LIG1       -0.0392
     20 H           0.6964    6.0581   -0.0372 H       1  LIG1        0.0278
     21 H           1.1688    5.0990   -1.4441 H       1  LIG1        0.0278
     22 H           1.9679    4.8395    0.1049 H       1  LIG1        0.0278
@<TRIPOS>BOND
     1    21    19    1
     2    18    13    1
     3     6     1    1
     4     5     1   ar
     5     5     4   ar
     6     1     2   ar
     7    10     8    1
     8    19    20    1
     9    19    14    1
    10    19    22    1
    11    13    14   ar
    12    13    12   ar
    13     2     7    1
    14     2     3   ar
    15     4    12    1
    16     4     3   ar
    17    14    15   ar
    18    12    16   ar
    19     3     8    1
    20     8     9    1
    21     8    11    1
    22    15    16   ar
    23    15    17    1
