@<TRIPOS>MOLECULE
mol_data/opt/cam/geoms/mol2/5ai5ai-5ai.out
 32 34 0 0 0
SMALL
GASTEIGER

@<TRIPOS>ATOM
      1 C          -2.0253   -1.8483   -0.8926 C.ar    1  LIG1       -0.0235
      2 C          -0.8578   -1.9208   -0.2026 C.ar    1  LIG1       -0.0512
      3 C          -0.3026   -0.6441    0.1219 C.ar    1  LIG1       -0.0352
      4 C          -1.0813    0.3856   -0.3482 C.ar    1  LIG1        0.0288
      5 S          -2.4866   -0.2172   -1.1859 S.2     1  LIG1       -0.0959
      6 H          -2.6437   -2.6613   -1.2447 H       1  LIG1        0.0693
      7 H          -0.3943   -2.8562    0.0893 H       1  LIG1        0.0626
      8 C           0.9661   -0.4869    0.9074 C.3     1  LIG1       -0.0386
      9 H           0.9987    0.4745    1.4232 H       1  LIG1        0.0278
     10 H           1.8497   -0.5463    0.2624 H       1  LIG1        0.0278
     11 H           1.0571   -1.2809    1.6531 H       1  LIG1        0.0278
     12 C          -0.8555    1.8201   -0.2265 C.ar    1  LIG1        0.0270
     13 C           0.3220    2.5059   -0.3344 C.ar    1  LIG1       -0.0429
     14 C           0.2045    3.9144   -0.1456 C.ar    1  LIG1       -0.0346
     15 C          -1.0935    4.2934    0.0957 C.ar    1  LIG1        0.0294
     16 S          -2.1622    2.9177    0.1058 S.2     1  LIG1       -0.0869
     17 H           1.2628    2.0200   -0.5632 H       1  LIG1        0.0632
     18 C           1.3846    4.8395   -0.2016 C.3     1  LIG1       -0.0386
     19 H           1.2000    5.7541    0.3646 H       1  LIG1        0.0278
     20 H           1.6204    5.1299   -1.2312 H       1  LIG1        0.0278
     21 H           2.2737    4.3536    0.2085 H       1  LIG1        0.0278
     22 C          -1.6187    5.6340    0.3215 C.ar    1  LIG1        0.0264
     23 C          -1.2753    6.7968   -0.3104 C.ar    1  LIG1       -0.0435
     24 C          -1.9850    7.9459    0.1583 C.ar    1  LIG1       -0.0428
     25 C          -2.8666    7.6201    1.1438 C.ar    1  LIG1       -0.0208
     26 S          -2.8390    5.9393    1.5276 S.2     1  LIG1       -0.0959
     27 H          -3.5381    8.2838    1.6704 H       1  LIG1        0.0696
     28 H          -0.5544    6.8318   -1.1183 H       1  LIG1        0.0632
     29 C          -1.7838    9.3286   -0.3883 C.3     1  LIG1       -0.0392
     30 H          -2.4439   10.0474    0.1012 H       1  LIG1        0.0278
     31 H          -1.9881    9.3632   -1.4628 H       1  LIG1        0.0278
     32 H          -0.7531    9.6666   -0.2429 H       1  LIG1        0.0278
@<TRIPOS>BOND
     1    31    29    1
     2     6     1    1
     3    20    18    1
     4     5     1   ar
     5     5     4   ar
     6    28    23    1
     7     1     2   ar
     8    17    13    1
     9    29    32    1
    10    29    30    1
    11    29    24    1
    12     4    12    1
    13     4     3   ar
    14    13    12   ar
    15    13    14   ar
    16    23    24   ar
    17    23    22   ar
    18    12    16   ar
    19     2     7    1
    20     2     3   ar
    21    18    14    1
    22    18    21    1
    23    18    19    1
    24    14    15   ar
    25    15    16   ar
    26    15    22    1
    27     3     8    1
    28    24    25   ar
    29    10     8    1
    30    22    26   ar
    31     8     9    1
    32     8    11    1
    33    25    26   ar
    34    25    27    1
