@<TRIPOS>MOLECULE
mol_data/opt/cam/geoms/mol2/5ai5ai-5ai-5ai.out
 42 45 0 0 0
SMALL
GASTEIGER

@<TRIPOS>ATOM
      1 C          -1.7074   -1.8267   -1.5013 C.ar    1  LIG1       -0.0235
      2 C          -0.8642   -1.9376   -0.4423 C.ar    1  LIG1       -0.0512
      3 C          -0.4196   -0.6799    0.0715 C.ar    1  LIG1       -0.0352
      4 C          -0.9469    0.3747   -0.6339 C.ar    1  LIG1        0.0288
      5 S          -1.9813   -0.1815   -1.9223 S.2     1  LIG1       -0.0959
      6 H          -2.1863   -2.6189   -2.0584 H       1  LIG1        0.0693
      7 H          -0.5653   -2.8876   -0.0145 H       1  LIG1        0.0626
      8 C           0.4913   -0.5647    1.2582 C.3     1  LIG1       -0.0386
      9 H           0.3658    0.3936    1.7655 H       1  LIG1        0.0278
     10 H           1.5443   -0.6500    0.9682 H       1  LIG1        0.0278
     11 H           0.2889   -1.3631    1.9767 H       1  LIG1        0.0278
     12 C          -0.7333    1.8008   -0.4243 C.ar    1  LIG1        0.0270
     13 C           0.4266    2.4461   -0.0971 C.ar    1  LIG1       -0.0429
     14 C           0.2955    3.8576    0.0523 C.ar    1  LIG1       -0.0346
     15 C          -0.9905    4.2813   -0.1824 C.ar    1  LIG1        0.0294
     16 S          -2.0362    2.9424   -0.5690 S.2     1  LIG1       -0.0869
     17 H           1.3706    1.9279    0.0202 H       1  LIG1        0.0632
     18 C           1.4469    4.7407    0.4344 C.3     1  LIG1       -0.0386
     19 H           1.1031    5.6504    0.9299 H       1  LIG1        0.0278
     20 H           2.0324    5.0419   -0.4412 H       1  LIG1        0.0278
     21 H           2.1253    4.2154    1.1114 H       1  LIG1        0.0278
     22 C          -1.5181    5.6380   -0.1435 C.ar    1  LIG1        0.0270
     23 C          -0.9239    6.7928   -0.5716 C.ar    1  LIG1       -0.0429
     24 C          -1.7083    7.9672   -0.3780 C.ar    1  LIG1       -0.0346
     25 C          -2.9238    7.6841    0.1961 C.ar    1  LIG1        0.0294
     26 S          -3.0927    5.9792    0.5107 S.2     1  LIG1       -0.0869
     27 H           0.0534    6.8099   -1.0385 H       1  LIG1        0.0632
     28 C          -1.2248    9.3353   -0.7603 C.3     1  LIG1       -0.0386
     29 H          -1.7235   10.1106   -0.1760 H       1  LIG1        0.0278
     30 H          -1.4116    9.5475   -1.8187 H       1  LIG1        0.0278
     31 H          -0.1472    9.4213   -0.5989 H       1  LIG1        0.0278
     32 C          -4.0016    8.6044    0.5353 C.ar    1  LIG1        0.0264
     33 C          -4.4591    9.6750   -0.1817 C.ar    1  LIG1       -0.0435
     34 C          -5.5368   10.3765    0.4429 C.ar    1  LIG1       -0.0428
     35 C          -5.8788    9.8084    1.6325 C.ar    1  LIG1       -0.0208
     36 S          -4.9017    8.4413    2.0185 S.2     1  LIG1       -0.0959
     37 H          -6.6609   10.1222    2.3096 H       1  LIG1        0.0696
     38 H          -4.0598    9.9413   -1.1529 H       1  LIG1        0.0632
     39 C          -6.2074   11.5769   -0.1572 C.3     1  LIG1       -0.0392
     40 H          -7.0151   11.9396    0.4815 H       1  LIG1        0.0278
     41 H          -6.6341   11.3433   -1.1375 H       1  LIG1        0.0278
     42 H          -5.4980   12.3980   -0.2996 H       1  LIG1        0.0278
@<TRIPOS>BOND
     1     6     1    1
     2     5     1   ar
     3     5     4   ar
     4    30    28    1
     5     1     2   ar
     6    38    33    1
     7    41    39    1
     8    27    23    1
     9    28    31    1
    10    28    24    1
    11    28    29    1
    12     4    12    1
    13     4     3   ar
    14    23    24   ar
    15    23    22   ar
    16    16    12   ar
    17    16    15   ar
    18     2     7    1
    19     2     3   ar
    20    20    18    1
    21    12    13   ar
    22    24    25   ar
    23    42    39    1
    24    15    22    1
    25    15    14   ar
    26    33    34   ar
    27    33    32   ar
    28    39    34    1
    29    39    40    1
    30    22    26   ar
    31    13    17    1
    32    13    14   ar
    33    14    18    1
    34     3     8    1
    35    25    26   ar
    36    25    32    1
    37    18    19    1
    38    18    21    1
    39    34    35   ar
    40    32    36   ar
    41    10     8    1
    42     8     9    1
    43     8    11    1
    44    35    36   ar
    45    35    37    1
