@<TRIPOS>MOLECULE
mol_data/opt/cam/geoms/mol2/5ai5ai5ai-5ai.out
 42 45 0 0 0
SMALL
GASTEIGER

@<TRIPOS>ATOM
      1 C          -1.6950   -1.8315   -1.5007 C.ar    1  LIG1       -0.0235
      2 C          -0.8602   -1.9391   -0.4346 C.ar    1  LIG1       -0.0512
      3 C          -0.4198   -0.6797    0.0787 C.ar    1  LIG1       -0.0352
      4 C          -0.9416    0.3727   -0.6341 C.ar    1  LIG1        0.0288
      5 S          -1.9656   -0.1877   -1.9290 S.2     1  LIG1       -0.0959
      6 H          -2.1694   -2.6255   -2.0591 H       1  LIG1        0.0693
      7 H          -0.5647   -2.8877   -0.0014 H       1  LIG1        0.0626
      8 C           0.4816   -0.5607    1.2723 C.3     1  LIG1       -0.0386
      9 H           0.3517    0.3989    1.7759 H       1  LIG1        0.0278
     10 H           1.5370   -0.6464    0.9909 H       1  LIG1        0.0278
     11 H           0.2738   -1.3572    1.9914 H       1  LIG1        0.0278
     12 C          -0.7298    1.7994   -0.4271 C.ar    1  LIG1        0.0270
     13 C           0.4274    2.4458   -0.0924 C.ar    1  LIG1       -0.0429
     14 C           0.2950    3.8578    0.0518 C.ar    1  LIG1       -0.0346
     15 C          -0.9891    4.2807   -0.1948 C.ar    1  LIG1        0.0294
     16 S          -2.0315    2.9405   -0.5861 S.2     1  LIG1       -0.0869
     17 H           1.3704    1.9280    0.0343 H       1  LIG1        0.0632
     18 C           1.4432    4.7420    0.4407 C.3     1  LIG1       -0.0386
     19 H           1.0953    5.6530    0.9310 H       1  LIG1        0.0278
     20 H           2.0356    5.0410   -0.4310 H       1  LIG1        0.0278
     21 H           2.1162    4.2186    1.1244 H       1  LIG1        0.0278
     22 C          -1.5171    5.6374   -0.1642 C.ar    1  LIG1        0.0270
     23 C          -0.9193    6.7910   -0.5907 C.ar    1  LIG1       -0.0429
     24 C          -1.7052    7.9660   -0.4069 C.ar    1  LIG1       -0.0346
     25 C          -2.9255    7.6845    0.1580 C.ar    1  LIG1        0.0294
     26 S          -3.0972    5.9805    0.4756 S.2     1  LIG1       -0.0869
     27 H           0.0618    6.8068   -1.0496 H       1  LIG1        0.0632
     28 C          -1.2185    9.3330   -0.7889 C.3     1  LIG1       -0.0386
     29 H          -1.7218   10.1099   -0.2108 H       1  LIG1        0.0278
     30 H          -1.3965    9.5423   -1.8494 H       1  LIG1        0.0278
     31 H          -0.1422    9.4193   -0.6189 H       1  LIG1        0.0278
     32 C          -4.0060    8.6058    0.4857 C.ar    1  LIG1        0.0264
     33 C          -4.4572    9.6745   -0.2380 C.ar    1  LIG1       -0.0435
     34 C          -5.5400   10.3779    0.3757 C.ar    1  LIG1       -0.0428
     35 C          -5.8921    9.8130    1.5639 C.ar    1  LIG1       -0.0208
     36 S          -4.9186    8.4467    1.9616 S.2     1  LIG1       -0.0959
     37 H          -6.6797   10.1289    2.2336 H       1  LIG1        0.0696
     38 H          -4.0498    9.9382   -1.2065 H       1  LIG1        0.0632
     39 C          -6.2054   11.5768   -0.2333 C.3     1  LIG1       -0.0392
     40 H          -7.0184   11.9413    0.3977 H       1  LIG1        0.0278
     41 H          -6.6238   11.3406   -1.2165 H       1  LIG1        0.0278
     42 H          -5.4946   12.3974   -0.3719 H       1  LIG1        0.0278
@<TRIPOS>BOND
     1     6     1    1
     2     5     1   ar
     3     5     4   ar
     4    30    28    1
     5     1     2   ar
     6    41    39    1
     7    38    33    1
     8    27    23    1
     9    28    31    1
    10    28    24    1
    11    28    29    1
    12     4    12    1
    13     4     3   ar
    14    23    24   ar
    15    23    22   ar
    16    16    12   ar
    17    16    15   ar
    18     2     7    1
    19     2     3   ar
    20    20    18    1
    21    12    13   ar
    22    24    25   ar
    23    42    39    1
    24    33    34   ar
    25    33    32   ar
    26    39    34    1
    27    39    40    1
    28    15    22    1
    29    15    14   ar
    30    22    26   ar
    31    13    17    1
    32    13    14   ar
    33    14    18    1
    34     3     8    1
    35    25    26   ar
    36    25    32    1
    37    34    35   ar
    38    18    19    1
    39    18    21    1
    40    32    36   ar
    41    10     8    1
    42     8     9    1
    43     8    11    1
    44    35    36   ar
    45    35    37    1
