@<TRIPOS>MOLECULE
mol_data/opt/cam/geoms/mol2/5ai5ai-.out
 22 23 0 0 0
SMALL
GASTEIGER

@<TRIPOS>ATOM
      1 C          -2.1209   -1.8100   -0.4651 C.ar    1  LIG1       -0.0235
      2 C          -0.8021   -1.8514   -0.1439 C.ar    1  LIG1       -0.0512
      3 C          -0.2291   -0.5632    0.0951 C.ar    1  LIG1       -0.0352
      4 C          -1.1509    0.4427   -0.0611 C.ar    1  LIG1        0.0288
      5 S          -2.7124   -0.1947   -0.5020 S.2     1  LIG1       -0.0959
      6 H          -2.7812   -2.6376   -0.6806 H       1  LIG1        0.0693
      7 H          -0.2366   -2.7724   -0.0617 H       1  LIG1        0.0626
      8 C           1.2052   -0.3742    0.4932 C.3     1  LIG1       -0.0386
      9 H           1.3511    0.5714    1.0183 H       1  LIG1        0.0278
     10 H           1.8685   -0.3740   -0.3787 H       1  LIG1        0.0278
     11 H           1.5330   -1.1860    1.1478 H       1  LIG1        0.0278
     12 C          -0.9574    1.8804    0.0883 C.ar    1  LIG1        0.0264
     13 C           0.0971    2.6418   -0.3318 C.ar    1  LIG1       -0.0435
     14 C          -0.0254    4.0313   -0.0168 C.ar    1  LIG1       -0.0428
     15 C          -1.1902    4.2933    0.6382 C.ar    1  LIG1       -0.0208
     16 S          -2.1376    2.8757    0.8960 S.2     1  LIG1       -0.0959
     17 H          -1.5467    5.2528    0.9861 H       1  LIG1        0.0696
     18 H           0.9327    2.2278   -0.8833 H       1  LIG1        0.0632
     19 C           1.0019    5.0617   -0.3825 C.3     1  LIG1       -0.0392
     20 H           0.6963    6.0580   -0.0570 H       1  LIG1        0.0278
     21 H           1.1606    5.0963   -1.4648 H       1  LIG1        0.0278
     22 H           1.9686    4.8396    0.0800 H       1  LIG1        0.0278
@<TRIPOS>BOND
     1    21    19    1
     2    18    13    1
     3     6     1    1
     4     5     1   ar
     5     5     4   ar
     6     1     2   ar
     7    19    20    1
     8    19    14    1
     9    19    22    1
    10    10     8    1
    11    13    14   ar
    12    13    12   ar
    13     2     7    1
    14     2     3   ar
    15     4    12    1
    16     4     3   ar
    17    14    15   ar
    18    12    16   ar
    19     3     8    1
    20     8     9    1
    21     8    11    1
    22    15    16   ar
    23    15    17    1
