@<TRIPOS>MOLECULE
mol_data/opt/cam/geoms/mol2/5ai5ai5ai.out
 32 34 0 0 0
SMALL
GASTEIGER

@<TRIPOS>ATOM
      1 C          -2.0167   -1.8510   -0.8973 C.ar    1  LIG1       -0.0235
      2 C          -0.8555   -1.9214   -0.1963 C.ar    1  LIG1       -0.0512
      3 C          -0.3034   -0.6437    0.1296 C.ar    1  LIG1       -0.0352
      4 C          -1.0778    0.3846   -0.3506 C.ar    1  LIG1        0.0288
      5 S          -2.4753   -0.2208   -1.1995 S.2     1  LIG1       -0.0959
      6 H          -2.6317   -2.6650   -1.2527 H       1  LIG1        0.0693
      7 H          -0.3947   -2.8559    0.1024 H       1  LIG1        0.0626
      8 C           0.9580   -0.4842    0.9263 C.3     1  LIG1       -0.0386
      9 H           0.9859    0.4787    1.4396 H       1  LIG1        0.0278
     10 H           1.8475   -0.5453    0.2896 H       1  LIG1        0.0278
     11 H           1.0422   -1.2760    1.6750 H       1  LIG1        0.0278
     12 C          -0.8532    1.8195   -0.2309 C.ar    1  LIG1        0.0270
     13 C           0.3252    2.5050   -0.3299 C.ar    1  LIG1       -0.0429
     14 C           0.2059    3.9141   -0.1463 C.ar    1  LIG1       -0.0346
     15 C          -1.0943    4.2936    0.0821 C.ar    1  LIG1        0.0294
     16 S          -2.1630    2.9179    0.0863 S.2     1  LIG1       -0.0869
     17 H           1.2681    2.0186   -0.5487 H       1  LIG1        0.0632
     18 C           1.3864    4.8391   -0.1940 C.3     1  LIG1       -0.0386
     19 H           1.1965    5.7553    0.3679 H       1  LIG1        0.0278
     20 H           1.6316    5.1266   -1.2223 H       1  LIG1        0.0278
     21 H           2.2717    4.3544    0.2256 H       1  LIG1        0.0278
     22 C          -1.6217    5.6348    0.2992 C.ar    1  LIG1        0.0264
     23 C          -1.2725    6.7958   -0.3328 C.ar    1  LIG1       -0.0435
     24 C          -1.9865    7.9462    0.1260 C.ar    1  LIG1       -0.0428
     25 C          -2.8772    7.6231    1.1043 C.ar    1  LIG1       -0.0208
     26 S          -2.8530    5.9435    1.4931 S.2     1  LIG1       -0.0959
     27 H          -3.5536    8.2883    1.6228 H       1  LIG1        0.0696
     28 H          -0.5442    6.8286   -1.1342 H       1  LIG1        0.0632
     29 C          -1.7805    9.3273   -0.4226 C.3     1  LIG1       -0.0392
     30 H          -2.4450   10.0475    0.0587 H       1  LIG1        0.0278
     31 H          -1.9748    9.3588   -1.4991 H       1  LIG1        0.0278
     32 H          -0.7512    9.6658   -0.2688 H       1  LIG1        0.0278
@<TRIPOS>BOND
     1    31    29    1
     2     6     1    1
     3    20    18    1
     4     5     1   ar
     5     5     4   ar
     6    28    23    1
     7     1     2   ar
     8    17    13    1
     9    29    32    1
    10    29    30    1
    11    29    24    1
    12     4    12    1
    13     4     3   ar
    14    23    24   ar
    15    23    22   ar
    16    13    12   ar
    17    13    14   ar
    18    12    16   ar
    19     2     7    1
    20     2     3   ar
    21    18    14    1
    22    18    21    1
    23    18    19    1
    24    14    15   ar
    25    15    16   ar
    26    15    22    1
    27    24    25   ar
    28     3     8    1
    29    10     8    1
    30    22    26   ar
    31     8     9    1
    32     8    11    1
    33    25    26   ar
    34    25    27    1
