@<TRIPOS>MOLECULE
mol_data/opt/cam/geoms/mol2/5ai5ai-5ai-5ai-.out
 42 45 0 0 0
SMALL
GASTEIGER

@<TRIPOS>ATOM
      1 C          -1.7060   -1.8284   -1.4978 C.ar    1  LIG1       -0.0235
      2 C          -0.8634   -1.9381   -0.4382 C.ar    1  LIG1       -0.0512
      3 C          -0.4192   -0.6798    0.0745 C.ar    1  LIG1       -0.0352
      4 C          -0.9463    0.3740   -0.6323 C.ar    1  LIG1        0.0288
      5 S          -1.9799   -0.1837   -1.9207 S.2     1  LIG1       -0.0959
      6 H          -2.1845   -2.6213   -2.0544 H       1  LIG1        0.0693
      7 H          -0.5647   -2.8876   -0.0092 H       1  LIG1        0.0626
      8 C           0.4910   -0.5633    1.2616 C.3     1  LIG1       -0.0386
      9 H           0.3649    0.3954    1.7681 H       1  LIG1        0.0278
     10 H           1.5443   -0.6483    0.9722 H       1  LIG1        0.0278
     11 H           0.2886   -1.3613    1.9806 H       1  LIG1        0.0278
     12 C          -0.7329    1.8003   -0.4239 C.ar    1  LIG1        0.0270
     13 C           0.4267    2.4460   -0.0965 C.ar    1  LIG1       -0.0429
     14 C           0.2953    3.8577    0.0516 C.ar    1  LIG1       -0.0346
     15 C          -0.9905    4.2811   -0.1846 C.ar    1  LIG1        0.0294
     16 S          -2.0358    2.9417   -0.5709 S.2     1  LIG1       -0.0869
     17 H           1.3707    1.9280    0.0221 H       1  LIG1        0.0632
     18 C           1.4464    4.7411    0.4337 C.3     1  LIG1       -0.0386
     19 H           1.1022    5.6511    0.9286 H       1  LIG1        0.0278
     20 H           2.0323    5.0420   -0.4417 H       1  LIG1        0.0278
     21 H           2.1245    4.2163    1.1114 H       1  LIG1        0.0278
     22 C          -1.5183    5.6378   -0.1473 C.ar    1  LIG1        0.0270
     23 C          -0.9237    6.7922   -0.5758 C.ar    1  LIG1       -0.0429
     24 C          -1.7082    7.9668   -0.3837 C.ar    1  LIG1       -0.0346
     25 C          -2.9242    7.6841    0.1896 C.ar    1  LIG1        0.0294
     26 S          -3.0936    5.9795    0.5050 S.2     1  LIG1       -0.0869
     27 H           0.0540    6.8090   -1.0419 H       1  LIG1        0.0632
     28 C          -1.2244    9.3346   -0.7666 C.3     1  LIG1       -0.0386
     29 H          -1.7234   10.1103   -0.1831 H       1  LIG1        0.0278
     30 H          -1.4103    9.5461   -1.8253 H       1  LIG1        0.0278
     31 H          -0.1469    9.4206   -0.6044 H       1  LIG1        0.0278
     32 C          -4.0023    8.6048    0.5272 C.ar    1  LIG1        0.0264
     33 C          -4.4590    9.6749   -0.1909 C.ar    1  LIG1       -0.0435
     34 C          -5.5372   10.3770    0.4322 C.ar    1  LIG1       -0.0428
     35 C          -5.8804    9.8097    1.6218 C.ar    1  LIG1       -0.0208
     36 S          -4.9039    8.4427    2.0096 S.2     1  LIG1       -0.0959
     37 H          -6.6631   10.1241    2.2979 H       1  LIG1        0.0696
     38 H          -4.0587    9.9406   -1.1619 H       1  LIG1        0.0632
     39 C          -6.2071   11.5771   -0.1695 C.3     1  LIG1       -0.0392
     40 H          -7.0154   11.9402    0.4682 H       1  LIG1        0.0278
     41 H          -6.6328   11.3428   -1.1500 H       1  LIG1        0.0278
     42 H          -5.4974   12.3980   -0.3117 H       1  LIG1        0.0278
@<TRIPOS>BOND
     1     6     1    1
     2     5     1   ar
     3     5     4   ar
     4    30    28    1
     5     1     2   ar
     6    38    33    1
     7    41    39    1
     8    27    23    1
     9    28    31    1
    10    28    24    1
    11    28    29    1
    12     4    12    1
    13     4     3   ar
    14    23    24   ar
    15    23    22   ar
    16    16    12   ar
    17    16    15   ar
    18    20    18    1
    19     2     7    1
    20     2     3   ar
    21    12    13   ar
    22    24    25   ar
    23    42    39    1
    24    33    34   ar
    25    33    32   ar
    26    15    22    1
    27    15    14   ar
    28    39    34    1
    29    39    40    1
    30    22    26   ar
    31    13    17    1
    32    13    14   ar
    33    14    18    1
    34     3     8    1
    35    25    26   ar
    36    25    32    1
    37    34    35   ar
    38    18    19    1
    39    18    21    1
    40    32    36   ar
    41    10     8    1
    42     8     9    1
    43     8    11    1
    44    35    36   ar
    45    35    37    1
