@<TRIPOS>MOLECULE
mol_data/opt/cam/geoms/mol2/5ai5ai5ai-5ai-.out
 42 45 0 0 0
SMALL
GASTEIGER

@<TRIPOS>ATOM
      1 C          -1.6936   -1.8329   -1.4976 C.ar    1  LIG1       -0.0235
      2 C          -0.8597   -1.9394   -0.4309 C.ar    1  LIG1       -0.0512
      3 C          -0.4196   -0.6796    0.0817 C.ar    1  LIG1       -0.0352
      4 C          -0.9410    0.3721   -0.6325 C.ar    1  LIG1        0.0288
      5 S          -1.9640   -0.1894   -1.9276 S.2     1  LIG1       -0.0959
      6 H          -2.1675   -2.6274   -2.0557 H       1  LIG1        0.0693
      7 H          -0.5644   -2.8876    0.0034 H       1  LIG1        0.0626
      8 C           0.4809   -0.5595    1.2759 C.3     1  LIG1       -0.0386
      9 H           0.3506    0.4006    1.7785 H       1  LIG1        0.0278
     10 H           1.5364   -0.6454    0.9953 H       1  LIG1        0.0278
     11 H           0.2726   -1.3554    1.9955 H       1  LIG1        0.0278
     12 C          -0.7293    1.7991   -0.4266 C.ar    1  LIG1        0.0270
     13 C           0.4276    2.4458   -0.0916 C.ar    1  LIG1       -0.0429
     14 C           0.2950    3.8579    0.0512 C.ar    1  LIG1       -0.0346
     15 C          -0.9889    4.2805   -0.1967 C.ar    1  LIG1        0.0294
     16 S          -2.0310    2.9400   -0.5876 S.2     1  LIG1       -0.0869
     17 H           1.3706    1.9282    0.0362 H       1  LIG1        0.0632
     18 C           1.4429    4.7425    0.4402 C.3     1  LIG1       -0.0386
     19 H           1.0946    5.6539    0.9294 H       1  LIG1        0.0278
     20 H           2.0359    5.0407   -0.4314 H       1  LIG1        0.0278
     21 H           2.1154    4.2197    1.1249 H       1  LIG1        0.0278
     22 C          -1.5169    5.6373   -0.1678 C.ar    1  LIG1        0.0270
     23 C          -0.9189    6.7905   -0.5949 C.ar    1  LIG1       -0.0429
     24 C          -1.7050    7.9656   -0.4126 C.ar    1  LIG1       -0.0346
     25 C          -2.9256    7.6846    0.1515 C.ar    1  LIG1        0.0294
     26 S          -3.0976    5.9809    0.4705 S.2     1  LIG1       -0.0869
     27 H           0.0626    6.8060   -1.0530 H       1  LIG1        0.0632
     28 C          -1.2180    9.3323   -0.7956 C.3     1  LIG1       -0.0386
     29 H          -1.7218   10.1097   -0.2185 H       1  LIG1        0.0278
     30 H          -1.3952    9.5406   -1.8564 H       1  LIG1        0.0278
     31 H          -0.1419    9.4188   -0.6248 H       1  LIG1        0.0278
     32 C          -4.0064    8.6062    0.4776 C.ar    1  LIG1        0.0264
     33 C          -4.4572    9.6742   -0.2473 C.ar    1  LIG1       -0.0435
     34 C          -5.5404   10.3781    0.3649 C.ar    1  LIG1       -0.0428
     35 C          -5.8934    9.8143    1.5534 C.ar    1  LIG1       -0.0208
     36 S          -4.9201    8.4484    1.9530 S.2     1  LIG1       -0.0959
     37 H          -6.6815   10.1307    2.2222 H       1  LIG1        0.0696
     38 H          -4.0490    9.9371   -1.2158 H       1  LIG1        0.0632
     39 C          -6.2054   11.5765   -0.2456 C.3     1  LIG1       -0.0392
     40 H          -7.0188   11.9415    0.3844 H       1  LIG1        0.0278
     41 H          -6.6231   11.3393   -1.2289 H       1  LIG1        0.0278
     42 H          -5.4945   12.3969   -0.3844 H       1  LIG1        0.0278
@<TRIPOS>BOND
     1     6     1    1
     2     5     1   ar
     3     5     4   ar
     4    30    28    1
     5     1     2   ar
     6    41    39    1
     7    38    33    1
     8    27    23    1
     9    28    31    1
    10    28    24    1
    11    28    29    1
    12     4    12    1
    13     4     3   ar
    14    23    24   ar
    15    23    22   ar
    16    16    12   ar
    17    16    15   ar
    18    20    18    1
    19     2     7    1
    20     2     3   ar
    21    12    13   ar
    22    24    25   ar
    23    42    39    1
    24    33    34   ar
    25    33    32   ar
    26    39    34    1
    27    39    40    1
    28    15    22    1
    29    15    14   ar
    30    22    26   ar
    31    13    17    1
    32    13    14   ar
    33    14    18    1
    34     3     8    1
    35    25    26   ar
    36    25    32    1
    37    34    35   ar
    38    18    19    1
    39    18    21    1
    40    32    36   ar
    41    10     8    1
    42     8     9    1
    43     8    11    1
    44    35    36   ar
    45    35    37    1
