@<TRIPOS>MOLECULE
mol_data/opt/cam/geoms/mol2/5ai5ai-5ai5ai.out
 42 45 0 0 0
SMALL
GASTEIGER

@<TRIPOS>ATOM
      1 C          -1.7188   -1.8285   -1.4894 C.ar    1  LIG1       -0.0235
      2 C          -0.8674   -1.9382   -0.4368 C.ar    1  LIG1       -0.0512
      3 C          -0.4189   -0.6799    0.0721 C.ar    1  LIG1       -0.0352
      4 C          -0.9518    0.3739   -0.6302 C.ar    1  LIG1        0.0288
      5 S          -1.9961   -0.1837   -1.9100 S.2     1  LIG1       -0.0959
      6 H          -2.2020   -2.6213   -2.0419 H       1  LIG1        0.0693
      7 H          -0.5652   -2.8877   -0.0103 H       1  LIG1        0.0626
      8 C           0.5012   -0.5635    1.2517 C.3     1  LIG1       -0.0386
      9 H           0.3793    0.3952    1.7592 H       1  LIG1        0.0278
     10 H           1.5520   -0.6485    0.9535 H       1  LIG1        0.0278
     11 H           0.3047   -1.3614    1.9723 H       1  LIG1        0.0278
     12 C          -0.7367    1.8002   -0.4236 C.ar    1  LIG1        0.0270
     13 C           0.4256    2.4459   -0.1058 C.ar    1  LIG1       -0.0429
     14 C           0.2956    3.8576    0.0433 C.ar    1  LIG1       -0.0346
     15 C          -0.9922    4.2810   -0.1821 C.ar    1  LIG1        0.0294
     16 S          -2.0407    2.9417   -0.5598 S.2     1  LIG1       -0.0869
     17 H           1.3705    1.9278    0.0049 H       1  LIG1        0.0632
     18 C           1.4498    4.7410    0.4160 C.3     1  LIG1       -0.0386
     19 H           1.1097    5.6510    0.9136 H       1  LIG1        0.0278
     20 H           2.0284    5.0417   -0.4643 H       1  LIG1        0.0278
     21 H           2.1335    4.2161    1.0880 H       1  LIG1        0.0278
     22 C          -1.5196    5.6377   -0.1405 C.ar    1  LIG1        0.0270
     23 C          -0.9285    6.7921   -0.5739 C.ar    1  LIG1       -0.0429
     24 C          -1.7114    7.9668   -0.3753 C.ar    1  LIG1       -0.0346
     25 C          -2.9226    7.6841    0.2081 C.ar    1  LIG1        0.0294
     26 S          -3.0894    5.9794    0.5248 S.2     1  LIG1       -0.0869
     27 H           0.0453    6.8089   -1.0481 H       1  LIG1        0.0632
     28 C          -1.2307    9.3345   -0.7621 C.3     1  LIG1       -0.0386
     29 H          -1.7248   10.1103   -0.1745 H       1  LIG1        0.0278
     30 H          -1.4253    9.5460   -1.8193 H       1  LIG1        0.0278
     31 H          -0.1519    9.4205   -0.6089 H       1  LIG1        0.0278
     32 C          -3.9978    8.6048    0.5547 C.ar    1  LIG1        0.0264
     33 C          -4.4603    9.6750   -0.1595 C.ar    1  LIG1       -0.0435
     34 C          -5.5333   10.3771    0.4726 C.ar    1  LIG1       -0.0428
     35 C          -5.8666    9.8098    1.6650 C.ar    1  LIG1       -0.0208
     36 S          -4.8871    8.4426    2.0445 S.2     1  LIG1       -0.0959
     37 H          -6.6436   10.1243    2.3476 H       1  LIG1        0.0696
     38 H          -4.0681    9.9407   -1.1338 H       1  LIG1        0.0632
     39 C          -6.2081   11.5773   -0.1234 C.3     1  LIG1       -0.0392
     40 H          -7.0110   11.9405    0.5210 H       1  LIG1        0.0278
     41 H          -6.6420   11.3431   -1.1004 H       1  LIG1        0.0278
     42 H          -5.4995   12.3982   -0.2715 H       1  LIG1        0.0278
@<TRIPOS>BOND
     1     6     1    1
     2     5     1   ar
     3     5     4   ar
     4    30    28    1
     5     1     2   ar
     6    38    33    1
     7    41    39    1
     8    27    23    1
     9    28    31    1
    10    28    24    1
    11    28    29    1
    12     4    12    1
    13     4     3   ar
    14    23    24   ar
    15    23    22   ar
    16    16    12   ar
    17    16    15   ar
    18    20    18    1
    19     2     7    1
    20     2     3   ar
    21    12    13   ar
    22    24    25   ar
    23    42    39    1
    24    15    22    1
    25    15    14   ar
    26    33    34   ar
    27    33    32   ar
    28    22    26   ar
    29    39    34    1
    30    39    40    1
    31    13    17    1
    32    13    14   ar
    33    14    18    1
    34     3     8    1
    35    25    26   ar
    36    25    32    1
    37    18    19    1
    38    18    21    1
    39    34    35   ar
    40    32    36   ar
    41    10     8    1
    42     8     9    1
    43     8    11    1
    44    35    36   ar
    45    35    37    1
