@<TRIPOS>MOLECULE
mol_data/opt/cam/geoms/mol2/5ai5ai-5ai-.out
 32 34 0 0 0
SMALL
GASTEIGER

@<TRIPOS>ATOM
      1 C          -2.0241   -1.8465   -0.9011 C.ar    1  LIG1       -0.0235
      2 C          -0.8577   -1.9204   -0.2092 C.ar    1  LIG1       -0.0512
      3 C          -0.3030   -0.6443    0.1187 C.ar    1  LIG1       -0.0352
      4 C          -1.0809    0.3863   -0.3507 C.ar    1  LIG1        0.0288
      5 S          -2.4848   -0.2148   -1.1919 S.2     1  LIG1       -0.0959
      6 H          -2.6419   -2.6587   -1.2558 H       1  LIG1        0.0693
      7 H          -0.3948   -2.8564    0.0815 H       1  LIG1        0.0626
      8 C           0.9644   -0.4888    0.9067 C.3     1  LIG1       -0.0386
      9 H           0.9962    0.4716    1.4244 H       1  LIG1        0.0278
     10 H           1.8490   -0.5470    0.2630 H       1  LIG1        0.0278
     11 H           1.0541   -1.2842    1.6509 H       1  LIG1        0.0278
     12 C          -0.8552    1.8206   -0.2258 C.ar    1  LIG1        0.0270
     13 C           0.3225    2.5065   -0.3303 C.ar    1  LIG1       -0.0429
     14 C           0.2048    3.9147   -0.1389 C.ar    1  LIG1       -0.0346
     15 C          -1.0936    4.2932    0.1010 C.ar    1  LIG1        0.0294
     16 S          -2.1624    2.9175    0.1066 S.2     1  LIG1       -0.0869
     17 H           1.2637    2.0210   -0.5585 H       1  LIG1        0.0632
     18 C           1.3850    4.8398   -0.1911 C.3     1  LIG1       -0.0386
     19 H           1.1995    5.7533    0.3766 H       1  LIG1        0.0278
     20 H           1.6225    5.1322   -1.2198 H       1  LIG1        0.0278
     21 H           2.2733    4.3530    0.2196 H       1  LIG1        0.0278
     22 C          -1.6192    5.6334    0.3286 C.ar    1  LIG1        0.0264
     23 C          -1.2747    6.7974   -0.3005 C.ar    1  LIG1       -0.0435
     24 C          -1.9851    7.9457    0.1692 C.ar    1  LIG1       -0.0428
     25 C          -2.8684    7.6179    1.1527 C.ar    1  LIG1       -0.0208
     26 S          -2.8414    5.9364    1.5332 S.2     1  LIG1       -0.0959
     27 H          -3.5407    8.2806    1.6794 H       1  LIG1        0.0696
     28 H          -0.5525    6.8339   -1.1072 H       1  LIG1        0.0632
     29 C          -1.7830    9.3294   -0.3743 C.3     1  LIG1       -0.0392
     30 H          -2.4438   10.0473    0.1155 H       1  LIG1        0.0278
     31 H          -1.9854    9.3661   -1.4491 H       1  LIG1        0.0278
     32 H          -0.7525    9.6671   -0.2266 H       1  LIG1        0.0278
@<TRIPOS>BOND
     1    31    29    1
     2     6     1    1
     3    20    18    1
     4     5     1   ar
     5     5     4   ar
     6    28    23    1
     7     1     2   ar
     8    17    13    1
     9    29    32    1
    10    29    30    1
    11    29    24    1
    12     4    12    1
    13     4     3   ar
    14    13    12   ar
    15    13    14   ar
    16    23    24   ar
    17    23    22   ar
    18    12    16   ar
    19     2     7    1
    20     2     3   ar
    21    18    14    1
    22    18    21    1
    23    18    19    1
    24    14    15   ar
    25    15    16   ar
    26    15    22    1
    27     3     8    1
    28    24    25   ar
    29    10     8    1
    30    22    26   ar
    31     8     9    1
    32     8    11    1
    33    25    26   ar
    34    25    27    1
