@<TRIPOS>MOLECULE
mol_data/opt/cam/geoms/mol2/5ai5ai5ai5ai.out
 42 45 0 0 0
SMALL
GASTEIGER

@<TRIPOS>ATOM
      1 C          -1.7066   -1.8329   -1.4892 C.ar    1  LIG1       -0.0235
      2 C          -0.8638   -1.9395   -0.4294 C.ar    1  LIG1       -0.0512
      3 C          -0.4194   -0.6797    0.0794 C.ar    1  LIG1       -0.0352
      4 C          -0.9466    0.3721   -0.6303 C.ar    1  LIG1        0.0288
      5 S          -1.9804   -0.1894   -1.9169 S.2     1  LIG1       -0.0959
      6 H          -2.1853   -2.6273   -2.0432 H       1  LIG1        0.0693
      7 H          -0.5651   -2.8877    0.0024 H       1  LIG1        0.0626
      8 C           0.4910   -0.5597    1.2661 C.3     1  LIG1       -0.0386
      9 H           0.3650    0.4005    1.7697 H       1  LIG1        0.0278
     10 H           1.5442   -0.6456    0.9767 H       1  LIG1        0.0278
     11 H           0.2887   -1.3555    1.9874 H       1  LIG1        0.0278
     12 C          -0.7331    1.7990   -0.4262 C.ar    1  LIG1        0.0270
     13 C           0.4266    2.4456   -0.1009 C.ar    1  LIG1       -0.0429
     14 C           0.2953    3.8577    0.0430 C.ar    1  LIG1       -0.0346
     15 C          -0.9905    4.2805   -0.1942 C.ar    1  LIG1        0.0294
     16 S          -2.0360    2.9400   -0.5764 S.2     1  LIG1       -0.0869
     17 H           1.3706    1.9279    0.0190 H       1  LIG1        0.0632
     18 C           1.4465    4.7422    0.4223 C.3     1  LIG1       -0.0386
     19 H           1.1024    5.6537    0.9145 H       1  LIG1        0.0278
     20 H           2.0323    5.0404   -0.4541 H       1  LIG1        0.0278
     21 H           2.1247    4.2194    1.1015 H       1  LIG1        0.0278
     22 C          -1.5182    5.6373   -0.1609 C.ar    1  LIG1        0.0270
     23 C          -0.9236    6.7904   -0.5930 C.ar    1  LIG1       -0.0429
     24 C          -1.7081    7.9656   -0.4042 C.ar    1  LIG1       -0.0346
     25 C          -2.9240    7.6847    0.1701 C.ar    1  LIG1        0.0294
     26 S          -3.0934    5.9810    0.4906 S.2     1  LIG1       -0.0869
     27 H           0.0540    6.8058   -1.0592 H       1  LIG1        0.0632
     28 C          -1.2242    9.3323   -0.7912 C.3     1  LIG1       -0.0386
     29 H          -1.7231   10.1098   -0.2099 H       1  LIG1        0.0278
     30 H          -1.4102    9.5406   -1.8505 H       1  LIG1        0.0278
     31 H          -0.1467    9.4186   -0.6294 H       1  LIG1        0.0278
     32 C          -4.0020    8.6064    0.5052 C.ar    1  LIG1        0.0264
     33 C          -4.4586    9.6745   -0.2160 C.ar    1  LIG1       -0.0435
     34 C          -5.5367   10.3785    0.4053 C.ar    1  LIG1       -0.0428
     35 C          -5.8798    9.8147    1.5966 C.ar    1  LIG1       -0.0208
     36 S          -4.9033    8.4487    1.9882 S.2     1  LIG1       -0.0959
     37 H          -6.6623   10.1312    2.2720 H       1  LIG1        0.0696
     38 H          -4.0585    9.9373   -1.1878 H       1  LIG1        0.0632
     39 C          -6.2066   11.5769   -0.1997 C.3     1  LIG1       -0.0392
     40 H          -7.0148   11.9420    0.4371 H       1  LIG1        0.0278
     41 H          -6.6325   11.3398   -1.1795 H       1  LIG1        0.0278
     42 H          -5.4968   12.3973   -0.3445 H       1  LIG1        0.0278
@<TRIPOS>BOND
     1     6     1    1
     2     5     1   ar
     3     5     4   ar
     4    30    28    1
     5     1     2   ar
     6    38    33    1
     7    41    39    1
     8    27    23    1
     9    28    31    1
    10    28    24    1
    11    28    29    1
    12     4    12    1
    13     4     3   ar
    14    23    24   ar
    15    23    22   ar
    16    16    12   ar
    17    16    15   ar
    18    20    18    1
    19     2     7    1
    20     2     3   ar
    21    12    13   ar
    22    24    25   ar
    23    42    39    1
    24    33    34   ar
    25    33    32   ar
    26    39    34    1
    27    39    40    1
    28    15    22    1
    29    15    14   ar
    30    22    26   ar
    31    13    17    1
    32    13    14   ar
    33    14    18    1
    34     3     8    1
    35    25    26   ar
    36    25    32    1
    37    34    35   ar
    38    18    19    1
    39    18    21    1
    40    32    36   ar
    41    10     8    1
    42     8     9    1
    43     8    11    1
    44    35    36   ar
    45    35    37    1
