@<TRIPOS>MOLECULE
mol_data/opt/cam/geoms/mol2/5ai5ai5ai5ai-.out
 42 45 0 0 0
SMALL
GASTEIGER

@<TRIPOS>ATOM
      1 C          -1.7053   -1.8338   -1.4865 C.ar    1  LIG1       -0.0235
      2 C          -0.8634   -1.9397   -0.4260 C.ar    1  LIG1       -0.0512
      3 C          -0.4195   -0.6795    0.0824 C.ar    1  LIG1       -0.0352
      4 C          -0.9459    0.3717   -0.6287 C.ar    1  LIG1        0.0288
      5 S          -1.9787   -0.1907   -1.9157 S.2     1  LIG1       -0.0959
      6 H          -2.1835   -2.6287   -2.0405 H       1  LIG1        0.0693
      7 H          -0.5651   -2.8876    0.0068 H       1  LIG1        0.0626
      8 C           0.4899   -0.5586    1.2697 C.3     1  LIG1       -0.0386
      9 H           0.3637    0.4021    1.7723 H       1  LIG1        0.0278
     10 H           1.5433   -0.6452    0.9814 H       1  LIG1        0.0278
     11 H           0.2866   -1.3536    1.9917 H       1  LIG1        0.0278
     12 C          -0.7326    1.7988   -0.4256 C.ar    1  LIG1        0.0270
     13 C           0.4269    2.4457   -0.1000 C.ar    1  LIG1       -0.0429
     14 C           0.2956    3.8579    0.0425 C.ar    1  LIG1       -0.0346
     15 C          -0.9901    4.2805   -0.1958 C.ar    1  LIG1        0.0294
     16 S          -2.0353    2.9397   -0.5774 S.2     1  LIG1       -0.0869
     17 H           1.3708    1.9280    0.0210 H       1  LIG1        0.0632
     18 C           1.4465    4.7428    0.4218 C.3     1  LIG1       -0.0386
     19 H           1.1020    5.6549    0.9125 H       1  LIG1        0.0278
     20 H           2.0331    5.0398   -0.4545 H       1  LIG1        0.0278
     21 H           2.1241    4.2208    1.1022 H       1  LIG1        0.0278
     22 C          -1.5178    5.6373   -0.1641 C.ar    1  LIG1        0.0270
     23 C          -0.9230    6.7900   -0.5970 C.ar    1  LIG1       -0.0429
     24 C          -1.7076    7.9654   -0.4100 C.ar    1  LIG1       -0.0346
     25 C          -2.9239    7.6850    0.1640 C.ar    1  LIG1        0.0294
     26 S          -3.0932    5.9816    0.4864 S.2     1  LIG1       -0.0869
     27 H           0.0549    6.8050   -1.0627 H       1  LIG1        0.0632
     28 C          -1.2237    9.3316   -0.7982 C.3     1  LIG1       -0.0386
     29 H          -1.7231   10.1097   -0.2182 H       1  LIG1        0.0278
     30 H          -1.4091    9.5387   -1.8579 H       1  LIG1        0.0278
     31 H          -0.1463    9.4184   -0.6358 H       1  LIG1        0.0278
     32 C          -4.0022    8.6069    0.4973 C.ar    1  LIG1        0.0264
     33 C          -4.4587    9.6740   -0.2253 C.ar    1  LIG1       -0.0435
     34 C          -5.5372   10.3785    0.3946 C.ar    1  LIG1       -0.0428
     35 C          -5.8808    9.8161    1.5864 C.ar    1  LIG1       -0.0208
     36 S          -4.9041    8.4509    1.9802 S.2     1  LIG1       -0.0959
     37 H          -6.6637   10.1332    2.2610 H       1  LIG1        0.0696
     38 H          -4.0582    9.9357   -1.1973 H       1  LIG1        0.0632
     39 C          -6.2071   11.5761   -0.2122 C.3     1  LIG1       -0.0392
     40 H          -7.0156   11.9417    0.4238 H       1  LIG1        0.0278
     41 H          -6.6325   11.3377   -1.1919 H       1  LIG1        0.0278
     42 H          -5.4975   12.3964   -0.3576 H       1  LIG1        0.0278
@<TRIPOS>BOND
     1     6     1    1
     2     5     1   ar
     3     5     4   ar
     4    30    28    1
     5     1     2   ar
     6    38    33    1
     7    41    39    1
     8    27    23    1
     9    28    31    1
    10    28    24    1
    11    28    29    1
    12     4    12    1
    13     4     3   ar
    14    23    24   ar
    15    23    22   ar
    16    16    12   ar
    17    16    15   ar
    18    20    18    1
    19     2     7    1
    20     2     3   ar
    21    12    13   ar
    22    24    25   ar
    23    42    39    1
    24    33    34   ar
    25    33    32   ar
    26    39    34    1
    27    39    40    1
    28    15    22    1
    29    15    14   ar
    30    22    26   ar
    31    13    17    1
    32    13    14   ar
    33    14    18    1
    34     3     8    1
    35    25    26   ar
    36    25    32    1
    37    34    35   ar
    38    18    19    1
    39    18    21    1
    40    32    36   ar
    41    10     8    1
    42     8     9    1
    43     8    11    1
    44    35    36   ar
    45    35    37    1
