@<TRIPOS>MOLECULE
mol_data/opt/cam/geoms/mol2/5ai5ai5ai-.out
 32 34 0 0 0
SMALL
GASTEIGER

@<TRIPOS>ATOM
      1 C          -2.0154   -1.8491   -0.9056 C.ar    1  LIG1       -0.0235
      2 C          -0.8554   -1.9210   -0.2029 C.ar    1  LIG1       -0.0512
      3 C          -0.3037   -0.6439    0.1264 C.ar    1  LIG1       -0.0352
      4 C          -1.0774    0.3853   -0.3530 C.ar    1  LIG1        0.0288
      5 S          -2.4735   -0.2184   -1.2053 S.2     1  LIG1       -0.0959
      6 H          -2.6299   -2.6625   -1.2636 H       1  LIG1        0.0693
      7 H          -0.3950   -2.8561    0.0948 H       1  LIG1        0.0626
      8 C           0.9563   -0.4860    0.9255 C.3     1  LIG1       -0.0386
      9 H           0.9834    0.4758    1.4408 H       1  LIG1        0.0278
     10 H           1.8469   -0.5460    0.2901 H       1  LIG1        0.0278
     11 H           1.0393   -1.2793    1.6728 H       1  LIG1        0.0278
     12 C          -0.8529    1.8199   -0.2302 C.ar    1  LIG1        0.0270
     13 C           0.3256    2.5057   -0.3259 C.ar    1  LIG1       -0.0429
     14 C           0.2061    3.9143   -0.1397 C.ar    1  LIG1       -0.0346
     15 C          -1.0945    4.2935    0.0873 C.ar    1  LIG1        0.0294
     16 S          -2.1632    2.9177    0.0871 S.2     1  LIG1       -0.0869
     17 H           1.2689    2.0196   -0.5441 H       1  LIG1        0.0632
     18 C           1.3867    4.8394   -0.1837 C.3     1  LIG1       -0.0386
     19 H           1.1960    5.7545    0.3797 H       1  LIG1        0.0278
     20 H           1.6336    5.1289   -1.2110 H       1  LIG1        0.0278
     21 H           2.2713    4.3539    0.2365 H       1  LIG1        0.0278
     22 C          -1.6222    5.6342    0.3062 C.ar    1  LIG1        0.0264
     23 C          -1.2720    6.7965   -0.3230 C.ar    1  LIG1       -0.0435
     24 C          -1.9867    7.9460    0.1370 C.ar    1  LIG1       -0.0428
     25 C          -2.8789    7.6210    1.1132 C.ar    1  LIG1       -0.0208
     26 S          -2.8554    5.9406    1.4987 S.2     1  LIG1       -0.0959
     27 H          -3.5561    8.2852    1.6318 H       1  LIG1        0.0696
     28 H          -0.5424    6.8308   -1.1231 H       1  LIG1        0.0632
     29 C          -1.7797    9.3282   -0.4086 C.3     1  LIG1       -0.0392
     30 H          -2.4450   10.0474    0.0731 H       1  LIG1        0.0278
     31 H          -1.9723    9.3618   -1.4854 H       1  LIG1        0.0278
     32 H          -0.7506    9.6664   -0.2524 H       1  LIG1        0.0278
@<TRIPOS>BOND
     1    31    29    1
     2     6     1    1
     3    20    18    1
     4     5     1   ar
     5     5     4   ar
     6    28    23    1
     7     1     2   ar
     8    17    13    1
     9    29    32    1
    10    29    30    1
    11    29    24    1
    12     4    12    1
    13     4     3   ar
    14    13    12   ar
    15    13    14   ar
    16    23    24   ar
    17    23    22   ar
    18    12    16   ar
    19     2     7    1
    20     2     3   ar
    21    18    14    1
    22    18    21    1
    23    18    19    1
    24    14    15   ar
    25    16    15   ar
    26    15    22    1
    27     3     8    1
    28    24    25   ar
    29    10     8    1
    30    22    26   ar
    31     8     9    1
    32     8    11    1
    33    25    26   ar
    34    25    27    1
