@<TRIPOS>MOLECULE
mol_data/opt/cam/geoms/mol2/5al.out
 13 13 0 0 0
SMALL
GASTEIGER

@<TRIPOS>ATOM
      1 C          -2.1939   -1.7298    0.0001 C.ar    1  LIG1       -0.0208
      2 C          -0.8341   -1.7834   -0.0004 C.ar    1  LIG1       -0.0129
      3 C          -0.2456   -0.4776   -0.0002 C.ar    1  LIG1        0.1271
      4 C          -1.1747    0.5218    0.0004 C.ar    1  LIG1        0.0174
      5 S          -2.7765   -0.1124    0.0008 S.2     1  LIG1       -0.1013
      6 H          -2.8858   -2.5593    0.0001 H       1  LIG1        0.0694
      7 H          -0.9859    1.5839    0.0006 H       1  LIG1        0.0730
      8 H          -0.2764   -2.7099   -0.0009 H       1  LIG1        0.0659
      9 O           1.0826   -0.1937   -0.0006 O.3     1  LIG1       -0.4946
     10 C           1.9722   -1.2894   -0.0012 C.3     1  LIG1        0.0788
     11 H           2.9774   -0.8680   -0.0014 H       1  LIG1        0.0660
     12 H           1.8472   -1.9136    0.8917 H       1  LIG1        0.0660
     13 H           1.8466   -1.9132   -0.8942 H       1  LIG1        0.0660
@<TRIPOS>BOND
     1    13    10    1
     2    11    10    1
     3    10     9    1
     4    10    12    1
     5     8     2    1
     6     9     3    1
     7     2     3   ar
     8     2     1   ar
     9     3     4   ar
    10     6     1    1
    11     1     5   ar
    12     4     7    1
    13     4     5   ar
