@<TRIPOS>MOLECULE
mol_data/opt/cam/geoms/mol2/5al5al5al-5al-.out
 46 49 0 0 0
SMALL
GASTEIGER

@<TRIPOS>ATOM
      1 C          -2.1856   -2.0724    0.1403 C.ar    1  LIG1       -0.0202
      2 C          -0.8356   -2.1145   -0.0196 C.ar    1  LIG1       -0.0123
      3 C          -0.2566   -0.8108   -0.0466 C.ar    1  LIG1        0.1353
      4 C          -1.1783    0.2054    0.0909 C.ar    1  LIG1        0.0676
      5 S          -2.7753   -0.4653    0.2680 S.2     1  LIG1       -0.0924
      6 H          -2.8697   -2.9063    0.1955 H       1  LIG1        0.0695
      7 H          -0.2768   -3.0350   -0.1150 H       1  LIG1        0.0660
      8 O           1.0638   -0.5325   -0.1922 O.3     1  LIG1       -0.4939
      9 C           1.9369   -1.6255   -0.3994 C.3     1  LIG1        0.0788
     10 H           2.9333   -1.2019   -0.5225 H       1  LIG1        0.0660
     11 H           1.9400   -2.3050    0.4602 H       1  LIG1        0.0660
     12 H           1.6704   -2.1852   -1.3027 H       1  LIG1        0.0660
     13 C          -0.9343    1.6327    0.0946 C.ar    1  LIG1        0.0336
     14 C           0.2724    2.2826    0.1411 C.ar    1  LIG1       -0.0039
     15 C           0.1368    3.6966    0.1305 C.ar    1  LIG1        0.1359
     16 C          -1.1683    4.1380    0.0775 C.ar    1  LIG1        0.0682
     17 S          -2.2466    2.7699    0.0271 S.2     1  LIG1       -0.0833
     18 H           1.2093    1.7507    0.1854 H       1  LIG1        0.0666
     19 O           1.1630    4.5848    0.1714 O.3     1  LIG1       -0.4939
     20 C           2.4733    4.0570    0.2324 C.3     1  LIG1        0.0788
     21 H           3.1467    4.9134    0.2558 H       1  LIG1        0.0660
     22 H           2.6218    3.4573    1.1372 H       1  LIG1        0.0660
     23 H           2.6996    3.4445   -0.6473 H       1  LIG1        0.0660
     24 C          -1.6521    5.4994    0.0584 C.ar    1  LIG1        0.0336
     25 C          -0.9171    6.6585    0.0724 C.ar    1  LIG1       -0.0039
     26 C          -1.7277    7.8250    0.0455 C.ar    1  LIG1        0.1359
     27 C          -3.0813    7.5724    0.0130 C.ar    1  LIG1        0.0682
     28 S          -3.3542    5.8511    0.0041 S.2     1  LIG1       -0.0833
     29 H           0.1605    6.6534    0.1016 H       1  LIG1        0.0666
     30 O          -1.2656    9.1026    0.0519 O.3     1  LIG1       -0.4939
     31 C           0.1327    9.2831    0.1469 C.3     1  LIG1        0.0788
     32 H           0.3014   10.3597    0.1639 H       1  LIG1        0.0660
     33 H           0.5326    8.8411    1.0662 H       1  LIG1        0.0660
     34 H           0.6529    8.8512   -0.7154 H       1  LIG1        0.0660
     35 C          -4.1720    8.5242   -0.0103 C.ar    1  LIG1        0.0330
     36 C          -4.1007    9.8863   -0.1628 C.ar    1  LIG1       -0.0045
     37 C          -5.3843   10.5094   -0.1371 C.ar    1  LIG1        0.1277
     38 C          -6.4107    9.6278    0.0317 C.ar    1  LIG1        0.0180
     39 S          -5.8253    8.0120    0.1732 S.2     1  LIG1       -0.0923
     40 H          -7.4646    9.8515    0.0809 H       1  LIG1        0.0730
     41 H          -3.1615   10.4008   -0.2905 H       1  LIG1        0.0666
     42 O          -5.6283   11.8405   -0.2655 O.3     1  LIG1       -0.4946
     43 C          -4.5096   12.6815   -0.4432 C.3     1  LIG1        0.0788
     44 H          -4.8991   13.6966   -0.5243 H       1  LIG1        0.0660
     45 H          -3.8231   12.6287    0.4101 H       1  LIG1        0.0660
     46 H          -3.9586   12.4355   -1.3587 H       1  LIG1        0.0660
@<TRIPOS>BOND
     1    46    43    1
     2    12     9    1
     3    34    31    1
     4    23    20    1
     5    44    43    1
     6    10     9    1
     7    43    42    1
     8    43    45    1
     9     9     8    1
    10     9    11    1
    11    41    36    1
    12    42    37    1
    13     8     3    1
    14    36    37   ar
    15    36    35   ar
    16    37    38   ar
    17     7     2    1
    18     3     2   ar
    19     3     4   ar
    20     2     1   ar
    21    35    27    1
    22    35    39   ar
    23    28    27   ar
    24    28    24   ar
    25    27    26   ar
    26    17    16   ar
    27    17    13   ar
    28    38    40    1
    29    38    39   ar
    30    26    30    1
    31    26    25   ar
    32    30    31    1
    33    24    25   ar
    34    24    16    1
    35    25    29    1
    36    16    15   ar
    37     4    13    1
    38     4     5   ar
    39    13    14   ar
    40    15    14   ar
    41    15    19    1
    42     1     6    1
    43     1     5   ar
    44    14    18    1
    45    31    32    1
    46    31    33    1
    47    19    20    1
    48    20    21    1
    49    20    22    1
