@<TRIPOS>MOLECULE
mol_data/opt/cam/geoms/mol2/5al5al-.out
 24 25 0 0 0
SMALL
GASTEIGER

@<TRIPOS>ATOM
      1 C          -2.2404   -1.8753    0.0002 C.ar    1  LIG1       -0.0202
      2 C          -0.8814   -1.9133   -0.0004 C.ar    1  LIG1       -0.0123
      3 C          -0.3063   -0.6066   -0.0001 C.ar    1  LIG1        0.1353
      4 C          -1.2382    0.4080    0.0007 C.ar    1  LIG1        0.0676
      5 S          -2.8430   -0.2674    0.0011 S.2     1  LIG1       -0.0924
      6 H          -2.9247   -2.7108    0.0001 H       1  LIG1        0.0695
      7 H          -0.3126   -2.8325   -0.0010 H       1  LIG1        0.0660
      8 O           1.0231   -0.3275   -0.0005 O.3     1  LIG1       -0.4939
      9 C           1.9153   -1.4237   -0.0012 C.3     1  LIG1        0.0788
     10 H           2.9195   -1.0004   -0.0014 H       1  LIG1        0.0660
     11 H           1.7887   -2.0454    0.8922 H       1  LIG1        0.0660
     12 H           1.7881   -2.0447   -0.8950 H       1  LIG1        0.0660
     13 C          -1.0028    1.8405    0.0012 C.ar    1  LIG1        0.0330
     14 C           0.2009    2.4977    0.0011 C.ar    1  LIG1       -0.0045
     15 C           0.0514    3.9176    0.0017 C.ar    1  LIG1        0.1277
     16 C          -1.2502    4.3232    0.0023 C.ar    1  LIG1        0.0180
     17 S          -2.3227    2.9738    0.0021 S.2     1  LIG1       -0.0923
     18 H          -1.6206    5.3362    0.0029 H       1  LIG1        0.0730
     19 H           1.1425    1.9721    0.0005 H       1  LIG1        0.0666
     20 O           1.0613    4.8265    0.0017 O.3     1  LIG1       -0.4946
     21 C           2.3785    4.3200    0.0012 C.3     1  LIG1        0.0788
     22 H           3.0396    5.1868    0.0013 H       1  LIG1        0.0660
     23 H           2.5805    3.7156    0.8933 H       1  LIG1        0.0660
     24 H           2.5800    3.7162   -0.8916 H       1  LIG1        0.0660
@<TRIPOS>BOND
     1    12     9    1
     2    24    21    1
     3    10     9    1
     4     9     8    1
     5     9    11    1
     6     7     2    1
     7     8     3    1
     8     2     3   ar
     9     2     1   ar
    10     3     4   ar
    11     6     1    1
    12     1     5   ar
    13    19    14    1
    14     4     5   ar
    15     4    13    1
    16    14    13   ar
    17    14    15   ar
    18    21    22    1
    19    21    20    1
    20    21    23    1
    21    13    17   ar
    22    15    20    1
    23    15    16   ar
    24    17    16   ar
    25    16    18    1
