@<TRIPOS>MOLECULE
mol_data/opt/cam/geoms/mol2/5al5al-5al.out
 35 37 0 0 0
SMALL
GASTEIGER

@<TRIPOS>ATOM
      1 C          -2.2298   -1.9911    0.0002 C.ar    1  LIG1       -0.0202
      2 C          -0.8706   -2.0313   -0.0004 C.ar    1  LIG1       -0.0123
      3 C          -0.2937   -0.7263   -0.0000 C.ar    1  LIG1        0.1353
      4 C          -1.2254    0.2901    0.0008 C.ar    1  LIG1        0.0676
      5 S          -2.8314   -0.3831    0.0011 S.2     1  LIG1       -0.0924
      6 H          -2.9150   -2.8258    0.0001 H       1  LIG1        0.0695
      7 H          -0.3031   -2.9515   -0.0010 H       1  LIG1        0.0660
      8 O           1.0353   -0.4484   -0.0005 O.3     1  LIG1       -0.4939
      9 C           1.9260   -1.5465   -0.0013 C.3     1  LIG1        0.0788
     10 H           2.9310   -1.1253   -0.0015 H       1  LIG1        0.0660
     11 H           1.7973   -2.1676    0.8922 H       1  LIG1        0.0660
     12 H           1.7967   -2.1668   -0.8951 H       1  LIG1        0.0660
     13 C          -0.9867    1.7188    0.0013 C.ar    1  LIG1        0.0336
     14 C           0.2171    2.3751    0.0011 C.ar    1  LIG1       -0.0039
     15 C           0.0736    3.7896    0.0017 C.ar    1  LIG1        0.1359
     16 C          -1.2333    4.2244    0.0024 C.ar    1  LIG1        0.0682
     17 S          -2.3055    2.8510    0.0023 S.2     1  LIG1       -0.0833
     18 H           1.1580    1.8488    0.0005 H       1  LIG1        0.0666
     19 O           1.0972    4.6825    0.0017 O.3     1  LIG1       -0.4939
     20 C           2.4107    4.1608    0.0010 C.3     1  LIG1        0.0788
     21 H           3.0807    5.0204    0.0011 H       1  LIG1        0.0660
     22 H           2.6022    3.5552    0.8937 H       1  LIG1        0.0660
     23 H           2.6016    3.5559   -0.8923 H       1  LIG1        0.0660
     24 C          -1.7280    5.5856    0.0032 C.ar    1  LIG1        0.0330
     25 C          -0.9995    6.7488    0.0033 C.ar    1  LIG1       -0.0045
     26 C          -1.8247    7.9131    0.0042 C.ar    1  LIG1        0.1277
     27 C          -3.1587    7.6309    0.0047 C.ar    1  LIG1        0.0180
     28 S          -3.4342    5.9290    0.0042 S.2     1  LIG1       -0.0923
     29 H          -3.9768    8.3336    0.0054 H       1  LIG1        0.0730
     30 H           0.0788    6.7502    0.0028 H       1  LIG1        0.0666
     31 O          -1.3892    9.2005    0.0045 O.3     1  LIG1       -0.4946
     32 C           0.0071    9.4041    0.0041 C.3     1  LIG1        0.0788
     33 H           0.1593   10.4836    0.0045 H       1  LIG1        0.0660
     34 H           0.4795    8.9757    0.8960 H       1  LIG1        0.0660
     35 H           0.4788    8.9764   -0.8886 H       1  LIG1        0.0660
@<TRIPOS>BOND
     1    12     9    1
     2    23    20    1
     3    35    32    1
     4    10     9    1
     5     9     8    1
     6     9    11    1
     7     7     2    1
     8     8     3    1
     9     2     3   ar
    10     2     1   ar
    11     3     4   ar
    12     6     1    1
    13     1     5   ar
    14    18    14    1
    15     4     5   ar
    16     4    13    1
    17    20    21    1
    18    20    19    1
    19    20    22    1
    20    14    13   ar
    21    14    15   ar
    22    13    17   ar
    23    19    15    1
    24    15    16   ar
    25    17    16   ar
    26    16    24    1
    27    30    25    1
    28    24    25   ar
    29    24    28   ar
    30    25    26   ar
    31    32    33    1
    32    32    31    1
    33    32    34    1
    34    28    27   ar
    35    26    31    1
    36    26    27   ar
    37    27    29    1
