@<TRIPOS>MOLECULE
mol_data/opt/cam/geoms/mol2/5al5al5al5al-.out
 46 49 0 0 0
SMALL
GASTEIGER

@<TRIPOS>ATOM
      1 C          -2.1871   -2.0712    0.1588 C.ar    1  LIG1       -0.0202
      2 C          -0.8336   -2.1149    0.0331 C.ar    1  LIG1       -0.0123
      3 C          -0.2542   -0.8114    0.0020 C.ar    1  LIG1        0.1353
      4 C          -1.1792    0.2061    0.1019 C.ar    1  LIG1        0.0676
      5 S          -2.7799   -0.4626    0.2499 S.2     1  LIG1       -0.0924
      6 H          -2.8722   -2.9045    0.2090 H       1  LIG1        0.0695
      7 H          -0.2725   -3.0364   -0.0353 H       1  LIG1        0.0660
      8 O           1.0694   -0.5343   -0.1146 O.3     1  LIG1       -0.4939
      9 C           1.9470   -1.6292   -0.2900 C.3     1  LIG1        0.0788
     10 H           2.9459   -1.2067   -0.3953 H       1  LIG1        0.0660
     11 H           1.9310   -2.2992    0.5769 H       1  LIG1        0.0660
     12 H           1.7010   -2.1991   -1.1928 H       1  LIG1        0.0660
     13 C          -0.9356    1.6334    0.0906 C.ar    1  LIG1        0.0336
     14 C           0.2684    2.2846    0.1747 C.ar    1  LIG1       -0.0039
     15 C           0.1336    3.6982    0.1341 C.ar    1  LIG1        0.1359
     16 C          -1.1684    4.1373    0.0226 C.ar    1  LIG1        0.0682
     17 S          -2.2433    2.7681   -0.0573 S.2     1  LIG1       -0.0833
     18 H           1.2026    1.7539    0.2672 H       1  LIG1        0.0666
     19 O           1.1567    4.5882    0.2014 O.3     1  LIG1       -0.4939
     20 C           2.4592    4.0646    0.3697 C.3     1  LIG1        0.0788
     21 H           3.1294    4.9227    0.4178 H       1  LIG1        0.0660
     22 H           2.5427    3.4898    1.2986 H       1  LIG1        0.0660
     23 H           2.7479    3.4292   -0.4748 H       1  LIG1        0.0660
     24 C          -1.6515    5.4981   -0.0304 C.ar    1  LIG1        0.0336
     25 C          -0.9160    6.6536   -0.1145 C.ar    1  LIG1       -0.0039
     26 C          -1.7259    7.8206   -0.1482 C.ar    1  LIG1        0.1359
     27 C          -3.0793    7.5708   -0.0942 C.ar    1  LIG1        0.0682
     28 S          -3.3527    5.8538    0.0252 S.2     1  LIG1       -0.0833
     29 H           0.1614    6.6457   -0.1543 H       1  LIG1        0.0666
     30 O          -1.2641    9.0956   -0.2318 O.3     1  LIG1       -0.4939
     31 C           0.1328    9.2695   -0.3556 C.3     1  LIG1        0.0788
     32 H           0.3011   10.3433   -0.4359 H       1  LIG1        0.0660
     33 H           0.6646    8.8868    0.5228 H       1  LIG1        0.0660
     34 H           0.5204    8.7758   -1.2536 H       1  LIG1        0.0660
     35 C          -4.1695    8.5230   -0.1239 C.ar    1  LIG1        0.0330
     36 C          -4.0993    9.8899   -0.0238 C.ar    1  LIG1       -0.0045
     37 C          -5.3819   10.5118   -0.0927 C.ar    1  LIG1        0.1277
     38 C          -6.4064    9.6244   -0.2417 C.ar    1  LIG1        0.0180
     39 S          -5.8201    8.0042   -0.3129 S.2     1  LIG1       -0.0923
     40 H          -7.4593    9.8462   -0.3145 H       1  LIG1        0.0730
     41 H          -3.1616   10.4086    0.0978 H       1  LIG1        0.0666
     42 O          -5.6268   11.8469   -0.0199 O.3     1  LIG1       -0.4946
     43 C          -4.5102   12.6940    0.1413 C.3     1  LIG1        0.0788
     44 H          -4.8999   13.7115    0.1765 H       1  LIG1        0.0660
     45 H          -3.9732   12.4841    1.0740 H       1  LIG1        0.0660
     46 H          -3.8109   12.6072   -0.6988 H       1  LIG1        0.0660
@<TRIPOS>BOND
     1    34    31    1
     2    12     9    1
     3    46    43    1
     4    23    20    1
     5    32    31    1
     6    10     9    1
     7    31    30    1
     8    31    33    1
     9    40    38    1
    10    39    38   ar
    11    39    35   ar
    12     9     8    1
    13     9    11    1
    14    38    37   ar
    15    30    26    1
    16    29    25    1
    17    26    25   ar
    18    26    27   ar
    19    35    27    1
    20    35    36   ar
    21     8     3    1
    22    25    24   ar
    23    27    28   ar
    24    37    36   ar
    25    37    42    1
    26    17    16   ar
    27    17    13   ar
    28     7     2    1
    29    24    16    1
    30    24    28   ar
    31    36    41    1
    32    42    43    1
    33     3     2   ar
    34     3     4   ar
    35    16    15   ar
    36     2     1   ar
    37    13     4    1
    38    13    14   ar
    39     4     5   ar
    40    15    14   ar
    41    15    19    1
    42    43    44    1
    43    43    45    1
    44     1     6    1
    45     1     5   ar
    46    14    18    1
    47    19    20    1
    48    20    21    1
    49    20    22    1
