@<TRIPOS>MOLECULE
mol_data/opt/cam/geoms/mol2/5al5al-5al5al-.out
 46 49 0 0 0
SMALL
GASTEIGER

@<TRIPOS>ATOM
      1 C          -2.1964   -2.0713    0.0003 C.ar    1  LIG1       -0.0202
      2 C          -0.8373   -2.1176   -0.0003 C.ar    1  LIG1       -0.0123
      3 C          -0.2549   -0.8152   -0.0000 C.ar    1  LIG1        0.1353
      4 C          -1.1828    0.2051    0.0008 C.ar    1  LIG1        0.0676
      5 S          -2.7917   -0.4612    0.0012 S.2     1  LIG1       -0.0924
      6 H          -2.8852   -2.9031    0.0002 H       1  LIG1        0.0695
      7 H          -0.2742   -3.0404   -0.0010 H       1  LIG1        0.0660
      8 O           1.0747   -0.5425   -0.0005 O.3     1  LIG1       -0.4939
      9 C           1.9616   -1.6441   -0.0013 C.3     1  LIG1        0.0788
     10 H           2.9680   -1.2266   -0.0016 H       1  LIG1        0.0660
     11 H           1.8305   -2.2645    0.8922 H       1  LIG1        0.0660
     12 H           1.8298   -2.2638   -0.8952 H       1  LIG1        0.0660
     13 C          -0.9375    1.6322    0.0013 C.ar    1  LIG1        0.0336
     14 C           0.2703    2.2826    0.0010 C.ar    1  LIG1       -0.0039
     15 C           0.1343    3.6965    0.0017 C.ar    1  LIG1        0.1359
     16 C          -1.1717    4.1382    0.0025 C.ar    1  LIG1        0.0682
     17 S          -2.2511    2.7701    0.0024 S.2     1  LIG1       -0.0833
     18 H           1.2083    1.7511    0.0004 H       1  LIG1        0.0666
     19 O           1.1615    4.5844    0.0016 O.3     1  LIG1       -0.4939
     20 C           2.4730    4.0561    0.0009 C.3     1  LIG1        0.0788
     21 H           3.1471    4.9124    0.0009 H       1  LIG1        0.0660
     22 H           2.6609    3.4496    0.8937 H       1  LIG1        0.0660
     23 H           2.6602    3.4504   -0.8926 H       1  LIG1        0.0660
     24 C          -1.6558    5.4995    0.0032 C.ar    1  LIG1        0.0336
     25 C          -0.9209    6.6586    0.0033 C.ar    1  LIG1       -0.0039
     26 C          -1.7320    7.8250    0.0042 C.ar    1  LIG1        0.1359
     27 C          -3.0863    7.5728    0.0048 C.ar    1  LIG1        0.0682
     28 S          -3.3587    5.8513    0.0043 S.2     1  LIG1       -0.0833
     29 H           0.1570    6.6535    0.0028 H       1  LIG1        0.0666
     30 O          -1.2689    9.1023    0.0045 O.3     1  LIG1       -0.4939
     31 C           0.1328    9.2812    0.0040 C.3     1  LIG1        0.0788
     32 H           0.3034   10.3577    0.0043 H       1  LIG1        0.0660
     33 H           0.5935    8.8434    0.8965 H       1  LIG1        0.0660
     34 H           0.5927    8.8442   -0.8893 H       1  LIG1        0.0660
     35 C          -4.1777    8.5241    0.0058 C.ar    1  LIG1        0.0330
     36 C          -4.1042    9.8949    0.0061 C.ar    1  LIG1       -0.0045
     37 C          -5.3902   10.5137    0.0071 C.ar    1  LIG1        0.1277
     38 C          -6.4208    9.6211    0.0075 C.ar    1  LIG1        0.0180
     39 S          -5.8371    7.9984    0.0066 S.2     1  LIG1       -0.0923
     40 H          -7.4769    9.8396    0.0082 H       1  LIG1        0.0730
     41 H          -3.1617   10.4187    0.0057 H       1  LIG1        0.0666
     42 O          -5.6321   11.8515    0.0076 O.3     1  LIG1       -0.4946
     43 C          -4.5083   12.7044    0.0073 C.3     1  LIG1        0.0788
     44 H          -4.8966   13.7231    0.0079 H       1  LIG1        0.0660
     45 H          -3.8876   12.5573    0.8991 H       1  LIG1        0.0660
     46 H          -3.8886   12.5580   -0.8853 H       1  LIG1        0.0660
@<TRIPOS>BOND
     1    12     9    1
     2    23    20    1
     3    34    31    1
     4    46    43    1
     5    10     9    1
     6     9     8    1
     7     9    11    1
     8     7     2    1
     9     8     3    1
    10     2     3   ar
    11     2     1   ar
    12     3     4   ar
    13     6     1    1
    14     1     5   ar
    15    18    14    1
    16     4     5   ar
    17     4    13    1
    18    20    21    1
    19    20    19    1
    20    20    22    1
    21    14    13   ar
    22    14    15   ar
    23    13    17   ar
    24    19    15    1
    25    15    16   ar
    26    17    16   ar
    27    16    24    1
    28    29    25    1
    29    24    25   ar
    30    24    28   ar
    31    25    26   ar
    32    31    32    1
    33    31    30    1
    34    31    33    1
    35    26    30    1
    36    26    27   ar
    37    28    27   ar
    38    27    35    1
    39    41    36    1
    40    35    36   ar
    41    35    39   ar
    42    36    37   ar
    43    39    38   ar
    44    37    38   ar
    45    37    42    1
    46    43    42    1
    47    43    44    1
    48    43    45    1
    49    38    40    1
