@<TRIPOS>MOLECULE
mol_data/opt/cam/geoms/mol2/5al5al-5al5al.out
 46 49 0 0 0
SMALL
GASTEIGER

@<TRIPOS>ATOM
      1 C          -2.1859   -2.0721    0.1518 C.ar    1  LIG1       -0.0202
      2 C          -0.8336   -2.1151    0.0137 C.ar    1  LIG1       -0.0123
      3 C          -0.2545   -0.8115   -0.0152 C.ar    1  LIG1        0.1353
      4 C          -1.1785    0.2055    0.0987 C.ar    1  LIG1        0.0676
      5 S          -2.7778   -0.4641    0.2573 S.2     1  LIG1       -0.0924
      6 H          -2.8706   -2.9057    0.2035 H       1  LIG1        0.0695
      7 H          -0.2732   -3.0362   -0.0649 H       1  LIG1        0.0660
      8 O           1.0681   -0.5337   -0.1421 O.3     1  LIG1       -0.4939
      9 C           1.9439   -1.6275   -0.3323 C.3     1  LIG1        0.0788
     10 H           2.9417   -1.2043   -0.4445 H       1  LIG1        0.0660
     11 H           1.9361   -2.3027    0.5307 H       1  LIG1        0.0660
     12 H           1.6894   -2.1919   -1.2361 H       1  LIG1        0.0660
     13 C          -0.9350    1.6328    0.0933 C.ar    1  LIG1        0.0336
     14 C           0.2698    2.2835    0.1704 C.ar    1  LIG1       -0.0039
     15 C           0.1346    3.6973    0.1389 C.ar    1  LIG1        0.1359
     16 C          -1.1683    4.1371    0.0415 C.ar    1  LIG1        0.0682
     17 S          -2.2439    2.7684   -0.0367 S.2     1  LIG1       -0.0833
     18 H           1.2046    1.7524    0.2516 H       1  LIG1        0.0666
     19 O           1.1583    4.5870    0.2022 O.3     1  LIG1       -0.4939
     20 C           2.4623    4.0625    0.3559 C.3     1  LIG1        0.0788
     21 H           3.1329    4.9203    0.4027 H       1  LIG1        0.0660
     22 H           2.5541    3.4825    1.2807 H       1  LIG1        0.0660
     23 H           2.7433    3.4318   -0.4948 H       1  LIG1        0.0660
     24 C          -1.6518    5.4981    0.0005 C.ar    1  LIG1        0.0336
     25 C          -0.9171    6.6541   -0.0842 C.ar    1  LIG1       -0.0039
     26 C          -1.7271    7.8212   -0.1039 C.ar    1  LIG1        0.1359
     27 C          -3.0800    7.5711   -0.0386 C.ar    1  LIG1        0.0682
     28 S          -3.3523    5.8536    0.0740 S.2     1  LIG1       -0.0833
     29 H           0.1599    6.6463   -0.1342 H       1  LIG1        0.0666
     30 O          -1.2661    9.0966   -0.1849 O.3     1  LIG1       -0.4939
     31 C           0.1296    9.2712   -0.3206 C.3     1  LIG1        0.0788
     32 H           0.2973   10.3454   -0.3965 H       1  LIG1        0.0660
     33 H           0.6694    8.8837    0.5508 H       1  LIG1        0.0660
     34 H           0.5089    8.7825   -1.2249 H       1  LIG1        0.0660
     35 C          -4.1704    8.5235   -0.0528 C.ar    1  LIG1        0.0330
     36 C          -4.0991    9.8898    0.0541 C.ar    1  LIG1       -0.0045
     37 C          -5.3823   10.5121    0.0007 C.ar    1  LIG1        0.1277
     38 C          -6.4082    9.6255   -0.1436 C.ar    1  LIG1        0.0180
     39 S          -5.8228    8.0058   -0.2290 S.2     1  LIG1       -0.0923
     40 H          -7.4618    9.8478   -0.2053 H       1  LIG1        0.0730
     41 H          -3.1603   10.4079    0.1696 H       1  LIG1        0.0666
     42 O          -5.6265   11.8468    0.0831 O.3     1  LIG1       -0.4946
     43 C          -4.5084   12.6930    0.2383 C.3     1  LIG1        0.0788
     44 H          -4.8977   13.7104    0.2827 H       1  LIG1        0.0660
     45 H          -3.9626   12.4780    1.1647 H       1  LIG1        0.0660
     46 H          -3.8171   12.6109   -0.6088 H       1  LIG1        0.0660
@<TRIPOS>BOND
     1    12     9    1
     2    34    31    1
     3    46    43    1
     4    23    20    1
     5    10     9    1
     6    32    31    1
     7     9     8    1
     8     9    11    1
     9    31    30    1
    10    31    33    1
    11    39    38   ar
    12    39    35   ar
    13    40    38    1
    14    30    26    1
    15    38    37   ar
    16     8     3    1
    17    29    25    1
    18    26    25   ar
    19    26    27   ar
    20    25    24   ar
    21     7     2    1
    22    35    27    1
    23    35    36   ar
    24    27    28   ar
    25    17    16   ar
    26    17    13   ar
    27     3     2   ar
    28     3     4   ar
    29    24    16    1
    30    24    28   ar
    31    37    36   ar
    32    37    42    1
    33     2     1   ar
    34    16    15   ar
    35    36    41    1
    36    42    43    1
    37    13     4    1
    38    13    14   ar
    39     4     5   ar
    40    15    14   ar
    41    15    19    1
    42     1     6    1
    43     1     5   ar
    44    14    18    1
    45    19    20    1
    46    43    44    1
    47    43    45    1
    48    20    21    1
    49    20    22    1
