@<TRIPOS>MOLECULE
mol_data/opt/cam/geoms/mol2/5al5al5al-5al.out
 46 49 0 0 0
SMALL
GASTEIGER

@<TRIPOS>ATOM
      1 C          -2.1883   -2.0714    0.1407 C.ar    1  LIG1       -0.0202
      2 C          -0.8340   -2.1150    0.0242 C.ar    1  LIG1       -0.0123
      3 C          -0.2543   -0.8115   -0.0011 C.ar    1  LIG1        0.1353
      4 C          -1.1800    0.2059    0.0940 C.ar    1  LIG1        0.0676
      5 S          -2.7817   -0.4630    0.2301 S.2     1  LIG1       -0.0924
      6 H          -2.8738   -2.9048    0.1851 H       1  LIG1        0.0695
      7 H          -0.2724   -3.0364   -0.0418 H       1  LIG1        0.0660
      8 O           1.0700   -0.5342   -0.1083 O.3     1  LIG1       -0.4939
      9 C           1.9488   -1.6288   -0.2793 C.3     1  LIG1        0.0788
     10 H           2.9483   -1.2061   -0.3773 H       1  LIG1        0.0660
     11 H           1.9269   -2.3001    0.5865 H       1  LIG1        0.0660
     12 H           1.7089   -2.1974   -1.1846 H       1  LIG1        0.0660
     13 C          -0.9363    1.6332    0.0864 C.ar    1  LIG1        0.0336
     14 C           0.2671    2.2843    0.1797 C.ar    1  LIG1       -0.0039
     15 C           0.1325    3.6980    0.1402 C.ar    1  LIG1        0.1359
     16 C          -1.1687    4.1373    0.0205 C.ar    1  LIG1        0.0682
     17 S          -2.2430    2.7682   -0.0688 S.2     1  LIG1       -0.0833
     18 H           1.2006    1.7535    0.2778 H       1  LIG1        0.0666
     19 O           1.1551    4.5879    0.2158 O.3     1  LIG1       -0.4939
     20 C           2.4565    4.0640    0.3922 C.3     1  LIG1        0.0788
     21 H           3.1264    4.9220    0.4461 H       1  LIG1        0.0660
     22 H           2.5337    3.4879    1.3208 H       1  LIG1        0.0660
     23 H           2.7509    3.4298   -0.4513 H       1  LIG1        0.0660
     24 C          -1.6514    5.4981   -0.0338 C.ar    1  LIG1        0.0336
     25 C          -0.9154    6.6538   -0.1112 C.ar    1  LIG1       -0.0039
     26 C          -1.7250    7.8208   -0.1487 C.ar    1  LIG1        0.1359
     27 C          -3.0787    7.5709   -0.1043 C.ar    1  LIG1        0.0682
     28 S          -3.3529    5.8538    0.0107 S.2     1  LIG1       -0.0833
     29 H           0.1623    6.6459   -0.1437 H       1  LIG1        0.0666
     30 O          -1.2626    9.0959   -0.2273 O.3     1  LIG1       -0.4939
     31 C           0.1351    9.2699   -0.3413 C.3     1  LIG1        0.0788
     32 H           0.3040   10.3439   -0.4189 H       1  LIG1        0.0660
     33 H           0.6609    8.8860    0.5401 H       1  LIG1        0.0660
     34 H           0.5288    8.7776   -1.2374 H       1  LIG1        0.0660
     35 C          -4.1687    8.5232   -0.1400 C.ar    1  LIG1        0.0330
     36 C          -4.0991    9.8899   -0.0374 C.ar    1  LIG1       -0.0045
     37 C          -5.3812   10.5119   -0.1142 C.ar    1  LIG1        0.1277
     38 C          -6.4047    9.6248   -0.2715 C.ar    1  LIG1        0.0180
     39 S          -5.8180    8.0047   -0.3410 S.2     1  LIG1       -0.0923
     40 H          -7.4571    9.8468   -0.3511 H       1  LIG1        0.0730
     41 H          -3.1623   10.4085    0.0913 H       1  LIG1        0.0666
     42 O          -5.6266   11.8470   -0.0411 O.3     1  LIG1       -0.4946
     43 C          -4.5112   12.6938    0.1290 C.3     1  LIG1        0.0788
     44 H          -4.9011   13.7113    0.1630 H       1  LIG1        0.0660
     45 H          -3.9806   12.4825    1.0651 H       1  LIG1        0.0660
     46 H          -3.8061   12.6083   -0.7064 H       1  LIG1        0.0660
@<TRIPOS>BOND
     1    34    31    1
     2    12     9    1
     3    46    43    1
     4    23    20    1
     5    32    31    1
     6    10     9    1
     7    40    38    1
     8    31    30    1
     9    31    33    1
    10    39    38   ar
    11    39    35   ar
    12     9     8    1
    13     9    11    1
    14    38    37   ar
    15    30    26    1
    16    26    25   ar
    17    26    27   ar
    18    29    25    1
    19    35    27    1
    20    35    36   ar
    21    37    42    1
    22    37    36   ar
    23    25    24   ar
    24     8     3    1
    25    27    28   ar
    26    17    16   ar
    27    17    13   ar
    28     7     2    1
    29    42    43    1
    30    36    41    1
    31    24    28   ar
    32    24    16    1
    33     3     2   ar
    34     3     4   ar
    35    16    15   ar
    36     2     1   ar
    37    13     4    1
    38    13    14   ar
    39     4     5   ar
    40    43    44    1
    41    43    45    1
    42    15    14   ar
    43    15    19    1
    44     1     6    1
    45     1     5   ar
    46    14    18    1
    47    19    20    1
    48    20    21    1
    49    20    22    1
