@<TRIPOS>MOLECULE
mol_data/opt/cam/geoms/mol2/5al5al-5al-.out
 35 37 0 0 0
SMALL
GASTEIGER

@<TRIPOS>ATOM
      1 C          -2.2177   -1.9941   -0.0852 C.ar    1  LIG1       -0.0202
      2 C          -0.8640   -2.0286    0.0416 C.ar    1  LIG1       -0.0123
      3 C          -0.2910   -0.7219    0.0495 C.ar    1  LIG1        0.1353
      4 C          -1.2205    0.2891   -0.0686 C.ar    1  LIG1        0.0676
      5 S          -2.8178   -0.3899   -0.2056 S.2     1  LIG1       -0.0924
      6 H          -2.8987   -2.8316   -0.1204 H       1  LIG1        0.0695
      7 H          -0.2982   -2.9458    0.1268 H       1  LIG1        0.0660
      8 O           1.0316   -0.4364    0.1608 O.3     1  LIG1       -0.4939
      9 C           1.9136   -1.5228    0.3632 C.3     1  LIG1        0.0788
     10 H           2.9102   -1.0934    0.4622 H       1  LIG1        0.0660
     11 H           1.6675   -2.0738    1.2777 H       1  LIG1        0.0660
     12 H           1.9037   -2.2124   -0.4885 H       1  LIG1        0.0660
     13 C          -0.9841    1.7182   -0.0839 C.ar    1  LIG1        0.0336
     14 C           0.2154    2.3734   -0.1884 C.ar    1  LIG1       -0.0039
     15 C           0.0734    3.7880   -0.1726 C.ar    1  LIG1        0.1359
     16 C          -1.2287    4.2219   -0.0608 C.ar    1  LIG1        0.0682
     17 S          -2.2955    2.8499    0.0566 S.2     1  LIG1       -0.0833
     18 H           1.1517    1.8462   -0.2784 H       1  LIG1        0.0666
     19 O           1.0921    4.6819   -0.2632 O.3     1  LIG1       -0.4939
     20 C           2.3917    4.1625   -0.4602 C.3     1  LIG1        0.0788
     21 H           3.0565    5.0229   -0.5347 H       1  LIG1        0.0660
     22 H           2.7064    3.5371    0.3829 H       1  LIG1        0.0660
     23 H           2.4541    3.5779   -1.3847 H       1  LIG1        0.0660
     24 C          -1.7212    5.5837   -0.0338 C.ar    1  LIG1        0.0330
     25 C          -0.9949    6.7401    0.0988 C.ar    1  LIG1       -0.0045
     26 C          -1.8152    7.9078    0.0833 C.ar    1  LIG1        0.1277
     27 C          -3.1435    7.6336   -0.0580 C.ar    1  LIG1        0.0180
     28 S          -3.4182    5.9364   -0.1879 S.2     1  LIG1       -0.0923
     29 H          -3.9575    8.3403   -0.0940 H       1  LIG1        0.0730
     30 H           0.0783    6.7344    0.2062 H       1  LIG1        0.0666
     31 O          -1.3809    9.1906    0.1967 O.3     1  LIG1       -0.4946
     32 C           0.0087    9.3848    0.3457 C.3     1  LIG1        0.0788
     33 H           0.1615   10.4619    0.4172 H       1  LIG1        0.0660
     34 H           0.3892    8.9082    1.2569 H       1  LIG1        0.0660
     35 H           0.5663    9.0005   -0.5165 H       1  LIG1        0.0660
@<TRIPOS>BOND
     1    23    20    1
     2    21    20    1
     3    35    32    1
     4    12     9    1
     5    20    19    1
     6    20    22    1
     7    18    14    1
     8    19    15    1
     9     5     1   ar
    10     5     4   ar
    11    14    15   ar
    12    14    13   ar
    13    28    27   ar
    14    28    24   ar
    15    15    16   ar
    16     6     1    1
    17    29    27    1
    18     1     2   ar
    19    13     4    1
    20    13    17   ar
    21     4     3   ar
    22    16    24    1
    23    16    17   ar
    24    27    26   ar
    25    24    25   ar
    26     2     3   ar
    27     2     7    1
    28     3     8    1
    29    26    25   ar
    30    26    31    1
    31    25    30    1
    32     8     9    1
    33    31    32    1
    34    32    33    1
    35    32    34    1
    36     9    10    1
    37     9    11    1
