@<TRIPOS>MOLECULE
mol_data/opt/cam/geoms/mol2/5al5al.out
 24 25 0 0 0
SMALL
GASTEIGER

@<TRIPOS>ATOM
      1 C          -2.2329   -1.8666    0.2116 C.ar    1  LIG1       -0.0202
      2 C          -0.8787   -1.9118    0.0971 C.ar    1  LIG1       -0.0123
      3 C          -0.3027   -0.6091   -0.0000 C.ar    1  LIG1        0.1353
      4 C          -1.2300    0.4082    0.0381 C.ar    1  LIG1        0.0676
      5 S          -2.8292   -0.2560    0.2147 S.2     1  LIG1       -0.0924
      6 H          -2.9158   -2.6984    0.3015 H       1  LIG1        0.0695
      7 H          -0.3141   -2.8336    0.0813 H       1  LIG1        0.0660
      8 O           1.0219   -0.3344   -0.1211 O.3     1  LIG1       -0.4939
      9 C           1.9006   -1.4333   -0.2540 C.3     1  LIG1        0.0788
     10 H           2.8985   -1.0136   -0.3790 H       1  LIG1        0.0660
     11 H           1.8888   -2.0684    0.6392 H       1  LIG1        0.0660
     12 H           1.6541   -2.0406   -1.1322 H       1  LIG1        0.0660
     13 C          -0.9914    1.8372   -0.0494 C.ar    1  LIG1        0.0330
     14 C           0.2008    2.5001    0.0851 C.ar    1  LIG1       -0.0045
     15 C           0.0622    3.9135   -0.0616 C.ar    1  LIG1        0.1277
     16 C          -1.2209    4.3071   -0.3024 C.ar    1  LIG1        0.0180
     17 S          -2.2860    2.9536   -0.3696 S.2     1  LIG1       -0.0923
     18 H          -1.5801    5.3141   -0.4448 H       1  LIG1        0.0730
     19 H           1.1262    1.9830    0.2846 H       1  LIG1        0.0666
     20 O           1.0637    4.8275    0.0232 O.3     1  LIG1       -0.4946
     21 C           2.3604    4.3348    0.2824 C.3     1  LIG1        0.0788
     22 H           3.0181    5.2037    0.3106 H       1  LIG1        0.0660
     23 H           2.4115    3.8160    1.2470 H       1  LIG1        0.0660
     24 H           2.7003    3.6539   -0.5069 H       1  LIG1        0.0660
@<TRIPOS>BOND
     1    12     9    1
     2    24    21    1
     3    18    16    1
     4    10     9    1
     5    17    16   ar
     6    17    13   ar
     7    16    15   ar
     8     9     8    1
     9     9    11    1
    10     8     3    1
    11    15    20    1
    12    15    14   ar
    13    13     4    1
    14    13    14   ar
    15     3     4   ar
    16     3     2   ar
    17    20    21    1
    18     4     5   ar
    19     7     2    1
    20    14    19    1
    21     2     1   ar
    22     1     5   ar
    23     1     6    1
    24    21    22    1
    25    21    23    1
