@<TRIPOS>MOLECULE
mol_data/opt/cam/geoms/mol2/5al5al5al.out
 35 37 0 0 0
SMALL
GASTEIGER

@<TRIPOS>ATOM
      1 C          -2.2298   -1.9911    0.0056 C.ar    1  LIG1       -0.0202
      2 C          -0.8705   -2.0313    0.0029 C.ar    1  LIG1       -0.0123
      3 C          -0.2937   -0.7263    0.0017 C.ar    1  LIG1        0.1353
      4 C          -1.2254    0.2901    0.0032 C.ar    1  LIG1        0.0676
      5 S          -2.8314   -0.3831    0.0074 S.2     1  LIG1       -0.0924
      6 H          -2.9150   -2.8258    0.0071 H       1  LIG1        0.0695
      7 H          -0.3031   -2.9514    0.0017 H       1  LIG1        0.0660
      8 O           1.0353   -0.4483   -0.0010 O.3     1  LIG1       -0.4939
      9 C           1.9260   -1.5464   -0.0077 C.3     1  LIG1        0.0788
     10 H           2.9310   -1.1252   -0.0108 H       1  LIG1        0.0660
     11 H           1.8008   -2.1695    0.8849 H       1  LIG1        0.0660
     12 H           1.7932   -2.1648   -0.9024 H       1  LIG1        0.0660
     13 C          -0.9868    1.7188    0.0015 C.ar    1  LIG1        0.0336
     14 C           0.2170    2.3752    0.0169 C.ar    1  LIG1       -0.0039
     15 C           0.0735    3.7895    0.0102 C.ar    1  LIG1        0.1359
     16 C          -1.2332    4.2243   -0.0100 C.ar    1  LIG1        0.0682
     17 S          -2.3053    2.8510   -0.0232 S.2     1  LIG1       -0.0833
     18 H           1.1577    1.8488    0.0330 H       1  LIG1        0.0666
     19 O           1.0970    4.6826    0.0227 O.3     1  LIG1       -0.4939
     20 C           2.4104    4.1609    0.0452 C.3     1  LIG1        0.0788
     21 H           3.0803    5.0204    0.0519 H       1  LIG1        0.0660
     22 H           2.5878    3.5595    0.9437 H       1  LIG1        0.0660
     23 H           2.6153    3.5517   -0.8421 H       1  LIG1        0.0660
     24 C          -1.7278    5.5855   -0.0201 C.ar    1  LIG1        0.0330
     25 C          -0.9992    6.7487   -0.0278 C.ar    1  LIG1       -0.0045
     26 C          -1.8243    7.9130   -0.0367 C.ar    1  LIG1        0.1277
     27 C          -3.1583    7.6309   -0.0359 C.ar    1  LIG1        0.0180
     28 S          -3.4339    5.9290   -0.0233 S.2     1  LIG1       -0.0923
     29 H          -3.9765    8.3337   -0.0417 H       1  LIG1        0.0730
     30 H           0.0791    6.7500   -0.0272 H       1  LIG1        0.0666
     31 O          -1.3887    9.2004   -0.0455 O.3     1  LIG1       -0.4946
     32 C           0.0075    9.4038   -0.0473 C.3     1  LIG1        0.0788
     33 H           0.1598   10.4833   -0.0549 H       1  LIG1        0.0660
     34 H           0.4798    8.9821    0.8479 H       1  LIG1        0.0660
     35 H           0.4794    8.9695   -0.9366 H       1  LIG1        0.0660
@<TRIPOS>BOND
     1    35    32    1
     2    12     9    1
     3    23    20    1
     4    33    32    1
     5    32    31    1
     6    32    34    1
     7    31    26    1
     8    29    27    1
     9    26    27   ar
    10    26    25   ar
    11    27    28   ar
    12    25    30    1
    13    25    24   ar
    14    28    24   ar
    15    17    16   ar
    16    17    13   ar
    17    24    16    1
    18    10     9    1
    19    16    15   ar
    20     9     8    1
    21     9    11    1
    22     8     3    1
    23    13     4    1
    24    13    14   ar
    25     3     2   ar
    26     3     4   ar
    27     7     2    1
    28     2     1   ar
    29     4     5   ar
    30     1     6    1
    31     1     5   ar
    32    15    14   ar
    33    15    19    1
    34    14    18    1
    35    19    20    1
    36    20    21    1
    37    20    22    1
