@<TRIPOS>MOLECULE
mol_data/opt/cam/geoms/mol2/5al5al-5al-5al.out
 46 49 0 0 0
SMALL
GASTEIGER

@<TRIPOS>ATOM
      1 C          -2.1964   -2.0712   -0.0175 C.ar    1  LIG1       -0.0202
      2 C          -0.8373   -2.1176   -0.0083 C.ar    1  LIG1       -0.0123
      3 C          -0.2549   -0.8152   -0.0025 C.ar    1  LIG1        0.1353
      4 C          -1.1828    0.2051   -0.0074 C.ar    1  LIG1        0.0676
      5 S          -2.7916   -0.4612   -0.0195 S.2     1  LIG1       -0.0924
      6 H          -2.8852   -2.9031   -0.0234 H       1  LIG1        0.0695
      7 H          -0.2742   -3.0404   -0.0057 H       1  LIG1        0.0660
      8 O           1.0747   -0.5425    0.0070 O.3     1  LIG1       -0.4939
      9 C           1.9615   -1.6441    0.0123 C.3     1  LIG1        0.0788
     10 H           2.9679   -1.2266    0.0200 H       1  LIG1        0.0660
     11 H           1.8236   -2.2650    0.9044 H       1  LIG1        0.0660
     12 H           1.8365   -2.2632   -0.8830 H       1  LIG1        0.0660
     13 C          -0.9375    1.6322   -0.0037 C.ar    1  LIG1        0.0336
     14 C           0.2703    2.2826    0.0040 C.ar    1  LIG1       -0.0039
     15 C           0.1343    3.6965    0.0057 C.ar    1  LIG1        0.1359
     16 C          -1.1717    4.1382   -0.0007 C.ar    1  LIG1        0.0682
     17 S          -2.2511    2.7701   -0.0088 S.2     1  LIG1       -0.0833
     18 H           1.2083    1.7511    0.0081 H       1  LIG1        0.0666
     19 O           1.1615    4.5844    0.0127 O.3     1  LIG1       -0.4939
     20 C           2.4730    4.0561    0.0191 C.3     1  LIG1        0.0788
     21 H           3.1471    4.9123    0.0243 H       1  LIG1        0.0660
     22 H           2.6555    3.4484    0.9122 H       1  LIG1        0.0660
     23 H           2.6654    3.4515   -0.8740 H       1  LIG1        0.0660
     24 C          -1.6558    5.4995   -0.0010 C.ar    1  LIG1        0.0336
     25 C          -0.9209    6.6587    0.0056 C.ar    1  LIG1       -0.0039
     26 C          -1.7319    7.8251    0.0029 C.ar    1  LIG1        0.1359
     27 C          -3.0863    7.5728   -0.0057 C.ar    1  LIG1        0.0682
     28 S          -3.3586    5.8513   -0.0105 S.2     1  LIG1       -0.0833
     29 H           0.1570    6.6535    0.0120 H       1  LIG1        0.0666
     30 O          -1.2689    9.1024    0.0081 O.3     1  LIG1       -0.4939
     31 C           0.1328    9.2812    0.0156 C.3     1  LIG1        0.0788
     32 H           0.3035   10.3577    0.0183 H       1  LIG1        0.0660
     33 H           0.5885    8.8423    0.9102 H       1  LIG1        0.0660
     34 H           0.5977    8.8452   -0.8756 H       1  LIG1        0.0660
     35 C          -4.1776    8.5242   -0.0106 C.ar    1  LIG1        0.0330
     36 C          -4.1041    9.8950   -0.0058 C.ar    1  LIG1       -0.0045
     37 C          -5.3901   10.5138   -0.0131 C.ar    1  LIG1        0.1277
     38 C          -6.4206    9.6212   -0.0233 C.ar    1  LIG1        0.0180
     39 S          -5.8370    7.9984   -0.0242 S.2     1  LIG1       -0.0923
     40 H          -7.4768    9.8397   -0.0301 H       1  LIG1        0.0730
     41 H          -3.1617   10.4188    0.0027 H       1  LIG1        0.0666
     42 O          -5.6320   11.8516   -0.0107 O.3     1  LIG1       -0.4946
     43 C          -4.5083   12.7044    0.0010 C.3     1  LIG1        0.0788
     44 H          -4.8966   13.7232    0.0016 H       1  LIG1        0.0660
     45 H          -3.8950   12.5545    0.8975 H       1  LIG1        0.0660
     46 H          -3.8812   12.5608   -0.8869 H       1  LIG1        0.0660
@<TRIPOS>BOND
     1    46    43    1
     2    12     9    1
     3    34    31    1
     4    23    20    1
     5    40    38    1
     6    39    38   ar
     7    39    35   ar
     8     6     1    1
     9    38    37   ar
    10     5     1   ar
    11     5     4   ar
    12     1     2   ar
    13    37    42    1
    14    37    36   ar
    15    42    43    1
    16    35    36   ar
    17    35    27    1
    18    28    27   ar
    19    28    24   ar
    20    17    13   ar
    21    17    16   ar
    22     2     7    1
    23     2     3   ar
    24     4    13    1
    25     4     3   ar
    26    36    41    1
    27    27    26   ar
    28    13    14   ar
    29     3     8    1
    30    24    16    1
    31    24    25   ar
    32    16    15   ar
    33    43    44    1
    34    43    45    1
    35    26    25   ar
    36    26    30    1
    37    14    15   ar
    38    14    18    1
    39    25    29    1
    40    15    19    1
    41     8     9    1
    42    30    31    1
    43     9    10    1
    44     9    11    1
    45    19    20    1
    46    31    32    1
    47    31    33    1
    48    20    21    1
    49    20    22    1
