@<TRIPOS>MOLECULE
mol_data/opt/cam/geoms/mol2/5al5al5al-.out
 35 37 0 0 0
SMALL
GASTEIGER

@<TRIPOS>ATOM
      1 C          -2.2298   -1.9911    0.0068 C.ar    1  LIG1       -0.0202
      2 C          -0.8706   -2.0313    0.0040 C.ar    1  LIG1       -0.0123
      3 C          -0.2937   -0.7263    0.0025 C.ar    1  LIG1        0.1353
      4 C          -1.2254    0.2901    0.0040 C.ar    1  LIG1        0.0676
      5 S          -2.8314   -0.3831    0.0084 S.2     1  LIG1       -0.0924
      6 H          -2.9150   -2.8258    0.0085 H       1  LIG1        0.0695
      7 H          -0.3031   -2.9514    0.0029 H       1  LIG1        0.0660
      8 O           1.0352   -0.4483   -0.0004 O.3     1  LIG1       -0.4939
      9 C           1.9260   -1.5464   -0.0071 C.3     1  LIG1        0.0788
     10 H           2.9309   -1.1252   -0.0105 H       1  LIG1        0.0660
     11 H           1.8010   -2.1694    0.8855 H       1  LIG1        0.0660
     12 H           1.7930   -2.1648   -0.9018 H       1  LIG1        0.0660
     13 C          -0.9868    1.7189    0.0021 C.ar    1  LIG1        0.0336
     14 C           0.2170    2.3752    0.0167 C.ar    1  LIG1       -0.0039
     15 C           0.0735    3.7896    0.0098 C.ar    1  LIG1        0.1359
     16 C          -1.2332    4.2243   -0.0098 C.ar    1  LIG1        0.0682
     17 S          -2.3053    2.8510   -0.0210 S.2     1  LIG1       -0.0833
     18 H           1.1577    1.8489    0.0321 H       1  LIG1        0.0666
     19 O           1.0971    4.6826    0.0215 O.3     1  LIG1       -0.4939
     20 C           2.4104    4.1609    0.0384 C.3     1  LIG1        0.0788
     21 H           3.0804    5.0204    0.0435 H       1  LIG1        0.0660
     22 H           2.5913    3.5584    0.9355 H       1  LIG1        0.0660
     23 H           2.6120    3.5527   -0.8504 H       1  LIG1        0.0660
     24 C          -1.7278    5.5855   -0.0211 C.ar    1  LIG1        0.0330
     25 C          -0.9993    6.7488   -0.0115 C.ar    1  LIG1       -0.0045
     26 C          -1.8244    7.9131   -0.0278 C.ar    1  LIG1        0.1277
     27 C          -3.1582    7.6309   -0.0495 C.ar    1  LIG1        0.0180
     28 S          -3.4337    5.9289   -0.0505 S.2     1  LIG1       -0.0923
     29 H          -3.9763    8.3336   -0.0647 H       1  LIG1        0.0730
     30 H           0.0788    6.7502    0.0067 H       1  LIG1        0.0666
     31 O          -1.3889    9.2005   -0.0228 O.3     1  LIG1       -0.4946
     32 C           0.0072    9.4041   -0.0046 C.3     1  LIG1        0.0788
     33 H           0.1594   10.4836   -0.0058 H       1  LIG1        0.0660
     34 H           0.4672    8.9788    0.8952 H       1  LIG1        0.0660
     35 H           0.4912    8.9733   -0.8892 H       1  LIG1        0.0660
@<TRIPOS>BOND
     1    12     9    1
     2    35    32    1
     3    23    20    1
     4    29    27    1
     5    28    27   ar
     6    28    24   ar
     7    27    26   ar
     8    26    31    1
     9    26    25   ar
    10    31    32    1
    11    24    25   ar
    12    24    16    1
    13    17    16   ar
    14    17    13   ar
    15    25    30    1
    16    10     9    1
    17    16    15   ar
    18     9     8    1
    19     9    11    1
    20    33    32    1
    21    32    34    1
    22     8     3    1
    23    13     4    1
    24    13    14   ar
    25     3     4   ar
    26     3     2   ar
    27     7     2    1
    28     4     5   ar
    29     2     1   ar
    30     1     5   ar
    31     1     6    1
    32    15    14   ar
    33    15    19    1
    34    14    18    1
    35    19    20    1
    36    20    21    1
    37    20    22    1
