@<TRIPOS>MOLECULE
mol_data/opt/cam/geoms/mol2/5al5al-5al-5al-.out
 46 49 0 0 0
SMALL
GASTEIGER

@<TRIPOS>ATOM
      1 C          -2.1850   -2.0717   -0.1689 C.ar    1  LIG1       -0.0202
      2 C          -0.8331   -2.1150   -0.0276 C.ar    1  LIG1       -0.0123
      3 C          -0.2541   -0.8114    0.0062 C.ar    1  LIG1        0.1353
      4 C          -1.1779    0.2058   -0.1073 C.ar    1  LIG1        0.0676
      5 S          -2.7768   -0.4634   -0.2715 S.2     1  LIG1       -0.0924
      6 H          -2.8696   -2.9052   -0.2244 H       1  LIG1        0.0695
      7 H          -0.2728   -3.0363    0.0500 H       1  LIG1        0.0660
      8 O           1.0681   -0.5339    0.1370 O.3     1  LIG1       -0.4939
      9 C           1.9436   -1.6282    0.3265 C.3     1  LIG1        0.0788
     10 H           2.9411   -1.2053    0.4422 H       1  LIG1        0.0660
     11 H           1.6868   -2.1951    1.2282 H       1  LIG1        0.0660
     12 H           1.9378   -2.3012   -0.5383 H       1  LIG1        0.0660
     13 C          -0.9344    1.6331   -0.0974 C.ar    1  LIG1        0.0336
     14 C           0.2705    2.2841   -0.1697 C.ar    1  LIG1       -0.0039
     15 C           0.1351    3.6979   -0.1349 C.ar    1  LIG1        0.1359
     16 C          -1.1681    4.1373   -0.0395 C.ar    1  LIG1        0.0682
     17 S          -2.2438    2.7682    0.0322 S.2     1  LIG1       -0.0833
     18 H           1.2056    1.7533   -0.2500 H       1  LIG1        0.0666
     19 O           1.1588    4.5878   -0.1931 O.3     1  LIG1       -0.4939
     20 C           2.4633    4.0639   -0.3451 C.3     1  LIG1        0.0788
     21 H           3.1339    4.9218   -0.3881 H       1  LIG1        0.0660
     22 H           2.7423    3.4309    0.5045 H       1  LIG1        0.0660
     23 H           2.5573    3.4863   -1.2713 H       1  LIG1        0.0660
     24 C          -1.6518    5.4981    0.0039 C.ar    1  LIG1        0.0336
     25 C          -0.9173    6.6539    0.0935 C.ar    1  LIG1       -0.0039
     26 C          -1.7275    7.8209    0.1142 C.ar    1  LIG1        0.1359
     27 C          -3.0803    7.5709    0.0450 C.ar    1  LIG1        0.0682
     28 S          -3.3522    5.8537   -0.0727 S.2     1  LIG1       -0.0833
     29 H           0.1595    6.6460    0.1459 H       1  LIG1        0.0666
     30 O          -1.2668    9.0962    0.1997 O.3     1  LIG1       -0.4939
     31 C           0.1286    9.2704    0.3394 C.3     1  LIG1        0.0788
     32 H           0.2961   10.3444    0.4186 H       1  LIG1        0.0660
     33 H           0.5055    8.7793    1.2434 H       1  LIG1        0.0660
     34 H           0.6707    8.8852   -0.5316 H       1  LIG1        0.0660
     35 C          -4.1707    8.5232    0.0591 C.ar    1  LIG1        0.0330
     36 C          -4.0992    9.8898   -0.0440 C.ar    1  LIG1       -0.0045
     37 C          -5.3825   10.5119    0.0079 C.ar    1  LIG1        0.1277
     38 C          -6.4088    9.6249    0.1472 C.ar    1  LIG1        0.0180
     39 S          -5.8235    8.0049    0.2299 S.2     1  LIG1       -0.0923
     40 H          -7.4625    9.8469    0.2069 H       1  LIG1        0.0730
     41 H          -3.1601   10.4081   -0.1558 H       1  LIG1        0.0666
     42 O          -5.6266   11.8468   -0.0715 O.3     1  LIG1       -0.4946
     43 C          -4.5081   12.6934   -0.2221 C.3     1  LIG1        0.0788
     44 H          -4.8974   13.7108   -0.2649 H       1  LIG1        0.0660
     45 H          -3.8187   12.6091    0.6264 H       1  LIG1        0.0660
     46 H          -3.9602   12.4806   -1.1478 H       1  LIG1        0.0660
@<TRIPOS>BOND
     1    23    20    1
     2    46    43    1
     3    12     9    1
     4    34    31    1
     5    21    20    1
     6    20    19    1
     7    20    22    1
     8     5     1   ar
     9     5     4   ar
    10    44    43    1
    11    18    14    1
    12     6     1    1
    13    43    42    1
    14    43    45    1
    15    19    15    1
    16    14    15   ar
    17    14    13   ar
    18     1     2   ar
    19    41    36    1
    20    15    16   ar
    21     4    13    1
    22     4     3   ar
    23    13    17   ar
    24    28    24   ar
    25    28    27   ar
    26    42    37    1
    27    36    37   ar
    28    36    35   ar
    29    16    24    1
    30    16    17   ar
    31     2     3   ar
    32     2     7    1
    33    24    25   ar
    34     3     8    1
    35    37    38   ar
    36    27    35    1
    37    27    26   ar
    38    35    39   ar
    39    25    26   ar
    40    25    29    1
    41    26    30    1
    42     8     9    1
    43    38    40    1
    44    38    39   ar
    45    30    31    1
    46     9    10    1
    47     9    11    1
    48    31    32    1
    49    31    33    1
