@<TRIPOS>MOLECULE
mol_data/opt/cam/geoms/mol2/5al5al5al5al.out
 46 49 0 0 0
SMALL
GASTEIGER

@<TRIPOS>ATOM
      1 C          -2.1868   -2.0715    0.1520 C.ar    1  LIG1       -0.0202
      2 C          -0.8332   -2.1149    0.0271 C.ar    1  LIG1       -0.0123
      3 C          -0.2539   -0.8114   -0.0018 C.ar    1  LIG1        0.1353
      4 C          -1.1790    0.2059    0.0990 C.ar    1  LIG1        0.0676
      5 S          -2.7798   -0.4631    0.2449 S.2     1  LIG1       -0.0924
      6 H          -2.8719   -2.9050    0.2006 H       1  LIG1        0.0695
      7 H          -0.2721   -3.0363   -0.0423 H       1  LIG1        0.0660
      8 O           1.0698   -0.5340   -0.1171 O.3     1  LIG1       -0.4939
      9 C           1.9476   -1.6287   -0.2934 C.3     1  LIG1        0.0788
     10 H           2.9465   -1.2059   -0.3973 H       1  LIG1        0.0660
     11 H           1.9308   -2.2999    0.5726 H       1  LIG1        0.0660
     12 H           1.7023   -2.1972   -1.1972 H       1  LIG1        0.0660
     13 C          -0.9356    1.6333    0.0898 C.ar    1  LIG1        0.0336
     14 C           0.2684    2.2844    0.1757 C.ar    1  LIG1       -0.0039
     15 C           0.1335    3.6980    0.1371 C.ar    1  LIG1        0.1359
     16 C          -1.1685    4.1373    0.0253 C.ar    1  LIG1        0.0682
     17 S          -2.2433    2.7682   -0.0573 S.2     1  LIG1       -0.0833
     18 H           1.2024    1.7536    0.2680 H       1  LIG1        0.0666
     19 O           1.1565    4.5880    0.2063 O.3     1  LIG1       -0.4939
     20 C           2.4589    4.0643    0.3749 C.3     1  LIG1        0.0788
     21 H           3.1290    4.9223    0.4248 H       1  LIG1        0.0660
     22 H           2.5417    3.4881    1.3030 H       1  LIG1        0.0660
     23 H           2.7483    3.4301   -0.4704 H       1  LIG1        0.0660
     24 C          -1.6516    5.4981   -0.0261 C.ar    1  LIG1        0.0336
     25 C          -0.9161    6.6538   -0.1082 C.ar    1  LIG1       -0.0039
     26 C          -1.7260    7.8207   -0.1407 C.ar    1  LIG1        0.1359
     27 C          -3.0795    7.5708   -0.0879 C.ar    1  LIG1        0.0682
     28 S          -3.3528    5.8537    0.0290 S.2     1  LIG1       -0.0833
     29 H           0.1613    6.6459   -0.1473 H       1  LIG1        0.0666
     30 O          -1.2642    9.0958   -0.2223 O.3     1  LIG1       -0.4939
     31 C           0.1328    9.2699   -0.3448 C.3     1  LIG1        0.0788
     32 H           0.3012   10.3439   -0.4235 H       1  LIG1        0.0660
     33 H           0.6639    8.8860    0.5335 H       1  LIG1        0.0660
     34 H           0.5211    8.7775   -1.2432 H       1  LIG1        0.0660
     35 C          -4.1696    8.5230   -0.1169 C.ar    1  LIG1        0.0330
     36 C          -4.0995    9.8898   -0.0150 C.ar    1  LIG1       -0.0045
     37 C          -5.3821   10.5117   -0.0838 C.ar    1  LIG1        0.1277
     38 C          -6.4065    9.6245   -0.2343 C.ar    1  LIG1        0.0180
     39 S          -5.8202    8.0044   -0.3071 S.2     1  LIG1       -0.0923
     40 H          -7.4594    9.8464   -0.3073 H       1  LIG1        0.0730
     41 H          -3.1619   10.4085    0.1075 H       1  LIG1        0.0666
     42 O          -5.6271   11.8468   -0.0095 O.3     1  LIG1       -0.4946
     43 C          -4.5107   12.6937    0.1540 C.3     1  LIG1        0.0788
     44 H          -4.9005   13.7111    0.1904 H       1  LIG1        0.0660
     45 H          -3.9745   12.4823    1.0868 H       1  LIG1        0.0660
     46 H          -3.8107   12.6083   -0.6857 H       1  LIG1        0.0660
@<TRIPOS>BOND
     1    34    31    1
     2    12     9    1
     3    46    43    1
     4    23    20    1
     5    32    31    1
     6    10     9    1
     7    31    30    1
     8    31    33    1
     9    40    38    1
    10    39    38   ar
    11    39    35   ar
    12     9     8    1
    13     9    11    1
    14    38    37   ar
    15    30    26    1
    16    29    25    1
    17    26    25   ar
    18    26    27   ar
    19     8     3    1
    20    35    27    1
    21    35    36   ar
    22    25    24   ar
    23    27    28   ar
    24    37    36   ar
    25    37    42    1
    26    17    16   ar
    27    17    13   ar
    28     7     2    1
    29    24    16    1
    30    24    28   ar
    31    36    41    1
    32    42    43    1
    33     3     2   ar
    34     3     4   ar
    35    16    15   ar
    36     2     1   ar
    37    13     4    1
    38    13    14   ar
    39     4     5   ar
    40    15    14   ar
    41    15    19    1
    42     1     6    1
    43     1     5   ar
    44    43    44    1
    45    43    45    1
    46    14    18    1
    47    19    20    1
    48    20    21    1
    49    20    22    1
