@<TRIPOS>MOLECULE
mol_data/opt/cam/geoms/mol2/5da5da-5da5da.out
 34 37 0 0 0
SMALL
GASTEIGER

@<TRIPOS>ATOM
      1 C          -2.0676   -1.9119    0.1989 C.ar    1  LIG1       -0.0063
      2 C          -0.7371   -1.9287   -0.1241 C.ar    1  LIG1        0.0594
      3 C          -0.1628   -0.6242   -0.1859 C.ar    1  LIG1       -0.0290
      4 C          -1.0700    0.3600    0.0949 C.ar    1  LIG1        0.0284
      5 S          -2.6374   -0.3198    0.4462 S.2     1  LIG1       -0.0948
      6 H          -2.7272   -2.7604    0.3068 H       1  LIG1        0.0706
      7 N           0.5696   -4.1090   -0.5980 N.1     1  LIG1       -0.1909
      8 C          -0.0127   -3.1332   -0.3843 C.1     1  LIG1        0.0997
      9 H           0.8732   -0.4416   -0.4359 H       1  LIG1        0.0642
     10 C          -0.8537    1.7962    0.1260 C.ar    1  LIG1        0.0439
     11 C           0.3144    2.4876    0.3827 C.ar    1  LIG1        0.0676
     12 C           0.1621    3.9021    0.3362 C.ar    1  LIG1       -0.0284
     13 C          -1.1165    4.2898    0.0477 C.ar    1  LIG1        0.0290
     14 S          -2.1415    2.9026   -0.2016 S.2     1  LIG1       -0.0859
     15 N           2.5618    1.3432    0.9445 N.1     1  LIG1       -0.1908
     16 C           1.5548    1.8563    0.6976 C.1     1  LIG1        0.1003
     17 H           0.9753    4.5882    0.5287 H       1  LIG1        0.0642
     18 C          -1.6449    5.6363   -0.0684 C.ar    1  LIG1        0.0439
     19 C          -0.9744    6.8017   -0.3863 C.ar    1  LIG1        0.0676
     20 C          -1.8139    7.9511   -0.4194 C.ar    1  LIG1       -0.0284
     21 C          -3.1184    7.6659   -0.1315 C.ar    1  LIG1        0.0290
     22 S          -3.3181    5.9707    0.2169 S.2     1  LIG1       -0.0859
     23 N           1.5511    6.8978   -0.9230 N.1     1  LIG1       -0.1908
     24 C           0.4191    6.8562   -0.6874 C.1     1  LIG1        0.1003
     25 H          -1.4497    8.9393   -0.6647 H       1  LIG1        0.0642
     26 C          -4.2507    8.5753   -0.0810 C.ar    1  LIG1        0.0433
     27 C          -4.2519    9.9291    0.1916 C.ar    1  LIG1        0.0670
     28 C          -5.5566   10.5116    0.1540 C.ar    1  LIG1       -0.0367
     29 C          -6.5198    9.6026   -0.1369 C.ar    1  LIG1       -0.0225
     30 S          -5.8647    8.0296   -0.3897 S.2     1  LIG1       -0.0948
     31 H          -7.5842    9.7645   -0.2235 H       1  LIG1        0.0694
     32 N          -2.1276   11.2955    0.7337 N.1     1  LIG1       -0.1908
     33 C          -3.0783   10.6797    0.4973 C.1     1  LIG1        0.1003
     34 H          -5.7425   11.5599    0.3463 H       1  LIG1        0.0636
@<TRIPOS>BOND
     1    23    24    3
     2    24    19    1
     3    25    20    1
     4     7     8    3
     5     9     3    1
     6    20    19   ar
     7    20    21   ar
     8    30    29   ar
     9    30    26   ar
    10    19    18   ar
    11     8     2    1
    12    31    29    1
    13    14    13   ar
    14    14    10   ar
    15     3     2   ar
    16     3     4   ar
    17    29    28   ar
    18    21    26    1
    19    21    22   ar
    20     2     1   ar
    21    26    27   ar
    22    18    13    1
    23    18    22   ar
    24    13    12   ar
    25     4    10    1
    26     4     5   ar
    27    10    11   ar
    28    28    27   ar
    29    28    34    1
    30    27    33    1
    31     1     6    1
    32     1     5   ar
    33    12    11   ar
    34    12    17    1
    35    11    16    1
    36    33    32    3
    37    16    15    3
