@<TRIPOS>MOLECULE
mol_data/opt/cam/geoms/mol2/5da5da-.out
 18 19 0 0 0
SMALL
GASTEIGER

@<TRIPOS>ATOM
      1 C          -2.1119   -1.7918    0.0000 C.ar    1  LIG1       -0.0063
      2 C          -0.7437   -1.7986   -0.0003 C.ar    1  LIG1        0.0594
      3 C          -0.1784   -0.4883    0.0001 C.ar    1  LIG1       -0.0290
      4 C          -1.1300    0.4957    0.0007 C.ar    1  LIG1        0.0284
      5 S          -2.7319   -0.1996    0.0009 S.2     1  LIG1       -0.0948
      6 H          -2.7743   -2.6449   -0.0001 H       1  LIG1        0.0706
      7 N           0.6523   -3.9753   -0.0016 N.1     1  LIG1       -0.1909
      8 C           0.0300   -3.0006   -0.0010 C.1     1  LIG1        0.0997
      9 H           0.8870   -0.3070   -0.0001 H       1  LIG1        0.0642
     10 C          -0.9471    1.9401    0.0013 C.ar    1  LIG1        0.0432
     11 C           0.2255    2.6721    0.0015 C.ar    1  LIG1        0.0670
     12 C           0.0140    4.0866    0.0020 C.ar    1  LIG1       -0.0367
     13 C          -1.3007    4.4134    0.0023 C.ar    1  LIG1       -0.0225
     14 S          -2.3069    3.0153    0.0018 S.2     1  LIG1       -0.0948
     15 H          -1.7449    5.3978    0.0027 H       1  LIG1        0.0694
     16 N           2.5995    1.6545    0.0010 N.1     1  LIG1       -0.1908
     17 C           1.5334    2.1053    0.0012 C.1     1  LIG1        0.1003
     18 H           0.8238    4.8039    0.0023 H       1  LIG1        0.0636
@<TRIPOS>BOND
     1     7     8    3
     2     8     2    1
     3     2     1   ar
     4     2     3   ar
     5     9     3    1
     6     6     1    1
     7     1     5   ar
     8     3     4   ar
     9     4     5   ar
    10     4    10    1
    11    16    17    3
    12    17    11    1
    13    10    11   ar
    14    10    14   ar
    15    11    12   ar
    16    14    13   ar
    17    12    13   ar
    18    12    18    1
    19    13    15    1
