@<TRIPOS>MOLECULE
mol_data/opt/cam/geoms/mol2/5da5da5da-5da-.out
 34 37 0 0 0
SMALL
GASTEIGER

@<TRIPOS>ATOM
      1 C          -2.0807   -1.8945   -0.2177 C.ar    1  LIG1       -0.0063
      2 C          -0.7228   -1.8984   -0.3936 C.ar    1  LIG1        0.0594
      3 C          -0.1447   -0.5981   -0.2921 C.ar    1  LIG1       -0.0290
      4 C          -1.0769    0.3699   -0.0376 C.ar    1  LIG1        0.0284
      5 S          -2.6737   -0.3210    0.0870 S.2     1  LIG1       -0.0948
      6 H          -2.7484   -2.7429   -0.2483 H       1  LIG1        0.0706
      7 N           0.6273   -4.0479   -0.8859 N.1     1  LIG1       -0.1909
      8 C           0.0254   -3.0860   -0.6639 C.1     1  LIG1        0.0997
      9 H           0.9125   -0.4059   -0.4126 H       1  LIG1        0.0642
     10 C          -0.8645    1.7974    0.1287 C.ar    1  LIG1        0.0439
     11 C           0.2680    2.4558    0.5669 C.ar    1  LIG1        0.0676
     12 C           0.1227    3.8710    0.6142 C.ar    1  LIG1       -0.0284
     13 C          -1.1157    4.2919    0.2173 C.ar    1  LIG1        0.0290
     14 S          -2.1070    2.9378   -0.2526 S.2     1  LIG1       -0.0859
     15 N           2.4371    1.2502    1.2869 N.1     1  LIG1       -0.1908
     16 C           1.4648    1.7904    0.9687 C.1     1  LIG1        0.1003
     17 H           0.9103    4.5323    0.9483 H       1  LIG1        0.0642
     18 C          -1.6275    5.6485    0.1498 C.ar    1  LIG1        0.0439
     19 C          -0.9251    6.8300    0.0098 C.ar    1  LIG1        0.0676
     20 C          -1.7543    7.9870   -0.0138 C.ar    1  LIG1       -0.0284
     21 C          -3.0835    7.6919    0.0973 C.ar    1  LIG1        0.0290
     22 S          -3.3244    5.9726    0.2435 S.2     1  LIG1       -0.0859
     23 N           1.6490    6.9507   -0.1764 N.1     1  LIG1       -0.1908
     24 C           0.4956    6.8985   -0.1018 C.1     1  LIG1        0.1003
     25 H          -1.3625    8.9900   -0.1121 H       1  LIG1        0.0642
     26 C          -4.2134    8.6062    0.1020 C.ar    1  LIG1        0.0433
     27 C          -4.3059    9.8586   -0.4726 C.ar    1  LIG1        0.0670
     28 C          -5.5760   10.4815   -0.2687 C.ar    1  LIG1       -0.0367
     29 C          -6.4251    9.7013    0.4448 C.ar    1  LIG1       -0.0225
     30 S          -5.6976    8.2078    0.9000 S.2     1  LIG1       -0.0948
     31 H          -7.4420    9.9178    0.7376 H       1  LIG1        0.0694
     32 N          -2.3980   10.9830   -1.8030 N.1     1  LIG1       -0.1908
     33 C          -3.2533   10.4743   -1.2123 C.1     1  LIG1        0.1003
     34 H          -5.8227   11.4622   -0.6530 H       1  LIG1        0.0636
@<TRIPOS>BOND
     1    32    33    3
     2    33    27    1
     3     7     8    3
     4     8     2    1
     5    34    28    1
     6    27    28   ar
     7    27    26   ar
     8     9     3    1
     9     2     3   ar
    10     2     1   ar
    11     3     4   ar
    12    28    29   ar
    13    14    10   ar
    14    14    13   ar
    15     6     1    1
    16     1     5   ar
    17    23    24    3
    18    25    20    1
    19    24    19    1
    20     4     5   ar
    21     4    10    1
    22    20    19   ar
    23    20    21   ar
    24    19    18   ar
    25    21    26    1
    26    21    22   ar
    27    26    30   ar
    28    10    11   ar
    29    18    13    1
    30    18    22   ar
    31    13    12   ar
    32    29    31    1
    33    29    30   ar
    34    11    12   ar
    35    11    16    1
    36    12    17    1
    37    16    15    3
