@<TRIPOS>MOLECULE
mol_data/opt/cam/geoms/mol2/5da5da5da-5da.out
 34 37 0 0 0
SMALL
GASTEIGER

@<TRIPOS>ATOM
      1 C          -2.0661   -1.9099    0.2329 C.ar    1  LIG1       -0.0063
      2 C          -0.7363   -1.9295   -0.0926 C.ar    1  LIG1        0.0594
      3 C          -0.1622   -0.6255   -0.1670 C.ar    1  LIG1       -0.0290
      4 C          -1.0691    0.3611    0.1067 C.ar    1  LIG1        0.0284
      5 S          -2.6357   -0.3158    0.4671 S.2     1  LIG1       -0.0948
      6 H          -2.7254   -2.7575    0.3496 H       1  LIG1        0.0706
      7 N           0.5699   -4.1137   -0.5495 N.1     1  LIG1       -0.1909
      8 C          -0.0122   -3.1361   -0.3433 C.1     1  LIG1        0.0997
      9 H           0.8732   -0.4450   -0.4207 H       1  LIG1        0.0642
     10 C          -0.8529    1.7975    0.1245 C.ar    1  LIG1        0.0439
     11 C           0.3156    2.4913    0.3728 C.ar    1  LIG1        0.0676
     12 C           0.1630    3.9053    0.3141 C.ar    1  LIG1       -0.0284
     13 C          -1.1162    4.2903    0.0246 C.ar    1  LIG1        0.0290
     14 S          -2.1415    2.9008   -0.2104 S.2     1  LIG1       -0.0859
     15 N           2.5643    1.3522    0.9404 N.1     1  LIG1       -0.1908
     16 C           1.5567    1.8630    0.6909 C.1     1  LIG1        0.1003
     17 H           0.9765    4.5932    0.4989 H       1  LIG1        0.0642
     18 C          -1.6450    5.6356   -0.1024 C.ar    1  LIG1        0.0439
     19 C          -0.9753    6.7983   -0.4321 C.ar    1  LIG1        0.0676
     20 C          -1.8150    7.9472   -0.4737 C.ar    1  LIG1       -0.0284
     21 C          -3.1189    7.6644   -0.1807 C.ar    1  LIG1        0.0290
     22 S          -3.3177    5.9724    0.1831 S.2     1  LIG1       -0.0859
     23 N           1.5491    6.8898   -0.9745 N.1     1  LIG1       -0.1908
     24 C           0.4176    6.8502   -0.7364 C.1     1  LIG1        0.1003
     25 H          -1.4515    8.9332   -0.7286 H       1  LIG1        0.0642
     26 C          -4.2513    8.5741   -0.1361 C.ar    1  LIG1        0.0433
     27 C          -4.2522    9.9302    0.1244 C.ar    1  LIG1        0.0670
     28 C          -5.5569   10.5123    0.0841 C.ar    1  LIG1       -0.0367
     29 C          -6.5206    9.6005   -0.1968 C.ar    1  LIG1       -0.0225
     30 S          -5.8658    8.0254   -0.4368 S.2     1  LIG1       -0.0948
     31 H          -7.5852    9.7615   -0.2828 H       1  LIG1        0.0694
     32 N          -2.1269   11.3017    0.6502 N.1     1  LIG1       -0.1908
     33 C          -3.0781   10.6837    0.4211 C.1     1  LIG1        0.1003
     34 H          -5.7427   11.5621    0.2675 H       1  LIG1        0.0636
@<TRIPOS>BOND
     1    23    24    3
     2    24    19    1
     3    25    20    1
     4     7     8    3
     5    20    19   ar
     6    20    21   ar
     7    30    29   ar
     8    30    26   ar
     9    19    18   ar
    10     9     3    1
    11     8     2    1
    12    31    29    1
    13    14    13   ar
    14    14    10   ar
    15    29    28   ar
    16    21    26    1
    17    21    22   ar
    18     3     2   ar
    19     3     4   ar
    20    26    27   ar
    21    18    13    1
    22    18    22   ar
    23     2     1   ar
    24    13    12   ar
    25    28    27   ar
    26    28    34    1
    27     4    10    1
    28     4     5   ar
    29    27    33    1
    30    10    11   ar
    31     1     6    1
    32     1     5   ar
    33    12    11   ar
    34    12    17    1
    35    11    16    1
    36    33    32    3
    37    16    15    3
