@<TRIPOS>MOLECULE
mol_data/opt/cam/geoms/mol2/5da5da.out
 18 19 0 0 0
SMALL
GASTEIGER

@<TRIPOS>ATOM
      1 C          -2.0427   -1.7895   -0.3418 C.ar    1  LIG1       -0.0063
      2 C          -0.7411   -1.7906    0.0821 C.ar    1  LIG1        0.0594
      3 C          -0.2130   -0.4767    0.2621 C.ar    1  LIG1       -0.0290
      4 C          -1.1243    0.4983   -0.0322 C.ar    1  LIG1        0.0284
      5 S          -2.6384   -0.1997   -0.5431 S.2     1  LIG1       -0.0948
      6 H          -2.6668   -2.6469   -0.5467 H       1  LIG1        0.0706
      7 N           0.5924   -3.9590    0.5357 N.1     1  LIG1       -0.1909
      8 C          -0.0023   -2.9886    0.3309 C.1     1  LIG1        0.0997
      9 H           0.7950   -0.2816    0.6013 H       1  LIG1        0.0642
     10 C          -0.9480    1.9412    0.0322 C.ar    1  LIG1        0.0432
     11 C           0.2118    2.6720   -0.1283 C.ar    1  LIG1        0.0670
     12 C           0.0149    4.0821    0.0049 C.ar    1  LIG1       -0.0367
     13 C          -1.2787    4.4012    0.2559 C.ar    1  LIG1       -0.0225
     14 S          -2.2781    3.0012    0.3554 S.2     1  LIG1       -0.0948
     15 H          -1.7079    5.3828    0.3938 H       1  LIG1        0.0694
     16 N           2.5230    1.6347   -0.6353 N.1     1  LIG1       -0.1908
     17 C           1.4841    2.0942   -0.4146 C.1     1  LIG1        0.1003
     18 H           0.8151    4.8034   -0.0945 H       1  LIG1        0.0636
@<TRIPOS>BOND
     1    16    17    3
     2     6     1    1
     3     5     1   ar
     4     5     4   ar
     5    17    11    1
     6     1     2   ar
     7    11    12   ar
     8    11    10   ar
     9    18    12    1
    10     4    10    1
    11     4     3   ar
    12    12    13   ar
    13    10    14   ar
    14     2     3   ar
    15     2     8    1
    16    13    14   ar
    17    13    15    1
    18     3     9    1
    19     8     7    3
