@<TRIPOS>MOLECULE
mol_data/opt/cam/geoms/mol2/5da5da-5da-5da.out
 34 37 0 0 0
SMALL
GASTEIGER

@<TRIPOS>ATOM
      1 C          -2.0684   -1.9104   -0.2338 C.ar    1  LIG1       -0.0063
      2 C          -0.7441   -1.9302    0.1134 C.ar    1  LIG1        0.0594
      3 C          -0.1701   -0.6265    0.1932 C.ar    1  LIG1       -0.0290
      4 C          -1.0714    0.3601   -0.0983 C.ar    1  LIG1        0.0284
      5 S          -2.6325   -0.3165   -0.4822 S.2     1  LIG1       -0.0948
      6 H          -2.7265   -2.7577   -0.3587 H       1  LIG1        0.0706
      7 N           0.5523   -4.1142    0.5983 N.1     1  LIG1       -0.1909
      8 C          -0.0253   -3.1367    0.3796 C.1     1  LIG1        0.0997
      9 H           0.8613   -0.4462    0.4631 H       1  LIG1        0.0642
     10 C          -0.8535    1.7962   -0.1171 C.ar    1  LIG1        0.0439
     11 C           0.3195    2.4882   -0.3484 C.ar    1  LIG1        0.0676
     12 C           0.1673    3.9025   -0.2965 C.ar    1  LIG1       -0.0284
     13 C          -1.1160    4.2895   -0.0291 C.ar    1  LIG1        0.0290
     14 S          -2.1464    2.9017    0.1934 S.2     1  LIG1       -0.0859
     15 N           2.5761    1.3452   -0.8757 N.1     1  LIG1       -0.1908
     16 C           1.5651    1.8577   -0.6443 C.1     1  LIG1        0.1003
     17 H           0.9845    4.5891   -0.4701 H       1  LIG1        0.0642
     18 C          -1.6456    5.6357    0.0851 C.ar    1  LIG1        0.0439
     19 C          -0.9802    6.7988    0.4221 C.ar    1  LIG1        0.0676
     20 C          -1.8193    7.9486    0.4465 C.ar    1  LIG1       -0.0284
     21 C          -3.1186    7.6661    0.1331 C.ar    1  LIG1        0.0290
     22 S          -3.3130    5.9731   -0.2287 S.2     1  LIG1       -0.0859
     23 N           1.5352    6.8897    1.0054 N.1     1  LIG1       -0.1908
     24 C           0.4077    6.8504    0.7489 C.1     1  LIG1        0.1003
     25 H          -1.4590    8.9351    0.7042 H       1  LIG1        0.0642
     26 C          -4.2492    8.5767    0.0673 C.ar    1  LIG1        0.0433
     27 C          -4.2444    9.9320   -0.1974 C.ar    1  LIG1        0.0670
     28 C          -5.5492   10.5154   -0.1802 C.ar    1  LIG1       -0.0367
     29 C          -6.5182    9.6054    0.0878 C.ar    1  LIG1       -0.0225
     30 S          -5.8689    8.0304    0.3433 S.2     1  LIG1       -0.0948
     31 H          -7.5839    9.7676    0.1558 H       1  LIG1        0.0694
     32 N          -2.1096   11.2999   -0.6927 N.1     1  LIG1       -0.1908
     33 C          -3.0650   10.6835   -0.4772 C.1     1  LIG1        0.1003
     34 H          -5.7308   11.5649   -0.3698 H       1  LIG1        0.0636
@<TRIPOS>BOND
     1    15    16    3
     2    32    33    3
     3    16    11    1
     4     5     1   ar
     5     5     4   ar
     6    33    27    1
     7    17    12    1
     8    34    28    1
     9     6     1    1
    10    11    12   ar
    11    11    10   ar
    12    12    13   ar
    13     1     2   ar
    14    22    18   ar
    15    22    21   ar
    16    27    28   ar
    17    27    26   ar
    18    28    29   ar
    19    10     4    1
    20    10    14   ar
    21     4     3   ar
    22    13    18    1
    23    13    14   ar
    24    26    21    1
    25    26    30   ar
    26    18    19   ar
    27    29    31    1
    28    29    30   ar
    29     2     3   ar
    30     2     8    1
    31    21    20   ar
    32     3     9    1
    33     8     7    3
    34    19    20   ar
    35    19    24    1
    36    20    25    1
    37    24    23    3
