@<TRIPOS>MOLECULE
mol_data/opt/cam/geoms/mol2/5da5da-5da.out
 26 28 0 0 0
SMALL
GASTEIGER

@<TRIPOS>ATOM
      1 C          -2.1407   -1.8548    0.0002 C.ar    1  LIG1       -0.0063
      2 C          -0.7726   -1.8962   -0.0004 C.ar    1  LIG1        0.0594
      3 C          -0.1747   -0.6014   -0.0000 C.ar    1  LIG1       -0.0290
      4 C          -1.1025    0.4065    0.0008 C.ar    1  LIG1        0.0284
      5 S          -2.7214   -0.2484    0.0012 S.2     1  LIG1       -0.0948
      6 H          -2.8241   -2.6912    0.0001 H       1  LIG1        0.0706
      7 N           0.5668   -4.1081   -0.0020 N.1     1  LIG1       -0.1909
      8 C          -0.0299   -3.1176   -0.0013 C.1     1  LIG1        0.0997
      9 H           0.8949   -0.4471   -0.0004 H       1  LIG1        0.0642
     10 C          -0.8827    1.8431    0.0014 C.ar    1  LIG1        0.0439
     11 C           0.3059    2.5495    0.0015 C.ar    1  LIG1        0.0676
     12 C           0.1357    3.9628    0.0022 C.ar    1  LIG1       -0.0284
     13 C          -1.1768    4.3452    0.0026 C.ar    1  LIG1        0.0290
     14 S          -2.2170    2.9457    0.0022 S.2     1  LIG1       -0.0859
     15 N           2.6468    1.4569    0.0005 N.1     1  LIG1       -0.1908
     16 C           1.5986    1.9472    0.0009 C.1     1  LIG1        0.1003
     17 H           0.9710    4.6487    0.0023 H       1  LIG1        0.0642
     18 C          -1.7396    5.6853    0.0034 C.ar    1  LIG1        0.0433
     19 C          -1.0873    6.9049    0.0038 C.ar    1  LIG1        0.0670
     20 C          -1.9759    8.0247    0.0045 C.ar    1  LIG1       -0.0367
     21 C          -3.2787    7.6522    0.0046 C.ar    1  LIG1       -0.0225
     22 S          -3.4544    5.9389    0.0039 S.2     1  LIG1       -0.0948
     23 H          -4.1546    8.2840    0.0051 H       1  LIG1        0.0694
     24 N           1.4789    7.1966    0.0033 N.1     1  LIG1       -0.1908
     25 C           0.3290    7.0629    0.0035 C.1     1  LIG1        0.1003
     26 H          -1.6322    9.0505    0.0049 H       1  LIG1        0.0636
@<TRIPOS>BOND
     1     7     8    3
     2     8     2    1
     3     2     3   ar
     4     2     1   ar
     5     9     3    1
     6     3     4   ar
     7     6     1    1
     8     1     5   ar
     9    15    16    3
    10     4     5   ar
    11     4    10    1
    12    16    11    1
    13    10    11   ar
    14    10    14   ar
    15    11    12   ar
    16    12    17    1
    17    12    13   ar
    18    14    13   ar
    19    13    18    1
    20    24    25    3
    21    18    19   ar
    22    18    22   ar
    23    25    19    1
    24    19    20   ar
    25    22    21   ar
    26    20    21   ar
    27    20    26    1
    28    21    23    1
