@<TRIPOS>MOLECULE
mol_data/opt/cam/geoms/mol2/5da5da-5da-.out
 26 28 0 0 0
SMALL
GASTEIGER

@<TRIPOS>ATOM
      1 C          -2.0462   -1.8786   -0.0480 C.ar    1  LIG1       -0.0063
      2 C          -0.7014   -1.8621    0.2080 C.ar    1  LIG1        0.0594
      3 C          -0.1508   -0.5458    0.2083 C.ar    1  LIG1       -0.0290
      4 C          -1.0901    0.4137   -0.0510 C.ar    1  LIG1        0.0284
      5 S          -2.6592   -0.3042   -0.3060 S.2     1  LIG1       -0.0948
      6 H          -2.6934   -2.7418   -0.1008 H       1  LIG1        0.0706
      7 N           0.6708   -4.0044    0.6699 N.1     1  LIG1       -0.1909
      8 C           0.0591   -3.0456    0.4614 C.1     1  LIG1        0.0997
      9 H           0.8925   -0.3372    0.4012 H       1  LIG1        0.0642
     10 C          -0.9040    1.8527   -0.1301 C.ar    1  LIG1        0.0439
     11 C           0.2348    2.5578   -0.4659 C.ar    1  LIG1        0.0676
     12 C           0.0564    3.9707   -0.4493 C.ar    1  LIG1       -0.0284
     13 C          -1.2121    4.3424   -0.1051 C.ar    1  LIG1        0.0290
     14 S          -2.1945    2.9445    0.2354 S.2     1  LIG1       -0.0859
     15 N           2.4730    1.4422   -1.1159 N.1     1  LIG1       -0.1908
     16 C           1.4695    1.9416   -0.8293 C.1     1  LIG1        0.1003
     17 H           0.8445    4.6668   -0.7015 H       1  LIG1        0.0642
     18 C          -1.7605    5.6837    0.0049 C.ar    1  LIG1        0.0433
     19 C          -1.0975    6.8618    0.2871 C.ar    1  LIG1        0.0670
     20 C          -1.9588    8.0023    0.3146 C.ar    1  LIG1       -0.0367
     21 C          -3.2515    7.6795    0.0626 C.ar    1  LIG1       -0.0225
     22 S          -3.4475    5.9934   -0.2321 S.2     1  LIG1       -0.0948
     23 H          -4.1077    8.3370    0.0273 H       1  LIG1        0.0694
     24 N           1.4409    7.0209    0.7400 N.1     1  LIG1       -0.1908
     25 C           0.3030    6.9451    0.5432 C.1     1  LIG1        0.1003
     26 H          -1.6078    9.0041    0.5230 H       1  LIG1        0.0636
@<TRIPOS>BOND
     1    15    16    3
     2    16    11    1
     3    17    12    1
     4    11    12   ar
     5    11    10   ar
     6    12    13   ar
     7     5     4   ar
     8     5     1   ar
     9    22    18   ar
    10    22    21   ar
    11    10     4    1
    12    10    14   ar
    13    13    18    1
    14    13    14   ar
    15     6     1    1
    16     4     3   ar
    17     1     2   ar
    18    18    19   ar
    19    23    21    1
    20    21    20   ar
    21     2     3   ar
    22     2     8    1
    23     3     9    1
    24    19    20   ar
    25    19    25    1
    26    20    26    1
    27     8     7    3
    28    25    24    3
