@<TRIPOS>MOLECULE
mol_data/opt/cam/geoms/mol2/5da5da-5da5da-.out
 34 37 0 0 0
SMALL
GASTEIGER

@<TRIPOS>ATOM
      1 C          -2.1831   -1.8746    0.0004 C.ar    1  LIG1       -0.0063
      2 C          -0.8164   -1.9501   -0.0004 C.ar    1  LIG1        0.0594
      3 C          -0.1866   -0.6707   -0.0001 C.ar    1  LIG1       -0.0290
      4 C          -1.0893    0.3600    0.0009 C.ar    1  LIG1        0.0284
      5 S          -2.7241   -0.2545    0.0015 S.2     1  LIG1       -0.0948
      6 H          -2.8871   -2.6937    0.0004 H       1  LIG1        0.0706
      7 N           0.4675   -4.1946   -0.0023 N.1     1  LIG1       -0.1909
      8 C          -0.1042   -3.1895   -0.0014 C.1     1  LIG1        0.0997
      9 H           0.8865   -0.5428   -0.0007 H       1  LIG1        0.0642
     10 C          -0.8335    1.7902    0.0015 C.ar    1  LIG1        0.0439
     11 C           0.3734    2.4664    0.0013 C.ar    1  LIG1        0.0676
     12 C           0.2398    3.8825    0.0020 C.ar    1  LIG1       -0.0284
     13 C          -1.0637    4.2984    0.0027 C.ar    1  LIG1        0.0290
     14 S          -2.1395    2.9257    0.0025 S.2     1  LIG1       -0.0859
     15 N           2.6848    1.3127   -0.0001 N.1     1  LIG1       -0.1908
     16 C           1.6501    1.8308    0.0005 C.1     1  LIG1        0.1003
     17 H           1.0922    4.5470    0.0020 H       1  LIG1        0.0642
     18 C          -1.5897    5.6504    0.0036 C.ar    1  LIG1        0.0439
     19 C          -0.9098    6.8552    0.0038 C.ar    1  LIG1        0.0676
     20 C          -1.7607    7.9954    0.0047 C.ar    1  LIG1       -0.0284
     21 C          -3.0900    7.6737    0.0051 C.ar    1  LIG1        0.0290
     22 S          -3.2960    5.9421    0.0044 S.2     1  LIG1       -0.0859
     23 N           1.6650    7.0629    0.0029 N.1     1  LIG1       -0.1908
     24 C           0.5113    6.9734    0.0033 C.1     1  LIG1        0.1003
     25 H          -1.3781    9.0062    0.0050 H       1  LIG1        0.0642
     26 C          -4.2451    8.5557    0.0060 C.ar    1  LIG1        0.0433
     27 C          -4.2859    9.9382    0.0064 C.ar    1  LIG1        0.0670
     28 C          -5.6136   10.4675    0.0073 C.ar    1  LIG1       -0.0367
     29 C          -6.5584    9.4961    0.0074 C.ar    1  LIG1       -0.0225
     30 S          -5.8588    7.9225    0.0066 S.2     1  LIG1       -0.0948
     31 H          -7.6326    9.6084    0.0080 H       1  LIG1        0.0694
     32 N          -2.2035   11.4660    0.0059 N.1     1  LIG1       -0.1908
     33 C          -3.1354   10.7794    0.0061 C.1     1  LIG1        0.1003
     34 H          -5.8259   11.5283    0.0078 H       1  LIG1        0.0636
@<TRIPOS>BOND
     1     7     8    3
     2     8     2    1
     3     9     3    1
     4     2     3   ar
     5     2     1   ar
     6     3     4   ar
     7    15    16    3
     8     6     1    1
     9     1     5   ar
    10    16    11    1
    11     4    10    1
    12     4     5   ar
    13    11    10   ar
    14    11    12   ar
    15    10    14   ar
    16    17    12    1
    17    12    13   ar
    18    14    13   ar
    19    13    18    1
    20    23    24    3
    21    24    19    1
    22    18    19   ar
    23    18    22   ar
    24    19    20   ar
    25    22    21   ar
    26    20    25    1
    27    20    21   ar
    28    21    26    1
    29    32    33    3
    30    26    27   ar
    31    26    30   ar
    32    33    27    1
    33    27    28   ar
    34    30    29   ar
    35    28    29   ar
    36    28    34    1
    37    29    31    1
