@<TRIPOS>MOLECULE
mol_data/opt/cam/geoms/mol2/5da5da5da-.out
 26 28 0 0 0
SMALL
GASTEIGER

@<TRIPOS>ATOM
      1 C          -2.0700   -1.8721    0.0863 C.ar    1  LIG1       -0.0063
      2 C          -0.7352   -1.8624   -0.2181 C.ar    1  LIG1        0.0594
      3 C          -0.1777   -0.5492   -0.2357 C.ar    1  LIG1       -0.0290
      4 C          -1.1016    0.4149    0.0594 C.ar    1  LIG1        0.0284
      5 S          -2.6644   -0.2949    0.3695 S.2     1  LIG1       -0.0948
      6 H          -2.7197   -2.7318    0.1607 H       1  LIG1        0.0706
      7 N           0.6074   -4.0112   -0.7337 N.1     1  LIG1       -0.1909
      8 C           0.0090   -3.0495   -0.5013 C.1     1  LIG1        0.0997
      9 H           0.8591   -0.3459   -0.4658 H       1  LIG1        0.0642
     10 C          -0.9048    1.8526    0.1346 C.ar    1  LIG1        0.0439
     11 C           0.2493    2.5507    0.4305 C.ar    1  LIG1        0.0676
     12 C           0.0783    3.9646    0.4232 C.ar    1  LIG1       -0.0284
     13 C          -1.1996    4.3441    0.1258 C.ar    1  LIG1        0.0290
     14 S          -2.2015    2.9524   -0.1818 S.2     1  LIG1       -0.0859
     15 N           2.5033    1.4214    0.9968 N.1     1  LIG1       -0.1908
     16 C           1.4929    1.9269    0.7477 C.1     1  LIG1        0.1003
     17 H           0.8789    4.6558    0.6482 H       1  LIG1        0.0642
     18 C          -1.7442    5.6886    0.0384 C.ar    1  LIG1        0.0433
     19 C          -1.0853    6.8636   -0.2651 C.ar    1  LIG1        0.0670
     20 C          -1.9406    8.0089   -0.2591 C.ar    1  LIG1       -0.0367
     21 C          -3.2251    7.6927    0.0388 C.ar    1  LIG1       -0.0225
     22 S          -3.4198    6.0071    0.3370 S.2     1  LIG1       -0.0948
     23 H          -4.0758    8.3548    0.1062 H       1  LIG1        0.0694
     24 N           1.4360    7.0098   -0.8091 N.1     1  LIG1       -0.1908
     25 C           0.3056    6.9398   -0.5715 C.1     1  LIG1        0.1003
     26 H          -1.5917    9.0093   -0.4781 H       1  LIG1        0.0636
@<TRIPOS>BOND
     1    24    25    3
     2     7     8    3
     3    25    19    1
     4     8     2    1
     5    26    20    1
     6     9     3    1
     7    19    20   ar
     8    19    18   ar
     9    20    21   ar
    10     3     2   ar
    11     3     4   ar
    12     2     1   ar
    13    14    13   ar
    14    14    10   ar
    15    18    13    1
    16    18    22   ar
    17    21    23    1
    18    21    22   ar
    19     4    10    1
    20     4     5   ar
    21     1     6    1
    22     1     5   ar
    23    13    12   ar
    24    10    11   ar
    25    12    11   ar
    26    12    17    1
    27    11    16    1
    28    16    15    3
