@<TRIPOS>MOLECULE
mol_data/opt/cam/geoms/mol2/5dd.out
 11 11 0 0 0
SMALL
GASTEIGER

@<TRIPOS>ATOM
      1 C          -2.1066   -1.7106    0.0005 C.ar    1  LIG1       -0.0057
      2 C          -0.7410   -1.6970   -0.0007 C.ar    1  LIG1        0.0761
      3 C          -0.2127   -0.3571    0.0001 C.ar    1  LIG1        0.0761
      4 C          -1.2014    0.5849    0.0001 C.ar    1  LIG1       -0.0057
      5 S          -2.7611   -0.1263    0.0003 S.2     1  LIG1       -0.1025
      6 H          -2.7486   -2.5791    0.0008 H       1  LIG1        0.0707
      7 H          -1.0778    1.6578    0.0002 H       1  LIG1        0.0707
      8 N           0.6989   -3.8425   -0.0016 N.1     1  LIG1       -0.1908
      9 C           0.0594   -2.8795   -0.0014 C.1     1  LIG1        0.1010
     10 N           2.3041    0.2282   -0.0005 N.1     1  LIG1       -0.1908
     11 C           1.1794   -0.0392   -0.0001 C.1     1  LIG1        0.1010
@<TRIPOS>BOND
     1     8     9    3
     2     9     2    1
     3     2     3   ar
     4     2     1   ar
     5    10    11    3
     6    11     3    1
     7     3     4   ar
     8     4     7    1
     9     4     5   ar
    10     5     1   ar
    11     1     6    1
