@<TRIPOS>MOLECULE
mol_data/opt/cam/geoms/mol2/5dd5dd-5dd-.out
 29 31 0 0 0
SMALL
GASTEIGER

@<TRIPOS>ATOM
      1 C          -0.0957   -1.7193   -1.4960 C.ar    1  LIG1       -0.0050
      2 C          -1.0677   -1.6035   -0.5429 C.ar    1  LIG1        0.0767
      3 C          -1.1230   -0.2837    0.0163 C.ar    1  LIG1        0.0844
      4 C          -0.1841    0.5639   -0.5327 C.ar    1  LIG1        0.0458
      5 S           0.7546   -0.2583   -1.7329 S.2     1  LIG1       -0.0935
      6 H           0.1576   -2.6040   -2.0621 H       1  LIG1        0.0707
      7 N          -2.6065   -3.5525    0.1696 N.1     1  LIG1       -0.1908
      8 C          -1.9203   -2.6776   -0.1457 C.1     1  LIG1        0.1010
      9 N          -2.7720    0.3932    1.8858 N.1     1  LIG1       -0.1908
     10 C          -2.0344    0.0874    1.0494 C.1     1  LIG1        0.1016
     11 C           0.0409    1.9721   -0.2298 C.ar    1  LIG1        0.0464
     12 C           1.2429    2.6378   -0.1189 C.ar    1  LIG1        0.0850
     13 C           1.0809    4.0323    0.1583 C.ar    1  LIG1        0.0850
     14 C          -0.2420    4.4083    0.2512 C.ar    1  LIG1        0.0464
     15 S          -1.2838    3.0545    0.0023 S.2     1  LIG1       -0.0845
     16 N           3.5609    1.5227   -0.3546 N.1     1  LIG1       -0.1908
     17 C           2.5227    2.0203   -0.2473 C.1     1  LIG1        0.1016
     18 N           3.0827    5.6429    0.4248 N.1     1  LIG1       -0.1908
     19 C           2.1858    4.9233    0.3037 C.1     1  LIG1        0.1016
     20 C          -0.7842    5.7285    0.5488 C.ar    1  LIG1        0.0458
     21 C          -1.8828    6.3423   -0.0148 C.ar    1  LIG1        0.0844
     22 C          -2.1357    7.6395    0.5430 C.ar    1  LIG1        0.0767
     23 C          -1.2287    7.9708    1.5095 C.ar    1  LIG1       -0.0050
     24 S          -0.0731    6.7400    1.7606 S.2     1  LIG1       -0.0935
     25 H          -1.1903    8.8890    2.0776 H       1  LIG1        0.0707
     26 N          -3.3094    5.3126   -1.9062 N.1     1  LIG1       -0.1908
     27 C          -2.6720    5.7762   -1.0599 C.1     1  LIG1        0.1016
     28 N          -4.0658    9.1906   -0.1941 N.1     1  LIG1       -0.1908
     29 C          -3.2037    8.4933    0.1322 C.1     1  LIG1        0.1010
@<TRIPOS>BOND
     1     6     1    1
     2    26    27    3
     3     5     1   ar
     4     5     4   ar
     5     1     2   ar
     6    27    21    1
     7     2     8    1
     8     2     3   ar
     9     4    11    1
    10     4     3   ar
    11    16    17    3
    12    17    12    1
    13    11    12   ar
    14    11    15   ar
    15    28    29    3
    16     8     7    3
    17    12    13   ar
    18    21    22   ar
    19    21    20   ar
    20    15    14   ar
    21     3    10    1
    22    29    22    1
    23    13    14   ar
    24    13    19    1
    25    14    20    1
    26    19    18    3
    27    22    23   ar
    28    20    24   ar
    29    10     9    3
    30    23    24   ar
    31    23    25    1
