@<TRIPOS>MOLECULE
mol_data/opt/cam/geoms/mol2/5dd5dd-5dd.out
 29 31 0 0 0
SMALL
GASTEIGER

@<TRIPOS>ATOM
      1 C          -1.5834   -1.7139   -1.4574 C.ar    1  LIG1       -0.0050
      2 C          -0.8208   -1.8582   -0.3334 C.ar    1  LIG1        0.0767
      3 C          -0.4275   -0.5939    0.2228 C.ar    1  LIG1        0.0844
      4 C          -0.9025    0.4702   -0.5061 C.ar    1  LIG1        0.0458
      5 S          -1.8274   -0.0714   -1.8653 S.2     1  LIG1       -0.0935
      6 H          -2.0055   -2.5038   -2.0617 H       1  LIG1        0.0707
      7 N          -0.2048   -4.1549    0.6768 N.1     1  LIG1       -0.1908
      8 C          -0.4744   -3.1245    0.2281 C.1     1  LIG1        0.1010
      9 N           0.9116   -0.3254    2.4148 N.1     1  LIG1       -0.1908
     10 C           0.3232   -0.4522    1.4280 C.1     1  LIG1        0.1016
     11 C          -0.6934    1.8902   -0.2412 C.ar    1  LIG1        0.0464
     12 C           0.5041    2.5571   -0.1448 C.ar    1  LIG1        0.0850
     13 C           0.3391    3.9520    0.1432 C.ar    1  LIG1        0.0850
     14 C          -0.9809    4.3198    0.2454 C.ar    1  LIG1        0.0464
     15 S          -2.0250    2.9639    0.0048 S.2     1  LIG1       -0.0845
     16 N           2.7944    1.4247   -0.5222 N.1     1  LIG1       -0.1908
     17 C           1.7726    1.9345   -0.3441 C.1     1  LIG1        0.1016
     18 N           2.3020    5.5896    0.5108 N.1     1  LIG1       -0.1908
     19 C           1.4273    4.8545    0.3370 C.1     1  LIG1        0.1016
     20 C          -1.5156    5.6515    0.5121 C.ar    1  LIG1        0.0458
     21 C          -1.3064    6.7968   -0.2183 C.ar    1  LIG1        0.0844
     22 C          -1.9824    7.9341    0.3404 C.ar    1  LIG1        0.0767
     23 C          -2.6849    7.6157    1.4678 C.ar    1  LIG1       -0.0050
     24 S          -2.5355    5.9620    1.8757 S.2     1  LIG1       -0.0935
     25 H          -3.2775    8.2850    2.0745 H       1  LIG1        0.0707
     26 N           0.0483    6.8485   -2.4165 N.1     1  LIG1       -0.1908
     27 C          -0.5488    6.8344   -1.4270 C.1     1  LIG1        0.1016
     28 N          -1.9260   10.3107   -0.6711 N.1     1  LIG1       -0.1908
     29 C          -1.9447    9.2461   -0.2219 C.1     1  LIG1        0.1010
@<TRIPOS>BOND
     1    26    27    3
     2     6     1    1
     3     5     1   ar
     4     5     4   ar
     5     1     2   ar
     6    27    21    1
     7    28    29    3
     8    16    17    3
     9     4    11    1
    10     4     3   ar
    11    17    12    1
    12     2     3   ar
    13     2     8    1
    14    11    12   ar
    15    11    15   ar
    16    29    22    1
    17    21    22   ar
    18    21    20   ar
    19    12    13   ar
    20    15    14   ar
    21    13    14   ar
    22    13    19    1
    23     3    10    1
    24     8     7    3
    25    14    20    1
    26    19    18    3
    27    22    23   ar
    28    20    24   ar
    29    10     9    3
    30    23    24   ar
    31    23    25    1
