@<TRIPOS>MOLECULE
mol_data/opt/cam/geoms/mol2/5dd5dd-.out
 20 21 0 0 0
SMALL
GASTEIGER

@<TRIPOS>ATOM
      1 C          -1.9393   -1.7616   -0.7292 C.ar    1  LIG1       -0.0050
      2 C          -0.7436   -1.8351   -0.0739 C.ar    1  LIG1        0.0767
      3 C          -0.2449   -0.5399    0.2976 C.ar    1  LIG1        0.0844
      4 C          -1.0799    0.4776   -0.0981 C.ar    1  LIG1        0.0458
      5 S          -2.4709   -0.1470   -0.9187 S.2     1  LIG1       -0.0935
      6 H          -2.5238   -2.5869   -1.1090 H       1  LIG1        0.0707
      7 N           0.4424   -4.0683    0.4567 N.1     1  LIG1       -0.1908
      8 C          -0.0811   -3.0653    0.2206 C.1     1  LIG1        0.1010
      9 N           1.9122   -0.1660    1.6676 N.1     1  LIG1       -0.1908
     10 C           0.9535   -0.3355    1.0445 C.1     1  LIG1        0.1016
     11 C          -0.8946    1.9113    0.0992 C.ar    1  LIG1        0.0458
     12 C           0.1718    2.6830   -0.2961 C.ar    1  LIG1        0.0844
     13 C           0.0187    4.0625    0.0752 C.ar    1  LIG1        0.0767
     14 C          -1.1568    4.2954    0.7301 C.ar    1  LIG1       -0.0050
     15 S          -2.0814    2.8691    0.9194 S.2     1  LIG1       -0.0935
     16 H          -1.5124    5.2423    1.1097 H       1  LIG1        0.0707
     17 N           2.1634    1.7729   -1.6653 N.1     1  LIG1       -0.1908
     18 C           1.2792    2.1806   -1.0425 C.1     1  LIG1        0.1016
     19 N           1.7336    5.9208   -0.4548 N.1     1  LIG1       -0.1908
     20 C           0.9722    5.0839   -0.2190 C.1     1  LIG1        0.1010
@<TRIPOS>BOND
     1    17    18    3
     2     6     1    1
     3    18    12    1
     4     5     1   ar
     5     5     4   ar
     6     1     2   ar
     7    19    20    3
     8    12    13   ar
     9    12    11   ar
    10    20    13    1
    11     4    11    1
    12     4     3   ar
    13     2     8    1
    14     2     3   ar
    15    13    14   ar
    16    11    15   ar
    17     8     7    3
    18     3    10    1
    19    14    15   ar
    20    14    16    1
    21    10     9    3
