@<TRIPOS>MOLECULE
mol_data/opt/cam/geoms/mol2/5dd5dd5dd5dd.out
 38 41 0 0 0
SMALL
GASTEIGER

@<TRIPOS>ATOM
      1 C          -2.1836   -1.6012   -0.9968 C.ar    1  LIG1       -0.0050
      2 C          -0.8338   -1.5928   -1.2051 C.ar    1  LIG1        0.0767
      3 C          -0.2379   -0.3298   -0.8693 C.ar    1  LIG1        0.0844
      4 C          -1.1613    0.5782   -0.4070 C.ar    1  LIG1        0.0458
      5 S          -2.7514   -0.1081   -0.3878 S.2     1  LIG1       -0.0935
      6 H          -2.8631   -2.4226   -1.1721 H       1  LIG1        0.0707
      7 N           0.4671   -3.6233   -2.1323 N.1     1  LIG1       -0.1908
      8 C          -0.1080   -2.7117   -1.7154 C.1     1  LIG1        0.1010
      9 N           2.2617    0.2162   -1.2194 N.1     1  LIG1       -0.1908
     10 C           1.1455   -0.0339   -1.0532 C.1     1  LIG1        0.1016
     11 C          -0.9241    1.9493    0.0289 C.ar    1  LIG1        0.0464
     12 C          -0.0352    2.3911    0.9804 C.ar    1  LIG1        0.0850
     13 C          -0.0755    3.8131    1.1574 C.ar    1  LIG1        0.0850
     14 C          -0.9945    4.4236    0.3368 C.ar    1  LIG1        0.0464
     15 S          -1.8031    3.2674   -0.6621 S.2     1  LIG1       -0.0845
     16 N           1.4173    0.8154    2.4214 N.1     1  LIG1       -0.1908
     17 C           0.7794    1.5239    1.7680 C.1     1  LIG1        0.1016
     18 N           1.2869    5.0806    2.9479 N.1     1  LIG1       -0.1908
     19 C           0.6913    4.5088    2.1392 C.1     1  LIG1        0.1016
     20 C          -1.3142    5.8435    0.2576 C.ar    1  LIG1        0.0464
     21 C          -0.4531    6.8935    0.0454 C.ar    1  LIG1        0.0850
     22 C          -1.1248    8.1580    0.0193 C.ar    1  LIG1        0.0850
     23 C          -2.4883    8.0488    0.2018 C.ar    1  LIG1        0.0464
     24 S          -2.9411    6.3944    0.4263 S.2     1  LIG1       -0.0845
     25 N           2.0747    6.6205   -0.4057 N.1     1  LIG1       -0.1908
     26 C           0.9453    6.7440   -0.1937 C.1     1  LIG1        0.1016
     27 N           0.1244   10.3800   -0.3980 N.1     1  LIG1       -0.1908
     28 C          -0.4354    9.3853   -0.2129 C.1     1  LIG1        0.1016
     29 C          -3.4825    9.1127    0.2513 C.ar    1  LIG1        0.0458
     30 C          -4.8005    9.0675   -0.1578 C.ar    1  LIG1        0.0844
     31 C          -5.4925   10.3028    0.0690 C.ar    1  LIG1        0.0767
     32 C          -4.6880   11.2459    0.6429 C.ar    1  LIG1       -0.0050
     33 S          -3.1057   10.6682    0.9152 S.2     1  LIG1       -0.0935
     34 H          -4.9587   12.2575    0.9090 H       1  LIG1        0.0707
     35 N          -5.9271    7.0107   -1.2406 N.1     1  LIG1       -0.1908
     36 C          -5.4229    7.9342   -0.7602 C.1     1  LIG1        0.1016
     37 N          -7.9696   10.7110   -0.5405 N.1     1  LIG1       -0.1908
     38 C          -6.8613   10.5255   -0.2702 C.1     1  LIG1        0.1010
@<TRIPOS>BOND
     1     7     8    3
     2     8     2    1
     3    35    36    3
     4     9    10    3
     5     2     1   ar
     6     2     3   ar
     7     6     1    1
     8    10     3    1
     9     1     5   ar
    10     3     4   ar
    11    36    30    1
    12    15    11   ar
    13    15    14   ar
    14    37    38    3
    15     4     5   ar
    16     4    11    1
    17    25    26    3
    18    27    28    3
    19    38    31    1
    20    28    22    1
    21    26    21    1
    22    30    31   ar
    23    30    29   ar
    24    22    21   ar
    25    22    23   ar
    26    11    12   ar
    27    21    20   ar
    28    31    32   ar
    29    23    29    1
    30    23    24   ar
    31    29    33   ar
    32    20    14    1
    33    20    24   ar
    34    14    13   ar
    35    32    34    1
    36    32    33   ar
    37    12    13   ar
    38    12    17    1
    39    13    19    1
    40    17    16    3
    41    19    18    3
