@<TRIPOS>MOLECULE
mol_data/opt/cam/geoms/mol2/5dd5dd-5dd5dd-.out
 38 41 0 0 0
SMALL
GASTEIGER

@<TRIPOS>ATOM
      1 C          -1.8545   -1.9769    0.3970 C.ar    1  LIG1       -0.0050
      2 C          -0.6326   -1.9175   -0.2101 C.ar    1  LIG1        0.0767
      3 C          -0.1420   -0.5717   -0.3183 C.ar    1  LIG1        0.0844
      4 C          -1.0107    0.3474    0.2210 C.ar    1  LIG1        0.0458
      5 S          -2.4227   -0.4305    0.8546 S.2     1  LIG1       -0.0935
      6 H          -2.4384   -2.8637    0.5969 H       1  LIG1        0.0707
      7 N           0.6126   -4.0043   -1.0873 N.1     1  LIG1       -0.1908
      8 C           0.0627   -3.0665   -0.6952 C.1     1  LIG1        0.1010
      9 N           2.0605    0.0620   -1.5083 N.1     1  LIG1       -0.1908
     10 C           1.0808   -0.2250   -0.9662 C.1     1  LIG1        0.1016
     11 C          -0.8461    1.7943    0.2961 C.ar    1  LIG1        0.0464
     12 C           0.2012    2.4974    0.8422 C.ar    1  LIG1        0.0850
     13 C           0.0257    3.9176    0.7481 C.ar    1  LIG1        0.0850
     14 C          -1.1522    4.2662    0.1305 C.ar    1  LIG1        0.0464
     15 S          -2.0425    2.8628   -0.3481 S.2     1  LIG1       -0.0845
     16 N           2.1828    1.3775    2.0620 N.1     1  LIG1       -0.1908
     17 C           1.3052    1.8828    1.5051 C.1     1  LIG1        0.1016
     18 N           1.6596    5.6239    1.7908 N.1     1  LIG1       -0.1908
     19 C           0.9369    4.8592    1.3127 C.1     1  LIG1        0.1016
     20 C          -1.6678    5.6045   -0.1285 C.ar    1  LIG1        0.0464
     21 C          -1.0336    6.6488   -0.7593 C.ar    1  LIG1        0.0850
     22 C          -1.8547    7.8211   -0.8487 C.ar    1  LIG1        0.0850
     23 C          -3.0965    7.6455   -0.2860 C.ar    1  LIG1        0.0464
     24 S          -3.2624    6.0541    0.3681 S.2     1  LIG1       -0.0845
     25 N           1.3090    6.4690   -1.8307 N.1     1  LIG1       -0.1908
     26 C           0.2663    6.5560   -1.3399 C.1     1  LIG1        0.1016
     27 N          -1.1471    9.9734   -2.0879 N.1     1  LIG1       -0.1908
     28 C          -1.4540    9.0134   -1.5225 C.1     1  LIG1        0.1016
     29 C          -4.1860    8.6110   -0.2019 C.ar    1  LIG1        0.0458
     30 C          -4.1488    9.8779    0.3309 C.ar    1  LIG1        0.0844
     31 C          -5.4152   10.5491    0.2354 C.ar    1  LIG1        0.0767
     32 C          -6.3705    9.7728   -0.3559 C.ar    1  LIG1       -0.0050
     33 S          -5.7637    8.2411   -0.8138 S.2     1  LIG1       -0.0935
     34 H          -7.4002   10.0401   -0.5442 H       1  LIG1        0.0707
     35 N          -2.0732   10.8865    1.4899 N.1     1  LIG1       -0.1908
     36 C          -2.9999   10.4416    0.9616 C.1     1  LIG1        0.1016
     37 N          -5.8752   12.9374    1.1069 N.1     1  LIG1       -0.1908
     38 C          -5.6612   11.8706    0.7173 C.1     1  LIG1        0.1010
@<TRIPOS>BOND
     1    27    28    3
     2    25    26    3
     3    28    22    1
     4     9    10    3
     5    26    21    1
     6     7     8    3
     7    10     3    1
     8    22    21   ar
     9    22    23   ar
    10    33    32   ar
    11    33    29   ar
    12    21    20   ar
    13     8     2    1
    14    34    32    1
    15    32    31   ar
    16    15    14   ar
    17    15    11   ar
    18     3     2   ar
    19     3     4   ar
    20    23    29    1
    21    23    24   ar
    22     2     1   ar
    23    29    30   ar
    24    20    14    1
    25    20    24   ar
    26    14    13   ar
    27     4    11    1
    28     4     5   ar
    29    31    30   ar
    30    31    38    1
    31    11    12   ar
    32    30    36    1
    33     1     6    1
    34     1     5   ar
    35    38    37    3
    36    13    12   ar
    37    13    19    1
    38    12    17    1
    39    36    35    3
    40    19    18    3
    41    17    16    3
