@<TRIPOS>MOLECULE
mol_data/opt/cam/geoms/mol2/5dd5dd-5dd5dd.out
 38 41 0 0 0
SMALL
GASTEIGER

@<TRIPOS>ATOM
      1 C          -0.8615   -1.8611    1.5815 C.ar    1  LIG1       -0.0050
      2 C          -0.6440   -1.8938    0.2333 C.ar    1  LIG1        0.0767
      3 C          -0.5189   -0.5784   -0.3291 C.ar    1  LIG1        0.0844
      4 C          -0.6402    0.4103    0.6178 C.ar    1  LIG1        0.0458
      5 S          -0.9076   -0.2637    2.1895 S.2     1  LIG1       -0.0935
      6 H          -0.9911   -2.7084    2.2392 H       1  LIG1        0.0707
      7 N          -0.5172   -4.0845   -1.1304 N.1     1  LIG1       -0.1908
      8 C          -0.5695   -3.1012   -0.5254 C.1     1  LIG1        0.1010
      9 N          -0.2268   -0.0956   -2.8493 N.1     1  LIG1       -0.1908
     10 C          -0.3451   -0.3192   -1.7215 C.1     1  LIG1        0.1016
     11 C          -0.5576    1.8524    0.4080 C.ar    1  LIG1        0.0464
     12 C           0.4919    2.5634   -0.1221 C.ar    1  LIG1        0.0850
     13 C           0.2263    3.9703   -0.1984 C.ar    1  LIG1        0.0850
     14 C          -1.0153    4.3014    0.2891 C.ar    1  LIG1        0.0464
     15 S          -1.8682    2.8974    0.8279 S.2     1  LIG1       -0.0845
     16 N           2.7263    1.4774   -0.8279 N.1     1  LIG1       -0.1908
     17 C           1.7257    1.9679   -0.5216 C.1     1  LIG1        0.1016
     18 N           1.8683    5.6860   -1.2131 N.1     1  LIG1       -0.1908
     19 C           1.1391    4.9166   -0.7527 C.1     1  LIG1        0.1016
     20 C          -1.6122    5.6293    0.3815 C.ar    1  LIG1        0.0464
     21 C          -1.1065    6.7331    1.0256 C.ar    1  LIG1        0.0850
     22 C          -1.9667    7.8756    0.9242 C.ar    1  LIG1        0.0850
     23 C          -3.1083    7.6177    0.2025 C.ar    1  LIG1        0.0464
     24 S          -3.1303    5.9847   -0.3642 S.2     1  LIG1       -0.0845
     25 N           1.0710    6.6852    2.4132 N.1     1  LIG1       -0.1908
     26 C           0.1034    6.7183    1.7821 C.1     1  LIG1        0.1016
     27 N          -1.5088   10.1166    2.1229 N.1     1  LIG1       -0.1908
     28 C          -1.7036    9.1179    1.5749 C.1     1  LIG1        0.1016
     29 C          -4.2036    8.5320   -0.0981 C.ar    1  LIG1        0.0458
     30 C          -4.1285    9.7730   -0.6854 C.ar    1  LIG1        0.0844
     31 C          -5.4172   10.3929   -0.8211 C.ar    1  LIG1        0.0767
     32 C          -6.4251    9.6047   -0.3437 C.ar    1  LIG1       -0.0050
     33 S          -5.8435    8.1237    0.2823 S.2     1  LIG1       -0.0935
     34 H          -7.4804    9.8359   -0.3307 H       1  LIG1        0.0707
     35 N          -1.9358   10.8172   -1.5631 N.1     1  LIG1       -0.1908
     36 C          -2.9167   10.3562   -1.1615 C.1     1  LIG1        0.1016
     37 N          -5.8194   12.7174   -1.8746 N.1     1  LIG1       -0.1908
     38 C          -5.6314   11.6792   -1.4030 C.1     1  LIG1        0.1010
@<TRIPOS>BOND
     1     9    10    3
     2    37    38    3
     3    10     3    1
     4    35    36    3
     5    38    31    1
     6    18    19    3
     7    36    30    1
     8     7     8    3
     9    16    17    3
    10    31    30   ar
    11    31    32   ar
    12    19    13    1
    13    30    29   ar
    14     8     2    1
    15    17    12    1
    16    24    23   ar
    17    24    20   ar
    18    32    34    1
    19    32    33   ar
    20     3     2   ar
    21     3     4   ar
    22    13    12   ar
    23    13    14   ar
    24    12    11   ar
    25    29    23    1
    26    29    33   ar
    27    23    22   ar
    28     2     1   ar
    29    14    20    1
    30    14    15   ar
    31    20    21   ar
    32    11     4    1
    33    11    15   ar
    34     4     5   ar
    35    22    21   ar
    36    22    28    1
    37    21    26    1
    38    28    27    3
    39     1     5   ar
    40     1     6    1
    41    26    25    3
