@<TRIPOS>MOLECULE
mol_data/opt/cam/geoms/mol2/5dd5dd5dd-5dd-.out
 38 41 0 0 0
SMALL
GASTEIGER

@<TRIPOS>ATOM
      1 C          -2.0357   -1.8916    0.2812 C.ar    1  LIG1       -0.0050
      2 C          -0.7800   -1.8073    0.8116 C.ar    1  LIG1        0.0767
      3 C          -0.2301   -0.4845    0.7052 C.ar    1  LIG1        0.0844
      4 C          -1.0901    0.3918    0.0862 C.ar    1  LIG1        0.0458
      5 S          -2.5660   -0.3978   -0.3597 S.2     1  LIG1       -0.0935
      6 H          -2.6654   -2.7684    0.2377 H       1  LIG1        0.0707
      7 N           0.4291   -3.8112    1.9059 N.1     1  LIG1       -0.1908
      8 C          -0.1047   -2.9107    1.4163 C.1     1  LIG1        0.1010
      9 N           2.0606    0.1985    1.6821 N.1     1  LIG1       -0.1908
     10 C           1.0404   -0.1116    1.2362 C.1     1  LIG1        0.1016
     11 C          -0.8737    1.8053   -0.1986 C.ar    1  LIG1        0.0464
     12 C           0.1771    2.3797   -0.8744 C.ar    1  LIG1        0.0850
     13 C           0.0580    3.8049   -0.9736 C.ar    1  LIG1        0.0850
     14 C          -1.0814    4.2853   -0.3738 C.ar    1  LIG1        0.0464
     15 S          -2.0036    3.0031    0.3278 S.2     1  LIG1       -0.0845
     16 N           2.0631    1.0238   -2.0028 N.1     1  LIG1       -0.1908
     17 C           1.2289    1.6342   -1.4859 C.1     1  LIG1        0.1016
     18 N           1.7023    5.3021   -2.2867 N.1     1  LIG1       -0.1908
     19 C           0.9789    4.6279   -1.6884 C.1     1  LIG1        0.1016
     20 C          -1.5279    5.6718   -0.2927 C.ar    1  LIG1        0.0464
     21 C          -0.8461    6.7450    0.2289 C.ar    1  LIG1        0.0850
     22 C          -1.5847    7.9698    0.1282 C.ar    1  LIG1        0.0850
     23 C          -2.8176    7.8006   -0.4544 C.ar    1  LIG1        0.0464
     24 S          -3.0769    6.1497   -0.8938 S.2     1  LIG1       -0.0845
     25 N           1.4778    6.5599    1.3399 N.1     1  LIG1       -0.1908
     26 C           0.4412    6.6477    0.8366 C.1     1  LIG1        0.1016
     27 N          -0.6778   10.2669    0.8838 N.1     1  LIG1       -0.1908
     28 C          -1.0815    9.2351    0.5553 C.1     1  LIG1        0.1016
     29 C          -3.8329    8.8197   -0.7013 C.ar    1  LIG1        0.0458
     30 C          -4.4420    9.6317    0.2253 C.ar    1  LIG1        0.0844
     31 C          -5.3898   10.5299   -0.3723 C.ar    1  LIG1        0.0767
     32 C          -5.4739   10.3671   -1.7260 C.ar    1  LIG1       -0.0050
     33 S          -4.4165    9.1507   -2.2969 S.2     1  LIG1       -0.0935
     34 H          -6.1085   10.9144   -2.4079 H       1  LIG1        0.0707
     35 N          -4.0070    9.4547    2.7649 N.1     1  LIG1       -0.1908
     36 C          -4.1974    9.5478    1.6286 C.1     1  LIG1        0.1016
     37 N          -6.8144   12.2379    0.9422 N.1     1  LIG1       -0.1908
     38 C          -6.1719   11.4743    0.3594 C.1     1  LIG1        0.1010
@<TRIPOS>BOND
     1    34    32    1
     2    33    32   ar
     3    33    29   ar
     4    18    19    3
     5    16    17    3
     6    32    31   ar
     7    19    13    1
     8    17    12    1
     9    13    12   ar
    10    13    14   ar
    11    24    23   ar
    12    24    20   ar
    13    12    11   ar
    14    29    23    1
    15    29    30   ar
    16    23    22   ar
    17    14    20    1
    18    14    15   ar
    19    31    30   ar
    20    31    38    1
    21     5     4   ar
    22     5     1   ar
    23    20    21   ar
    24    11     4    1
    25    11    15   ar
    26     4     3   ar
    27    22    21   ar
    28    22    28    1
    29    30    36    1
    30    21    26    1
    31     6     1    1
    32     1     2   ar
    33    38    37    3
    34    28    27    3
    35     3     2   ar
    36     3    10    1
    37     2     8    1
    38    26    25    3
    39    10     9    3
    40     8     7    3
    41    36    35    3
