@<TRIPOS>MOLECULE
mol_data/opt/cam/geoms/mol2/5dd5dd.out
 20 21 0 0 0
SMALL
GASTEIGER

@<TRIPOS>ATOM
      1 C          -1.9328   -1.7595   -0.7448 C.ar    1  LIG1       -0.0050
      2 C          -0.7430   -1.8349   -0.0789 C.ar    1  LIG1        0.0767
      3 C          -0.2477   -0.5406    0.3005 C.ar    1  LIG1        0.0844
      4 C          -1.0791    0.4779   -0.1000 C.ar    1  LIG1        0.0458
      5 S          -2.4626   -0.1445   -0.9348 S.2     1  LIG1       -0.0935
      6 H          -2.5138   -2.5838   -1.1321 H       1  LIG1        0.0707
      7 N           0.4381   -4.0695    0.4565 N.1     1  LIG1       -0.1908
      8 C          -0.0833   -3.0659    0.2184 C.1     1  LIG1        0.1010
      9 N           1.8969   -0.1705    1.6910 N.1     1  LIG1       -0.1908
     10 C           0.9439   -0.3383    1.0588 C.1     1  LIG1        0.1016
     11 C          -0.8955    1.9111    0.1028 C.ar    1  LIG1        0.0458
     12 C           0.1744    2.6838   -0.2808 C.ar    1  LIG1        0.0844
     13 C           0.0180    4.0623    0.0927 C.ar    1  LIG1        0.0767
     14 C          -1.1633    4.2935    0.7375 C.ar    1  LIG1       -0.0050
     15 S          -2.0896    2.8668    0.9147 S.2     1  LIG1       -0.0935
     16 H          -1.5223    5.2394    1.1164 H       1  LIG1        0.0707
     17 N           2.1784    1.7771   -1.6344 N.1     1  LIG1       -0.1908
     18 C           1.2885    2.1833   -1.0185 C.1     1  LIG1        0.1016
     19 N           1.7378    5.9218   -0.4169 N.1     1  LIG1       -0.1908
     20 C           0.9742    5.0844   -0.1902 C.1     1  LIG1        0.1010
@<TRIPOS>BOND
     1    17    18    3
     2     6     1    1
     3    18    12    1
     4     5     1   ar
     5     5     4   ar
     6     1     2   ar
     7    19    20    3
     8    12    13   ar
     9    12    11   ar
    10    20    13    1
    11     4    11    1
    12     4     3   ar
    13     2     8    1
    14     2     3   ar
    15    13    14   ar
    16    11    15   ar
    17     8     7    3
    18     3    10    1
    19    14    15   ar
    20    14    16    1
    21    10     9    3
