@<TRIPOS>MOLECULE
mol_data/opt/cam/geoms/mol2/5dd5dd5dd5dd-.out
 38 41 0 0 0
SMALL
GASTEIGER

@<TRIPOS>ATOM
      1 C           0.3742   -1.9534   -0.6207 C.ar    1  LIG1       -0.0050
      2 C          -0.8740   -1.7881   -0.0909 C.ar    1  LIG1        0.0767
      3 C          -1.1893   -0.4066    0.1291 C.ar    1  LIG1        0.0844
      4 C          -0.1625    0.4392   -0.2405 C.ar    1  LIG1        0.0458
      5 S           1.1782   -0.4674   -0.8595 S.2     1  LIG1       -0.0935
      6 H           0.8557   -2.8872   -0.8727 H       1  LIG1        0.0707
      7 N          -2.4698   -3.7451    0.4551 N.1     1  LIG1       -0.1908
      8 C          -1.7578   -2.8673    0.2131 C.1     1  LIG1        0.1010
      9 N          -3.4375    0.3729    1.1341 N.1     1  LIG1       -0.1908
     10 C          -2.4295    0.0217    0.6886 C.1     1  LIG1        0.1016
     11 C          -0.1320    1.8948   -0.1852 C.ar    1  LIG1        0.0464
     12 C           0.9501    2.7214    0.0390 C.ar    1  LIG1        0.0850
     13 C           0.6092    4.1118    0.0053 C.ar    1  LIG1        0.0850
     14 C          -0.7240    4.3217   -0.2542 C.ar    1  LIG1        0.0464
     15 S          -1.5632    2.8274   -0.4584 S.2     1  LIG1       -0.0845
     16 N           3.3456    1.8955    0.5400 N.1     1  LIG1       -0.1908
     17 C           2.2727    2.2648    0.3175 C.1     1  LIG1        0.1016
     18 N           2.2946    5.9984    0.5237 N.1     1  LIG1       -0.1908
     19 C           1.5430    5.1544    0.2817 C.1     1  LIG1        0.1016
     20 C          -1.4287    5.5937   -0.3544 C.ar    1  LIG1        0.0464
     21 C          -1.1212    6.6640   -1.1611 C.ar    1  LIG1        0.0850
     22 C          -2.0444    7.7506   -1.0134 C.ar    1  LIG1        0.0850
     23 C          -3.0350    7.4847   -0.0974 C.ar    1  LIG1        0.0464
     24 S          -2.8368    5.9138    0.5958 S.2     1  LIG1       -0.0845
     25 N           0.8020    6.6325   -2.8841 N.1     1  LIG1       -0.1908
     26 C          -0.0515    6.6593   -2.1053 C.1     1  LIG1        0.1016
     27 N          -1.9600    9.8981   -2.4450 N.1     1  LIG1       -0.1908
     28 C          -1.9869    8.9426   -1.7955 C.1     1  LIG1        0.1016
     29 C          -4.1402    8.3477    0.3021 C.ar    1  LIG1        0.0458
     30 C          -4.0733    9.6384    0.7715 C.ar    1  LIG1        0.0844
     31 C          -5.3703   10.1822    1.0631 C.ar    1  LIG1        0.0767
     32 C          -6.3743    9.2900    0.8158 C.ar    1  LIG1       -0.0050
     33 S          -5.7816    7.8002    0.2225 S.2     1  LIG1       -0.0935
     34 H          -7.4339    9.4492    0.9540 H       1  LIG1        0.0707
     35 N          -1.8595   10.8954    1.2049 N.1     1  LIG1       -0.1908
     36 C          -2.8518   10.3389    1.0013 C.1     1  LIG1        0.1016
     37 N          -5.7860   12.5600    1.9840 N.1     1  LIG1       -0.1908
     38 C          -5.5927   11.4985    1.5701 C.1     1  LIG1        0.1010
@<TRIPOS>BOND
     1    25    26    3
     2    27    28    3
     3    26    21    1
     4    28    22    1
     5    21    22   ar
     6    21    20   ar
     7    22    23   ar
     8     6     1    1
     9     5     1   ar
    10     5     4   ar
    11     1     2   ar
    12    15    14   ar
    13    15    11   ar
    14    20    14    1
    15    20    24   ar
    16    14    13   ar
    17     4    11    1
    18     4     3   ar
    19    11    12   ar
    20    23    29    1
    21    23    24   ar
    22     2     3   ar
    23     2     8    1
    24    13    12   ar
    25    13    19    1
    26    12    17    1
    27     3    10    1
    28     8     7    3
    29    33    29   ar
    30    33    32   ar
    31    19    18    3
    32    29    30   ar
    33    17    16    3
    34    10     9    3
    35    30    36    1
    36    30    31   ar
    37    32    34    1
    38    32    31   ar
    39    36    35    3
    40    31    38    1
    41    38    37    3
