@<TRIPOS>MOLECULE
mol_data/opt/cam/geoms/mol2/5dd5dd-5dd-5dd-.out
 38 41 0 0 0
SMALL
GASTEIGER

@<TRIPOS>ATOM
      1 C          -2.2027   -1.6163    0.8674 C.ar    1  LIG1       -0.0050
      2 C          -0.8614   -1.6082    1.1252 C.ar    1  LIG1        0.0767
      3 C          -0.2570   -0.3391    0.8303 C.ar    1  LIG1        0.0844
      4 C          -1.1652    0.5739    0.3481 C.ar    1  LIG1        0.0458
      5 S          -2.7518   -0.1153    0.2605 S.2     1  LIG1       -0.0935
      6 H          -2.8861   -2.4416    1.0055 H       1  LIG1        0.0707
      7 N           0.4099   -3.6498    2.0689 N.1     1  LIG1       -0.1908
      8 C          -0.1520   -2.7332    1.6449 C.1     1  LIG1        0.1010
      9 N           2.2267    0.2067    1.2798 N.1     1  LIG1       -0.1908
     10 C           1.1181   -0.0432    1.0691 C.1     1  LIG1        0.1016
     11 C          -0.9158    1.9518   -0.0582 C.ar    1  LIG1        0.0464
     12 C           0.0063    2.4097   -0.9699 C.ar    1  LIG1        0.0850
     13 C          -0.0313    3.8341   -1.1269 C.ar    1  LIG1        0.0850
     14 C          -0.9812    4.4303   -0.3315 C.ar    1  LIG1        0.0464
     15 S          -1.8228    3.2576    0.6197 S.2     1  LIG1       -0.0845
     16 N           1.5145    0.8588   -2.3801 N.1     1  LIG1       -0.1908
     17 C           0.8513    1.5561   -1.7400 C.1     1  LIG1        0.1016
     18 N           1.3924    5.1312   -2.8472 N.1     1  LIG1       -0.1908
     19 C           0.7691    4.5461   -2.0694 C.1     1  LIG1        0.1016
     20 C          -1.3073    5.8483   -0.2428 C.ar    1  LIG1        0.0464
     21 C          -0.4573    6.8967    0.0164 C.ar    1  LIG1        0.0850
     22 C          -1.1327    8.1593    0.0368 C.ar    1  LIG1        0.0850
     23 C          -2.4883    8.0501   -0.1971 C.ar    1  LIG1        0.0464
     24 S          -2.9283    6.3983   -0.4627 S.2     1  LIG1       -0.0845
     25 N           2.0531    6.6221    0.5556 N.1     1  LIG1       -0.1908
     26 C           0.9319    6.7464    0.3043 C.1     1  LIG1        0.1016
     27 N           0.0946   10.3773    0.5327 N.1     1  LIG1       -0.1908
     28 C          -0.4555    9.3844    0.3124 C.1     1  LIG1        0.1016
     29 C          -3.4828    9.1126   -0.2670 C.ar    1  LIG1        0.0458
     30 C          -4.8147    9.0585    0.0928 C.ar    1  LIG1        0.0844
     31 C          -5.5012   10.2957   -0.1407 C.ar    1  LIG1        0.0767
     32 C          -4.6787   11.2489   -0.6705 C.ar    1  LIG1       -0.0050
     33 S          -3.0859   10.6786   -0.8934 S.2     1  LIG1       -0.0935
     34 H          -4.9421   12.2639   -0.9313 H       1  LIG1        0.0707
     35 N          -5.9748    6.9834    1.1028 N.1     1  LIG1       -0.1908
     36 C          -5.4558    7.9150    0.6550 C.1     1  LIG1        0.1016
     37 N          -8.0000   10.6896    0.3838 N.1     1  LIG1       -0.1908
     38 C          -6.8820   10.5105    0.1515 C.1     1  LIG1        0.1010
@<TRIPOS>BOND
     1    18    19    3
     2    16    17    3
     3    19    13    1
     4    17    12    1
     5    13    12   ar
     6    13    14   ar
     7    12    11   ar
     8    34    32    1
     9    33    32   ar
    10    33    29   ar
    11    32    31   ar
    12    24    20   ar
    13    24    23   ar
    14    14    20    1
    15    14    15   ar
    16    29    23    1
    17    29    30   ar
    18    20    21   ar
    19    23    22   ar
    20    31    30   ar
    21    31    38    1
    22    11     4    1
    23    11    15   ar
    24    21    22   ar
    25    21    26    1
    26    22    28    1
    27    30    36    1
    28    38    37    3
    29     5     4   ar
    30     5     1   ar
    31    26    25    3
    32    28    27    3
    33     4     3   ar
    34    36    35    3
    35     3    10    1
    36     3     2   ar
    37     1     6    1
    38     1     2   ar
    39    10     9    3
    40     2     8    1
    41     8     7    3
