@<TRIPOS>MOLECULE
mol_data/opt/cam/geoms/mol2/5dd5dd5dd.out
 29 31 0 0 0
SMALL
GASTEIGER

@<TRIPOS>ATOM
      1 C          -1.8534   -1.9202   -0.4653 C.ar    1  LIG1       -0.0050
      2 C          -0.7360   -1.8397    0.3155 C.ar    1  LIG1        0.0767
      3 C          -0.2529   -0.4925    0.4401 C.ar    1  LIG1        0.0844
      4 C          -1.0208    0.4064   -0.2618 C.ar    1  LIG1        0.0458
      5 S          -2.3299   -0.3924   -1.0674 S.2     1  LIG1       -0.0935
      6 H          -2.4102   -2.8122   -0.7130 H       1  LIG1        0.0707
      7 N           0.3414   -3.8927    1.4555 N.1     1  LIG1       -0.1908
      8 C          -0.1335   -2.9699    0.9470 C.1     1  LIG1        0.1010
      9 N           1.7534    0.1784    1.9211 N.1     1  LIG1       -0.1908
     10 C           0.8625   -0.1245    1.2499 C.1     1  LIG1        0.1016
     11 C          -0.8321    1.8480   -0.3724 C.ar    1  LIG1        0.0464
     12 C           0.2943    2.5228   -0.7792 C.ar    1  LIG1        0.0850
     13 C           0.1192    3.9461   -0.7759 C.ar    1  LIG1        0.0850
     14 C          -1.1369    4.3259   -0.3666 C.ar    1  LIG1        0.0464
     15 S          -2.1037    2.9484    0.0291 S.2     1  LIG1       -0.0845
     16 N           2.4301    1.3461   -1.6294 N.1     1  LIG1       -0.1908
     17 C           1.4817    1.8766   -1.2361 C.1     1  LIG1        0.1016
     18 N           1.9057    5.6092   -1.6194 N.1     1  LIG1       -0.1908
     19 C           1.1143    4.8628   -1.2292 C.1     1  LIG1        0.1016
     20 C          -1.6693    5.6784   -0.2496 C.ar    1  LIG1        0.0458
     21 C          -1.1417    6.7333    0.4569 C.ar    1  LIG1        0.0844
     22 C          -1.9369    7.9238    0.3383 C.ar    1  LIG1        0.0767
     23 C          -3.0410    7.7347   -0.4428 C.ar    1  LIG1       -0.0050
     24 S          -3.1334    6.1397   -1.0522 S.2     1  LIG1       -0.0935
     25 H          -3.7976    8.4663   -0.6868 H       1  LIG1        0.0707
     26 N           0.9681    6.5619    1.9360 N.1     1  LIG1       -0.1908
     27 C           0.0301    6.6429    1.2657 C.1     1  LIG1        0.1016
     28 N          -1.3886   10.1714    1.4883 N.1     1  LIG1       -0.1908
     29 C          -1.6260    9.1634    0.9753 C.1     1  LIG1        0.1010
@<TRIPOS>BOND
     1    16    17    3
     2    18    19    3
     3    17    12    1
     4    19    13    1
     5     5     1   ar
     6     5     4   ar
     7    24    23   ar
     8    24    20   ar
     9    12    13   ar
    10    12    11   ar
    11    13    14   ar
    12     6     1    1
    13    25    23    1
    14     1     2   ar
    15    23    22   ar
    16    11     4    1
    17    11    15   ar
    18    14    20    1
    19    14    15   ar
    20     4     3   ar
    21    20    21   ar
    22     2     3   ar
    23     2     8    1
    24    22    21   ar
    25    22    29    1
    26     3    10    1
    27    21    27    1
    28     8     7    3
    29    29    28    3
    30    10     9    3
    31    27    26    3
