@<TRIPOS>MOLECULE
mol_data/opt/cam/geoms/mol2/5dd5dd-5dd-5dd.out
 38 41 0 0 0
SMALL
GASTEIGER

@<TRIPOS>ATOM
      1 C          -0.9254   -1.5693   -2.1745 C.ar    1  LIG1       -0.0050
      2 C          -0.8074   -1.8000   -0.8333 C.ar    1  LIG1        0.0767
      3 C          -0.6637   -0.5838   -0.0835 C.ar    1  LIG1        0.0844
      4 C          -0.6714    0.5313   -0.8870 C.ar    1  LIG1        0.0458
      5 S          -0.8553    0.0968   -2.5520 S.2     1  LIG1       -0.0935
      6 H          -1.0455   -2.3090   -2.9528 H       1  LIG1        0.0707
      7 N          -0.8768   -4.1609    0.2137 N.1     1  LIG1       -0.1908
      8 C          -0.8419   -3.1027   -0.2494 C.1     1  LIG1        0.1010
      9 N          -0.5322   -0.4665    2.4931 N.1     1  LIG1       -0.1908
     10 C          -0.5791   -0.5282    1.3399 C.1     1  LIG1        0.1016
     11 C          -0.5392    1.9236   -0.4687 C.ar    1  LIG1        0.0464
     12 C           0.5005    2.4938    0.2261 C.ar    1  LIG1        0.0850
     13 C           0.2922    3.8879    0.4862 C.ar    1  LIG1        0.0850
     14 C          -0.8951    4.3506   -0.0274 C.ar    1  LIG1        0.0464
     15 S          -1.7684    3.0868   -0.8176 S.2     1  LIG1       -0.0845
     16 N           2.6285    1.2032    0.9159 N.1     1  LIG1       -0.1908
     17 C           1.6746    1.7827    0.6161 C.1     1  LIG1        0.1016
     18 N           1.9175    5.3730    1.8365 N.1     1  LIG1       -0.1908
     19 C           1.2001    4.7036    1.2258 C.1     1  LIG1        0.1016
     20 C          -1.4157    5.7134    0.0372 C.ar    1  LIG1        0.0464
     21 C          -0.8343    6.8515   -0.4673 C.ar    1  LIG1        0.0850
     22 C          -1.6105    8.0287   -0.2101 C.ar    1  LIG1        0.0850
     23 C          -2.7719    7.7585    0.4732 C.ar    1  LIG1        0.0464
     24 S          -2.9162    6.0709    0.8150 S.2     1  LIG1       -0.0845
     25 N           1.3793    6.8320   -1.7975 N.1     1  LIG1       -0.1908
     26 C           0.3928    6.8508   -1.1958 C.1     1  LIG1        0.1016
     27 N          -0.8779   10.4115   -0.8851 N.1     1  LIG1       -0.1908
     28 C          -1.2055    9.3427   -0.5919 C.1     1  LIG1        0.1016
     29 C          -3.8021    8.7070    0.8855 C.ar    1  LIG1        0.0458
     30 C          -4.5322    9.5463    0.0782 C.ar    1  LIG1        0.0844
     31 C          -5.4567   10.3547    0.8224 C.ar    1  LIG1        0.0767
     32 C          -5.4031   10.0994    2.1634 C.ar    1  LIG1       -0.0050
     33 S          -4.2439    8.9026    2.5472 S.2     1  LIG1       -0.0935
     34 H          -5.9927   10.5681    2.9380 H       1  LIG1        0.0707
     35 N          -4.3327    9.5553   -2.4967 N.1     1  LIG1       -0.1908
     36 C          -4.4192    9.5660   -1.3441 C.1     1  LIG1        0.1016
     37 N          -7.0724   12.0721   -0.2334 N.1     1  LIG1       -0.1908
     38 C          -6.3453   11.3048    0.2338 C.1     1  LIG1        0.1010
@<TRIPOS>BOND
     1     6     1    1
     2     5     1   ar
     3     5     4   ar
     4    35    36    3
     5     1     2   ar
     6    25    26    3
     7    36    30    1
     8    26    21    1
     9     4    11    1
    10     4     3   ar
    11    27    28    3
    12     2     8    1
    13     2     3   ar
    14    15    11   ar
    15    15    14   ar
    16    28    22    1
    17    11    12   ar
    18    21    22   ar
    19    21    20   ar
    20     8     7    3
    21    37    38    3
    22    22    23   ar
    23     3    10    1
    24    14    20    1
    25    14    13   ar
    26    20    24   ar
    27    30    31   ar
    28    30    29   ar
    29    12    13   ar
    30    12    17    1
    31    38    31    1
    32    23    24   ar
    33    23    29    1
    34    13    19    1
    35    17    16    3
    36    31    32   ar
    37    29    33   ar
    38    19    18    3
    39    10     9    3
    40    32    33   ar
    41    32    34    1
