@<TRIPOS>MOLECULE
mol_data/opt/cam/geoms/mol2/5dd5dd5dd-.out
 29 31 0 0 0
SMALL
GASTEIGER

@<TRIPOS>ATOM
      1 C          -1.2429   -1.3687   -1.9691 C.ar    1  LIG1       -0.0050
      2 C          -0.8923   -1.6682   -0.6833 C.ar    1  LIG1        0.0767
      3 C          -0.5512   -0.4970    0.0743 C.ar    1  LIG1        0.0844
      4 C          -0.6474    0.6551   -0.6702 C.ar    1  LIG1        0.0458
      5 S          -1.1581    0.3087   -2.2880 S.2     1  LIG1       -0.0935
      6 H          -1.5432   -2.0643   -2.7393 H       1  LIG1        0.0707
      7 N          -0.8874   -4.0726    0.2623 N.1     1  LIG1       -0.1908
      8 C          -0.8855   -2.9950   -0.1555 C.1     1  LIG1        0.1010
      9 N           0.0435   -0.5194    2.5874 N.1     1  LIG1       -0.1908
     10 C          -0.2114   -0.5169    1.4599 C.1     1  LIG1        0.1016
     11 C          -0.3748    2.0195   -0.2334 C.ar    1  LIG1        0.0464
     12 C           0.7790    2.5085    0.3309 C.ar    1  LIG1        0.0850
     13 C           0.6951    3.9059    0.6330 C.ar    1  LIG1        0.0850
     14 C          -0.5190    4.4598    0.2834 C.ar    1  LIG1        0.0464
     15 S          -1.5634    3.2595   -0.3947 S.2     1  LIG1       -0.0845
     16 N           2.9179    1.1020    0.6718 N.1     1  LIG1       -0.1908
     17 C           1.9582    1.7304    0.5306 C.1     1  LIG1        0.1016
     18 N           2.6642    5.2259    1.6590 N.1     1  LIG1       -0.1908
     19 C           1.7832    4.6355    1.1983 C.1     1  LIG1        0.1016
     20 C          -0.9663    5.8362    0.4527 C.ar    1  LIG1        0.0458
     21 C          -1.7947    6.5708   -0.3712 C.ar    1  LIG1        0.0844
     22 C          -2.0408    7.8923    0.1291 C.ar    1  LIG1        0.0767
     23 C          -1.3990    8.1230    1.3127 C.ar    1  LIG1       -0.0050
     24 S          -0.5008    6.7695    1.8360 S.2     1  LIG1       -0.0935
     25 H          -1.4118    9.0343    1.8929 H       1  LIG1        0.0707
     26 N          -2.7852    5.7067   -2.5949 N.1     1  LIG1       -0.1908
     27 C          -2.3394    6.0961   -1.6013 C.1     1  LIG1        0.1016
     28 N          -3.5155    9.6464   -1.0637 N.1     1  LIG1       -0.1908
     29 C          -2.8556    8.8593   -0.5338 C.1     1  LIG1        0.1010
@<TRIPOS>BOND
     1     6     1    1
     2    26    27    3
     3     5     1   ar
     4     5     4   ar
     5     1     2   ar
     6    27    21    1
     7    28    29    3
     8     2     8    1
     9     2     3   ar
    10     4    11    1
    11     4     3   ar
    12    29    22    1
    13    15    11   ar
    14    15    14   ar
    15    21    22   ar
    16    21    20   ar
    17    11    12   ar
    18     8     7    3
    19     3    10    1
    20    22    23   ar
    21    14    20    1
    22    14    13   ar
    23    12    17    1
    24    12    13   ar
    25    20    24   ar
    26    17    16    3
    27    13    19    1
    28    19    18    3
    29    23    24   ar
    30    23    25    1
    31    10     9    3
