@<TRIPOS>MOLECULE
mol_data/opt/cam/geoms/mol2/5de.out
 12 12 0 0 0
SMALL
GASTEIGER

@<TRIPOS>ATOM
      1 C          -2.1169   -1.7129    0.0002 C.ar    1  LIG1       -0.0057
      2 C          -0.7514   -1.6922   -0.0004 C.ar    1  LIG1        0.0741
      3 C          -0.2137   -0.3527   -0.0003 C.ar    1  LIG1        0.0490
      4 C          -1.2105    0.5819    0.0003 C.ar    1  LIG1       -0.0077
      5 S          -2.7741   -0.1305    0.0007 S.2     1  LIG1       -0.1025
      6 H          -2.7560   -2.5833    0.0004 H       1  LIG1        0.0707
      7 H          -1.0922    1.6551    0.0005 H       1  LIG1        0.0706
      8 N           0.6944   -3.8341   -0.0014 N.1     1  LIG1       -0.1908
      9 C           0.0515   -2.8729   -0.0009 C.1     1  LIG1        0.1009
     10 C           1.1783   -0.0525   -0.0007 C.1     1  LIG1       -0.0678
     11 C           2.3562    0.1901   -0.0012 C.1     1  LIG1       -0.1139
     12 H           3.4020    0.3971   -0.0016 H       1  LIG1        0.1232
@<TRIPOS>BOND
     1    12    11    1
     2     8     9    3
     3    11    10    3
     4     9     2    1
     5    10     3    1
     6     2     3   ar
     7     2     1   ar
     8     3     4   ar
     9     1     6    1
    10     1     5   ar
    11     4     7    1
    12     4     5   ar
