@<TRIPOS>MOLECULE
mol_data/opt/cam/geoms/mol2/5de5de-5de5de-.out
 42 45 0 0 0
SMALL
GASTEIGER

@<TRIPOS>ATOM
      1 C          -1.9412   -1.9368   -0.3117 C.ar    1  LIG1       -0.0051
      2 C          -0.6746   -1.9066    0.1967 C.ar    1  LIG1        0.0747
      3 C          -0.1238   -0.5769    0.2578 C.ar    1  LIG1        0.0573
      4 C          -1.0092    0.3601   -0.2258 C.ar    1  LIG1        0.0438
      5 S          -2.4958   -0.3775   -0.7395 S.2     1  LIG1       -0.0935
      6 H          -2.5641   -2.8073   -0.4563 H       1  LIG1        0.0707
      7 N           0.5703   -4.0252    0.9961 N.1     1  LIG1       -0.1908
      8 C           0.0204   -3.0733    0.6382 C.1     1  LIG1        0.1009
      9 C           1.1581   -0.2881    0.7974 C.1     1  LIG1       -0.0672
     10 C           2.2435   -0.0617    1.2625 C.1     1  LIG1       -0.1138
     11 H           3.2117    0.1402    1.6616 H       1  LIG1        0.1232
     12 C          -0.8271    1.8019   -0.3154 C.ar    1  LIG1        0.0463
     13 C           0.2130    2.5014   -0.8796 C.ar    1  LIG1        0.0830
     14 C           0.0633    3.9289   -0.7828 C.ar    1  LIG1        0.0579
     15 C          -1.1015    4.2807   -0.1394 C.ar    1  LIG1        0.0444
     16 S          -2.0010    2.8823    0.3520 S.2     1  LIG1       -0.0846
     17 N           2.1780    1.4112   -2.1525 N.1     1  LIG1       -0.1908
     18 C           1.3020    1.8919   -1.5710 C.1     1  LIG1        0.1016
     19 C           0.9894    4.8451   -1.3492 C.1     1  LIG1       -0.0672
     20 C           1.7801    5.6067   -1.8395 C.1     1  LIG1       -0.1138
     21 H           2.4867    6.2843   -2.2627 H       1  LIG1        0.1232
     22 C          -1.6106    5.6180    0.1263 C.ar    1  LIG1        0.0463
     23 C          -0.9660    6.6782    0.7179 C.ar    1  LIG1        0.0830
     24 C          -1.7812    7.8592    0.8200 C.ar    1  LIG1        0.0579
     25 C          -3.0395    7.6630    0.2986 C.ar    1  LIG1        0.0444
     26 S          -3.2229    6.0549   -0.3222 S.2     1  LIG1       -0.0846
     27 N           1.4098    6.5592    1.7233 N.1     1  LIG1       -0.1908
     28 C           0.3517    6.6092    1.2603 C.1     1  LIG1        0.1016
     29 C          -1.3350    9.0545    1.4455 C.1     1  LIG1       -0.0672
     30 C          -0.9388   10.0543    1.9830 C.1     1  LIG1       -0.1138
     31 H          -0.5819   10.9459    2.4465 H       1  LIG1        0.1232
     32 C          -4.1456    8.6082    0.2368 C.ar    1  LIG1        0.0457
     33 C          -4.1501    9.8897   -0.2619 C.ar    1  LIG1        0.0824
     34 C          -5.4342   10.5348   -0.1534 C.ar    1  LIG1        0.0496
     35 C          -6.3639    9.7113    0.4157 C.ar    1  LIG1       -0.0070
     36 S          -5.7144    8.1817    0.8365 S.2     1  LIG1       -0.0935
     37 H          -7.4014    9.9414    0.6073 H       1  LIG1        0.0706
     38 N          -2.1304   11.0200   -1.4076 N.1     1  LIG1       -0.1908
     39 C          -3.0267   10.5102   -0.8844 C.1     1  LIG1        0.1015
     40 C          -5.6957   11.8609   -0.6007 C.1     1  LIG1       -0.0678
     41 C          -5.9078   12.9818   -0.9811 C.1     1  LIG1       -0.1139
     42 H          -6.0881   13.9759   -1.3216 H       1  LIG1        0.1232
@<TRIPOS>BOND
     1    21    20    1
     2    17    18    3
     3    20    19    3
     4    18    13    1
     5    38    39    3
     6    19    14    1
     7    42    41    1
     8    41    40    3
     9    39    33    1
    10    13    14   ar
    11    13    12   ar
    12    14    15   ar
    13     5     1   ar
    14     5     4   ar
    15    40    34    1
    16     6     1    1
    17    26    22   ar
    18    26    25   ar
    19    12     4    1
    20    12    16   ar
    21     1     2   ar
    22    33    34   ar
    23    33    32   ar
    24     4     3   ar
    25    34    35   ar
    26    15    22    1
    27    15    16   ar
    28    22    23   ar
    29     2     3   ar
    30     2     8    1
    31    32    25    1
    32    32    36   ar
    33     3     9    1
    34    25    24   ar
    35    35    37    1
    36    35    36   ar
    37     8     7    3
    38    23    24   ar
    39    23    28    1
    40     9    10    3
    41    24    29    1
    42    28    27    3
    43    10    11    1
    44    29    30    3
    45    30    31    1
