@<TRIPOS>MOLECULE
mol_data/opt/cam/geoms/mol2/5de5de-5de-.out
 32 34 0 0 0
SMALL
GASTEIGER

@<TRIPOS>ATOM
      1 C          -1.9029   -1.8921    0.5224 C.ar    1  LIG1       -0.0051
      2 C          -0.7641   -1.8373   -0.2282 C.ar    1  LIG1        0.0747
      3 C          -0.2290   -0.5047   -0.3435 C.ar    1  LIG1        0.0573
      4 C          -0.9937    0.4090    0.3463 C.ar    1  LIG1        0.0438
      5 S          -2.3510   -0.3533    1.1172 S.2     1  LIG1       -0.0935
      6 H          -2.4894   -2.7695    0.7526 H       1  LIG1        0.0707
      7 N           0.2829   -3.9175   -1.3481 N.1     1  LIG1       -0.1908
      8 C          -0.1786   -2.9827   -0.8482 C.1     1  LIG1        0.1009
      9 C           0.9203   -0.1901   -1.1168 C.1     1  LIG1       -0.0672
     10 C           1.8918    0.0587   -1.7802 C.1     1  LIG1       -0.1138
     11 H           2.7612    0.2801   -2.3567 H       1  LIG1        0.1232
     12 C          -0.7877    1.8462    0.4577 C.ar    1  LIG1        0.0463
     13 C           0.3485    2.5221    0.8334 C.ar    1  LIG1        0.0830
     14 C           0.1927    3.9524    0.8281 C.ar    1  LIG1        0.0579
     15 C          -1.0735    4.3308    0.4450 C.ar    1  LIG1        0.0444
     16 S          -2.0619    2.9536    0.0824 S.2     1  LIG1       -0.0846
     17 N           2.5191    1.3816    1.6446 N.1     1  LIG1       -0.1908
     18 C           1.5485    1.8850    1.2687 C.1     1  LIG1        0.1016
     19 C           1.2222    4.8438    1.2339 C.1     1  LIG1       -0.0672
     20 C           2.1054    5.5801    1.5852 C.1     1  LIG1       -0.1138
     21 H           2.8939    6.2334    1.8827 H       1  LIG1        0.1232
     22 C          -1.6157    5.6782    0.3376 C.ar    1  LIG1        0.0457
     23 C          -1.0999    6.7573   -0.3407 C.ar    1  LIG1        0.0824
     24 C          -1.9111    7.9424   -0.2200 C.ar    1  LIG1        0.0496
     25 C          -3.0236    7.7147    0.5394 C.ar    1  LIG1       -0.0070
     26 S          -3.1005    6.1046    1.1228 S.2     1  LIG1       -0.0935
     27 H          -3.7987    8.4266    0.7816 H       1  LIG1        0.0706
     28 N           1.0269    6.6856   -1.8040 N.1     1  LIG1       -0.1908
     29 C           0.0814    6.7110   -1.1388 C.1     1  LIG1        0.1015
     30 C          -1.5923    9.1875   -0.8326 C.1     1  LIG1       -0.0678
     31 C          -1.3153   10.2353   -1.3534 C.1     1  LIG1       -0.1139
     32 H          -1.0631   11.1606   -1.8193 H       1  LIG1        0.1232
@<TRIPOS>BOND
     1    11    10    1
     2    32    31    1
     3    28    29    3
     4    10     9    3
     5    31    30    3
     6     7     8    3
     7    29    23    1
     8     9     3    1
     9     8     2    1
    10    30    24    1
    11     3     2   ar
    12     3     4   ar
    13    23    24   ar
    14    23    22   ar
    15     2     1   ar
    16    24    25   ar
    17    16    15   ar
    18    16    12   ar
    19    22    15    1
    20    22    26   ar
    21     4    12    1
    22     4     5   ar
    23    15    14   ar
    24    12    13   ar
    25     1     6    1
    26     1     5   ar
    27    25    27    1
    28    25    26   ar
    29    14    13   ar
    30    14    19    1
    31    13    18    1
    32    19    20    3
    33    18    17    3
    34    20    21    1
