@<TRIPOS>MOLECULE
mol_data/opt/cam/geoms/mol2/5de5de5de-5de-.out
 42 45 0 0 0
SMALL
GASTEIGER

@<TRIPOS>ATOM
      1 C          -1.0055   -1.7670    1.8392 C.ar    1  LIG1       -0.0051
      2 C          -0.6089   -1.8543    0.5359 C.ar    1  LIG1        0.0747
      3 C          -0.3684   -0.5679   -0.0662 C.ar    1  LIG1        0.0573
      4 C          -0.5884    0.4574    0.8256 C.ar    1  LIG1        0.0438
      5 S          -1.0873   -0.1463    2.3757 S.2     1  LIG1       -0.0935
      6 H          -1.2454   -2.5849    2.5028 H       1  LIG1        0.0707
      7 N          -0.3618   -4.1024   -0.7139 N.1     1  LIG1       -0.1908
      8 C          -0.4674   -3.0933   -0.1597 C.1     1  LIG1        0.1009
      9 C           0.0061   -0.4026   -1.4268 C.1     1  LIG1       -0.0672
     10 C           0.3187   -0.2854   -2.5819 C.1     1  LIG1       -0.1138
     11 H           0.6125   -0.1833   -3.6019 H       1  LIG1        0.1232
     12 C          -0.4653    1.8899    0.5907 C.ar    1  LIG1        0.0463
     13 C           0.6063    2.5857    0.0848 C.ar    1  LIG1        0.0830
     14 C           0.3719    4.0013   -0.0222 C.ar    1  LIG1        0.0579
     15 C          -0.8792    4.3502    0.4328 C.ar    1  LIG1        0.0444
     16 S          -1.7715    2.9608    0.9613 S.2     1  LIG1       -0.0846
     17 N           2.8715    1.5148   -0.5415 N.1     1  LIG1       -0.1908
     18 C           1.8526    1.9866   -0.2665 C.1     1  LIG1        0.1016
     19 C           1.3233    4.9063   -0.5642 C.1     1  LIG1       -0.0672
     20 C           2.1376    5.6579   -1.0306 C.1     1  LIG1       -0.1138
     21 H           2.8643    6.3285   -1.4305 H       1  LIG1        0.1232
     22 C          -1.4776    5.6768    0.4799 C.ar    1  LIG1        0.0463
     23 C          -0.9650    6.8278    1.0288 C.ar    1  LIG1        0.0830
     24 C          -1.8353    7.9650    0.8911 C.ar    1  LIG1        0.0579
     25 C          -3.0011    7.6441    0.2340 C.ar    1  LIG1        0.0444
     26 S          -3.0302    5.9722   -0.2224 S.2     1  LIG1       -0.0846
     27 N           1.2549    6.9489    2.3431 N.1     1  LIG1       -0.1908
     28 C           0.2686    6.8905    1.7428 C.1     1  LIG1        0.1016
     29 C          -1.5293    9.2427    1.4322 C.1     1  LIG1       -0.0672
     30 C          -1.2524   10.3142    1.9019 C.1     1  LIG1       -0.1138
     31 H          -0.9996   11.2683    2.3057 H       1  LIG1        0.1232
     32 C          -4.1268    8.5141   -0.0773 C.ar    1  LIG1        0.0457
     33 C          -4.1160    9.7328   -0.7140 C.ar    1  LIG1        0.0824
     34 C          -5.4280   10.3143   -0.8457 C.ar    1  LIG1        0.0496
     35 C          -6.3916    9.5063   -0.3119 C.ar    1  LIG1       -0.0070
     36 S          -5.7433    8.0681    0.3588 S.2     1  LIG1       -0.0935
     37 H          -7.4540    9.6979   -0.2832 H       1  LIG1        0.0706
     38 N          -2.0072   10.8439   -1.7080 N.1     1  LIG1       -0.1908
     39 C          -2.9448   10.3443   -1.2515 C.1     1  LIG1        0.1015
     40 C          -5.6803   11.5688   -1.4700 C.1     1  LIG1       -0.0678
     41 C          -5.8844   12.6293   -1.9988 C.1     1  LIG1       -0.1139
     42 H          -6.0572   13.5700   -2.4700 H       1  LIG1        0.1232
@<TRIPOS>BOND
     1    11    10    1
     2    10     9    3
     3    42    41    1
     4    41    40    3
     5    38    39    3
     6    40    34    1
     7    21    20    1
     8     9     3    1
     9    39    33    1
    10    20    19    3
    11    34    33   ar
    12    34    35   ar
    13    33    32   ar
    14     7     8    3
    15    19    14    1
    16    17    18    3
    17    35    37    1
    18    35    36   ar
    19    18    13    1
    20    26    25   ar
    21    26    22   ar
    22     8     2    1
    23    32    25    1
    24    32    36   ar
    25     3     2   ar
    26     3     4   ar
    27    14    13   ar
    28    14    15   ar
    29    13    12   ar
    30    25    24   ar
    31    15    22    1
    32    15    16   ar
    33    22    23   ar
    34     2     1   ar
    35    12     4    1
    36    12    16   ar
    37     4     5   ar
    38    24    23   ar
    39    24    29    1
    40    23    28    1
    41    29    30    3
    42    28    27    3
    43     1     5   ar
    44     1     6    1
    45    30    31    1
