@<TRIPOS>MOLECULE
mol_data/opt/cam/geoms/mol2/5de5de-5de-5de.out
 42 45 0 0 0
SMALL
GASTEIGER

@<TRIPOS>ATOM
      1 C          -1.9412   -1.9367    0.3177 C.ar    1  LIG1       -0.0051
      2 C          -0.6740   -1.9066   -0.1888 C.ar    1  LIG1        0.0747
      3 C          -0.1231   -0.5769   -0.2493 C.ar    1  LIG1        0.0573
      4 C          -1.0092    0.3602    0.2330 C.ar    1  LIG1        0.0438
      5 S          -2.4965   -0.3774    0.7446 S.2     1  LIG1       -0.0935
      6 H          -2.5644   -2.8073    0.4616 H       1  LIG1        0.0707
      7 N           0.5721   -4.0251   -0.9863 N.1     1  LIG1       -0.1908
      8 C           0.0217   -3.0733   -0.6293 C.1     1  LIG1        0.1009
      9 C           1.1595   -0.2880   -0.7871 C.1     1  LIG1       -0.0672
     10 C           2.2456   -0.0617   -1.2507 C.1     1  LIG1       -0.1138
     11 H           3.2144    0.1401   -1.6484 H       1  LIG1        0.1232
     12 C          -0.8272    1.8020    0.3228 C.ar    1  LIG1        0.0463
     13 C           0.2120    2.5016    0.8883 C.ar    1  LIG1        0.0830
     14 C           0.0624    3.9291    0.7912 C.ar    1  LIG1        0.0579
     15 C          -1.1016    4.2807    0.1462 C.ar    1  LIG1        0.0444
     16 S          -2.0003    2.8823   -0.3463 S.2     1  LIG1       -0.0846
     17 N           2.1753    1.4116    2.1640 N.1     1  LIG1       -0.1908
     18 C           1.3001    1.8922    1.5812 C.1     1  LIG1        0.1016
     19 C           0.9877    4.8454    1.3588 C.1     1  LIG1       -0.0672
     20 C           1.7777    5.6071    1.8501 C.1     1  LIG1       -0.1138
     21 H           2.4837    6.2847    2.2742 H       1  LIG1        0.1232
     22 C          -1.6104    5.6180   -0.1203 C.ar    1  LIG1        0.0463
     23 C          -0.9650    6.6782   -0.7110 C.ar    1  LIG1        0.0830
     24 C          -1.7802    7.8592   -0.8143 C.ar    1  LIG1        0.0579
     25 C          -3.0392    7.6629   -0.2947 C.ar    1  LIG1        0.0444
     26 S          -3.2234    6.0548    0.3258 S.2     1  LIG1       -0.0846
     27 N           1.4123    6.5594   -1.7130 N.1     1  LIG1       -0.1908
     28 C           0.3534    6.6093   -1.2515 C.1     1  LIG1        0.1016
     29 C          -1.3332    9.0545   -1.4392 C.1     1  LIG1       -0.0672
     30 C          -0.9363   10.0543   -1.9762 C.1     1  LIG1       -0.1138
     31 H          -0.5789   10.9459   -2.4393 H       1  LIG1        0.1232
     32 C          -4.1455    8.6080   -0.2346 C.ar    1  LIG1        0.0457
     33 C          -4.1509    9.8895    0.2640 C.ar    1  LIG1        0.0824
     34 C          -5.4349   10.5345    0.1537 C.ar    1  LIG1        0.0496
     35 C          -6.3636    9.7108   -0.4166 C.ar    1  LIG1       -0.0070
     36 S          -5.7135    8.1812   -0.8364 S.2     1  LIG1       -0.0935
     37 H          -7.4010    9.9407   -0.6097 H       1  LIG1        0.0706
     38 N          -2.1329   11.0202    1.4124 N.1     1  LIG1       -0.1908
     39 C          -3.0283   10.5102    0.8880 C.1     1  LIG1        0.1015
     40 C          -5.6971   11.8606    0.6005 C.1     1  LIG1       -0.0678
     41 C          -5.9099   12.9815    0.9805 C.1     1  LIG1       -0.1139
     42 H          -6.0907   13.9756    1.3207 H       1  LIG1        0.1232
@<TRIPOS>BOND
     1    31    30    1
     2    30    29    3
     3    27    28    3
     4    11    10    1
     5    29    24    1
     6    28    23    1
     7    10     9    3
     8     7     8    3
     9    36    35   ar
    10    36    32   ar
    11    24    23   ar
    12    24    25   ar
    13     9     3    1
    14    23    22   ar
    15     8     2    1
    16    37    35    1
    17    35    34   ar
    18    16    15   ar
    19    16    12   ar
    20    25    32    1
    21    25    26   ar
    22     3     2   ar
    23     3     4   ar
    24    32    33   ar
    25     2     1   ar
    26    22    15    1
    27    22    26   ar
    28    15    14   ar
    29    34    33   ar
    30    34    40    1
    31     4    12    1
    32     4     5   ar
    33    33    39    1
    34     1     6    1
    35     1     5   ar
    36    12    13   ar
    37    40    41    3
    38    14    13   ar
    39    14    19    1
    40    39    38    3
    41    13    18    1
    42    41    42    1
    43    19    20    3
    44    18    17    3
    45    20    21    1
