@<TRIPOS>MOLECULE
mol_data/opt/cam/geoms/mol2/5de5de5de-5de.out
 42 45 0 0 0
SMALL
GASTEIGER

@<TRIPOS>ATOM
      1 C          -1.9362   -1.9366   -0.3397 C.ar    1  LIG1       -0.0051
      2 C          -0.6795   -1.9068    0.1925 C.ar    1  LIG1        0.0747
      3 C          -0.1296   -0.5772    0.2642 C.ar    1  LIG1        0.0573
      4 C          -1.0055    0.3600   -0.2359 C.ar    1  LIG1        0.0438
      5 S          -2.4823   -0.3772   -0.7777 S.2     1  LIG1       -0.0935
      6 H          -2.5564   -2.8070   -0.4963 H       1  LIG1        0.0707
      7 N           0.5497   -4.0257    1.0150 N.1     1  LIG1       -0.1908
      8 C           0.0069   -3.0737    0.6469 C.1     1  LIG1        0.1009
      9 C           1.1418   -0.2887    0.8281 C.1     1  LIG1       -0.0672
     10 C           2.2183   -0.0626    1.3137 C.1     1  LIG1       -0.1138
     11 H           3.1788    0.1389    1.7312 H       1  LIG1        0.1232
     12 C          -0.8215    1.8019   -0.3219 C.ar    1  LIG1        0.0463
     13 C           0.2292    2.5012   -0.8662 C.ar    1  LIG1        0.0830
     14 C           0.0779    3.9288   -0.7721 C.ar    1  LIG1        0.0579
     15 C          -1.0988    4.2806   -0.1508 C.ar    1  LIG1        0.0444
     16 S          -2.0077    2.8824    0.3233 S.2     1  LIG1       -0.0846
     17 N           2.2178    1.4109   -2.1017 N.1     1  LIG1       -0.1908
     18 C           1.3310    1.8916   -1.5369 C.1     1  LIG1        0.1016
     19 C           1.0148    4.8449   -1.3207 C.1     1  LIG1       -0.0672
     20 C           1.8147    5.6064   -1.7957 C.1     1  LIG1       -0.1138
     21 H           2.5294    6.2840   -2.2053 H       1  LIG1        0.1232
     22 C          -1.6127    5.6180    0.1054 C.ar    1  LIG1        0.0463
     23 C          -0.9791    6.6780    0.7092 C.ar    1  LIG1        0.0830
     24 C          -1.7959    7.8592    0.7960 C.ar    1  LIG1        0.0579
     25 C          -3.0442    7.6632    0.2510 C.ar    1  LIG1        0.0444
     26 S          -3.2162    6.0552   -0.3733 S.2     1  LIG1       -0.0846
     27 N           1.3773    6.5586    1.7592 N.1     1  LIG1       -0.1908
     28 C           0.3281    6.6088    1.2763 C.1     1  LIG1        0.1016
     29 C          -1.3615    9.0543    1.4300 C.1     1  LIG1       -0.0672
     30 C          -0.9754   10.0540    1.9750 C.1     1  LIG1       -0.1138
     31 H          -0.6273   10.9456    2.4452 H       1  LIG1        0.1232
     32 C          -4.1489    8.6086    0.1684 C.ar    1  LIG1        0.0457
     33 C          -4.1438    9.8901   -0.3301 C.ar    1  LIG1        0.0824
     34 C          -5.4296   10.5354   -0.2458 C.ar    1  LIG1        0.0496
     35 C          -6.3700    9.7119    0.3055 C.ar    1  LIG1       -0.0070
     36 S          -5.7288    8.1821    0.7383 S.2     1  LIG1       -0.0935
     37 H          -7.4110    9.9420    0.4774 H       1  LIG1        0.0706
     38 N          -2.1027   11.0204   -1.4372 N.1     1  LIG1       -0.1908
     39 C          -3.0087   10.5106   -0.9312 C.1     1  LIG1        0.1015
     40 C          -5.6825   11.8616   -0.6978 C.1     1  LIG1       -0.0678
     41 C          -5.8873   12.9825   -1.0820 C.1     1  LIG1       -0.1139
     42 H          -6.0609   13.9767   -1.4257 H       1  LIG1        0.1232
@<TRIPOS>BOND
     1    21    20    1
     2    17    18    3
     3    20    19    3
     4    18    13    1
     5    38    39    3
     6    42    41    1
     7    19    14    1
     8    41    40    3
     9    39    33    1
    10    13    14   ar
    11    13    12   ar
    12     5     1   ar
    13     5     4   ar
    14    14    15   ar
    15    40    34    1
    16     6     1    1
    17    26    22   ar
    18    26    25   ar
    19     1     2   ar
    20    33    34   ar
    21    33    32   ar
    22    12     4    1
    23    12    16   ar
    24    34    35   ar
    25     4     3   ar
    26    15    22    1
    27    15    16   ar
    28    22    23   ar
    29    32    25    1
    30    32    36   ar
    31     2     3   ar
    32     2     8    1
    33    25    24   ar
    34     3     9    1
    35    35    37    1
    36    35    36   ar
    37     8     7    3
    38    23    24   ar
    39    23    28    1
    40    24    29    1
    41     9    10    3
    42    28    27    3
    43    10    11    1
    44    29    30    3
    45    30    31    1
