@<TRIPOS>MOLECULE
mol_data/opt/cam/geoms/mol2/5de5de5de5de.out
 42 45 0 0 0
SMALL
GASTEIGER

@<TRIPOS>ATOM
      1 C          -1.9314   -1.9359   -0.3572 C.ar    1  LIG1       -0.0051
      2 C          -0.6742   -1.9068    0.1738 C.ar    1  LIG1        0.0747
      3 C          -0.1252   -0.5770    0.2491 C.ar    1  LIG1        0.0573
      4 C          -1.0024    0.3611   -0.2471 C.ar    1  LIG1        0.0438
      5 S          -2.4792   -0.3755   -0.7897 S.2     1  LIG1       -0.0935
      6 H          -2.5512   -2.8063   -0.5158 H       1  LIG1        0.0707
      7 N           0.5575   -4.0273    0.9883 N.1     1  LIG1       -0.1908
      8 C           0.0136   -3.0746    0.6238 C.1     1  LIG1        0.1009
      9 C           1.1466   -0.2893    0.8124 C.1     1  LIG1       -0.0672
     10 C           2.2234   -0.0639    1.2975 C.1     1  LIG1       -0.1138
     11 H           3.1844    0.1373    1.7140 H       1  LIG1        0.1232
     12 C          -0.8195    1.8033   -0.3287 C.ar    1  LIG1        0.0463
     13 C           0.2301    2.5052   -0.8719 C.ar    1  LIG1        0.0830
     14 C           0.0779    3.9323   -0.7731 C.ar    1  LIG1        0.0579
     15 C          -1.0985    4.2813   -0.1495 C.ar    1  LIG1        0.0444
     16 S          -2.0058    2.8809    0.3212 S.2     1  LIG1       -0.0846
     17 N           2.2180    1.4202   -2.1131 N.1     1  LIG1       -0.1908
     18 C           1.3315    1.8985   -1.5458 C.1     1  LIG1        0.1016
     19 C           1.0134    4.8509   -1.3199 C.1     1  LIG1       -0.0672
     20 C           1.8123    5.6145   -1.7934 C.1     1  LIG1       -0.1138
     21 H           2.5257    6.2942   -2.2016 H       1  LIG1        0.1232
     22 C          -1.6130    5.6175    0.1115 C.ar    1  LIG1        0.0463
     23 C          -0.9797    6.6761    0.7181 C.ar    1  LIG1        0.0830
     24 C          -1.7972    7.8564    0.8094 C.ar    1  LIG1        0.0579
     25 C          -3.0458    7.6613    0.2650 C.ar    1  LIG1        0.0444
     26 S          -3.2173    6.0551   -0.3643 S.2     1  LIG1       -0.0846
     27 N           1.3778    6.5549    1.7655 N.1     1  LIG1       -0.1908
     28 C           0.3281    6.6059    1.2838 C.1     1  LIG1        0.1016
     29 C          -1.3630    9.0498    1.4468 C.1     1  LIG1       -0.0672
     30 C          -0.9770   10.0480    1.9946 C.1     1  LIG1       -0.1138
     31 H          -0.6281   10.9375    2.4680 H       1  LIG1        0.1232
     32 C          -4.1512    8.6061    0.1866 C.ar    1  LIG1        0.0457
     33 C          -4.1475    9.8892   -0.3080 C.ar    1  LIG1        0.0824
     34 C          -5.4337   10.5334   -0.2203 C.ar    1  LIG1        0.0496
     35 C          -6.3729    9.7075    0.3293 C.ar    1  LIG1       -0.0070
     36 S          -5.7303    8.1768    0.7566 S.2     1  LIG1       -0.0935
     37 H          -7.4139    9.9365    0.5031 H       1  LIG1        0.0706
     38 N          -2.1082   11.0244   -1.4134 N.1     1  LIG1       -0.1908
     39 C          -3.0134   10.5123   -0.9081 C.1     1  LIG1        0.1015
     40 C          -5.6878   11.8609   -0.6678 C.1     1  LIG1       -0.0678
     41 C          -5.8937   12.9828   -1.0482 C.1     1  LIG1       -0.1139
     42 H          -6.0686   13.9778   -1.3893 H       1  LIG1        0.1232
@<TRIPOS>BOND
     1    21    20    1
     2    17    18    3
     3    20    19    3
     4    18    13    1
     5    38    39    3
     6    42    41    1
     7    19    14    1
     8    41    40    3
     9    39    33    1
    10    13    14   ar
    11    13    12   ar
    12     5     1   ar
    13     5     4   ar
    14    14    15   ar
    15    40    34    1
    16     6     1    1
    17    26    22   ar
    18    26    25   ar
    19     1     2   ar
    20    12     4    1
    21    12    16   ar
    22    33    34   ar
    23    33    32   ar
    24     4     3   ar
    25    34    35   ar
    26    15    22    1
    27    15    16   ar
    28    22    23   ar
    29     2     3   ar
    30     2     8    1
    31    32    25    1
    32    32    36   ar
    33     3     9    1
    34    25    24   ar
    35    35    37    1
    36    35    36   ar
    37     8     7    3
    38    23    24   ar
    39    23    28    1
    40    24    29    1
    41     9    10    3
    42    28    27    3
    43    10    11    1
    44    29    30    3
    45    30    31    1
