@<TRIPOS>MOLECULE
mol_data/opt/cam/geoms/mol2/5de5de-5de5de.out
 42 45 0 0 0
SMALL
GASTEIGER

@<TRIPOS>ATOM
      1 C          -1.9417   -1.9365   -0.3136 C.ar    1  LIG1       -0.0051
      2 C          -0.6762   -1.9069    0.1972 C.ar    1  LIG1        0.0747
      3 C          -0.1252   -0.5774    0.2606 C.ar    1  LIG1        0.0573
      4 C          -1.0095    0.3602   -0.2240 C.ar    1  LIG1        0.0438
      5 S          -2.4952   -0.3767   -0.7412 S.2     1  LIG1       -0.0935
      6 H          -2.5645   -2.8068   -0.4602 H       1  LIG1        0.0707
      7 N           0.5668   -4.0264    0.9974 N.1     1  LIG1       -0.1908
      8 C           0.0178   -3.0741    0.6391 C.1     1  LIG1        0.1009
      9 C           1.1556   -0.2892    0.8030 C.1     1  LIG1       -0.0672
     10 C           2.2402   -0.0634    1.2704 C.1     1  LIG1       -0.1138
     11 H           3.2077    0.1379    1.6716 H       1  LIG1        0.1232
     12 C          -0.8269    1.8021   -0.3121 C.ar    1  LIG1        0.0463
     13 C           0.2144    2.5018   -0.8736 C.ar    1  LIG1        0.0830
     14 C           0.0647    3.9293   -0.7759 C.ar    1  LIG1        0.0579
     15 C          -1.1014    4.2807   -0.1346 C.ar    1  LIG1        0.0444
     16 S          -2.0020    2.8821    0.3539 S.2     1  LIG1       -0.0846
     17 N           2.1817    1.4124   -2.1434 N.1     1  LIG1       -0.1908
     18 C           1.3046    1.8927   -1.5633 C.1     1  LIG1        0.1016
     19 C           0.9921    4.8459   -1.3397 C.1     1  LIG1       -0.0672
     20 C           1.7839    5.6077   -1.8277 C.1     1  LIG1       -0.1138
     21 H           2.4915    6.2855   -2.2489 H       1  LIG1        0.1232
     22 C          -1.6108    5.6179    0.1312 C.ar    1  LIG1        0.0463
     23 C          -0.9672    6.6775    0.7250 C.ar    1  LIG1        0.0830
     24 C          -1.7824    7.8586    0.8264 C.ar    1  LIG1        0.0579
     25 C          -3.0397    7.6630    0.3024 C.ar    1  LIG1        0.0444
     26 S          -3.2221    6.0554   -0.3200 S.2     1  LIG1       -0.0846
     27 N           1.4067    6.5573    1.7350 N.1     1  LIG1       -0.1908
     28 C           0.3494    6.6079    1.2700 C.1     1  LIG1        0.1016
     29 C          -1.3373    9.0533    1.4538 C.1     1  LIG1       -0.0672
     30 C          -0.9420   10.0526    1.9929 C.1     1  LIG1       -0.1138
     31 H          -0.5859   10.9438    2.4579 H       1  LIG1        0.1232
     32 C          -4.1456    8.6084    0.2393 C.ar    1  LIG1        0.0457
     33 C          -4.1489    9.8902   -0.2584 C.ar    1  LIG1        0.0824
     34 C          -5.4331   10.5355   -0.1519 C.ar    1  LIG1        0.0496
     35 C          -6.3640    9.7116    0.4146 C.ar    1  LIG1       -0.0070
     36 S          -5.7156    8.1815    0.8355 S.2     1  LIG1       -0.0935
     37 H          -7.4019    9.9416    0.6044 H       1  LIG1        0.0706
     38 N          -2.1268   11.0213   -1.3991 N.1     1  LIG1       -0.1908
     39 C          -3.0241   10.5111   -0.8781 C.1     1  LIG1        0.1015
     40 C          -5.6936   11.8620   -0.5986 C.1     1  LIG1       -0.0678
     41 C          -5.9048   12.9832   -0.9785 C.1     1  LIG1       -0.1139
     42 H          -6.0842   13.9777   -1.3185 H       1  LIG1        0.1232
@<TRIPOS>BOND
     1    21    20    1
     2    17    18    3
     3    20    19    3
     4    18    13    1
     5    38    39    3
     6    19    14    1
     7    42    41    1
     8    41    40    3
     9    39    33    1
    10    13    14   ar
    11    13    12   ar
    12    14    15   ar
    13     5     1   ar
    14     5     4   ar
    15    40    34    1
    16     6     1    1
    17    26    22   ar
    18    26    25   ar
    19     1     2   ar
    20    12     4    1
    21    12    16   ar
    22    33    34   ar
    23    33    32   ar
    24     4     3   ar
    25    34    35   ar
    26    15    22    1
    27    15    16   ar
    28    22    23   ar
    29     2     3   ar
    30     2     8    1
    31    32    25    1
    32    32    36   ar
    33     3     9    1
    34    25    24   ar
    35    35    37    1
    36    35    36   ar
    37     8     7    3
    38    23    24   ar
    39    23    28    1
    40     9    10    3
    41    24    29    1
    42    28    27    3
    43    10    11    1
    44    29    30    3
    45    30    31    1
