@<TRIPOS>MOLECULE
mol_data/opt/cam/geoms/mol2/5de5de5de5de-.out
 42 45 0 0 0
SMALL
GASTEIGER

@<TRIPOS>ATOM
      1 C          -1.9356   -1.9365   -0.3422 C.ar    1  LIG1       -0.0051
      2 C          -0.6769   -1.9067    0.1851 C.ar    1  LIG1        0.0747
      3 C          -0.1271   -0.5770    0.2553 C.ar    1  LIG1        0.0573
      4 C          -1.0052    0.3603   -0.2408 C.ar    1  LIG1        0.0438
      5 S          -2.4839   -0.3770   -0.7772 S.2     1  LIG1       -0.0935
      6 H          -2.5563   -2.8070   -0.4967 H       1  LIG1        0.0707
      7 N           0.5561   -4.0257    1.0016 N.1     1  LIG1       -0.1908
      8 C           0.0116   -3.0736    0.6362 C.1     1  LIG1        0.1009
      9 C           1.1465   -0.2884    0.8143 C.1     1  LIG1       -0.0672
     10 C           2.2249   -0.0623    1.2957 C.1     1  LIG1       -0.1138
     11 H           3.1870    0.1393    1.7095 H       1  LIG1        0.1232
     12 C          -0.8218    1.8022   -0.3268 C.ar    1  LIG1        0.0463
     13 C           0.2266    2.5021   -0.8748 C.ar    1  LIG1        0.0830
     14 C           0.0753    3.9296   -0.7793 C.ar    1  LIG1        0.0579
     15 C          -1.0991    4.2808   -0.1533 C.ar    1  LIG1        0.0444
     16 S          -2.0057    2.8821    0.3237 S.2     1  LIG1       -0.0846
     17 N           2.2105    1.4130   -2.1188 N.1     1  LIG1       -0.1908
     18 C           1.3258    1.8932   -1.5502 C.1     1  LIG1        0.1016
     19 C           1.0097    4.8463   -1.3312 C.1     1  LIG1       -0.0672
     20 C           1.8076    5.6082   -1.8090 C.1     1  LIG1       -0.1138
     21 H           2.5205    6.2861   -2.2211 H       1  LIG1        0.1232
     22 C          -1.6123    5.6179    0.1056 C.ar    1  LIG1        0.0463
     23 C          -0.9767    6.6778    0.7075 C.ar    1  LIG1        0.0830
     24 C          -1.7934    7.8587    0.7981 C.ar    1  LIG1        0.0579
     25 C          -3.0438    7.6627    0.2579 C.ar    1  LIG1        0.0444
     26 S          -3.2177    6.0549   -0.3666 S.2     1  LIG1       -0.0846
     27 N           1.3839    6.5584    1.7482 N.1     1  LIG1       -0.1908
     28 C           0.3327    6.6086    1.2695 C.1     1  LIG1        0.1016
     29 C          -1.3568    9.0536    1.4310 C.1     1  LIG1       -0.0672
     30 C          -0.9688   10.0531    1.9750 C.1     1  LIG1       -0.1138
     31 H          -0.6191   10.9445    2.4444 H       1  LIG1        0.1232
     32 C          -4.1490    8.6078    0.1802 C.ar    1  LIG1        0.0457
     33 C          -4.1462    9.8896   -0.3176 C.ar    1  LIG1        0.0824
     34 C          -5.4319   10.5345   -0.2280 C.ar    1  LIG1        0.0496
     35 C          -6.3699    9.7104    0.3265 C.ar    1  LIG1       -0.0070
     36 S          -5.7266    8.1806    0.7560 S.2     1  LIG1       -0.0935
     37 H          -7.4102    9.9402    0.5027 H       1  LIG1        0.0706
     38 N          -2.1097   11.0210   -1.4321 N.1     1  LIG1       -0.1908
     39 C          -3.0136   10.5107   -0.9228 C.1     1  LIG1        0.1015
     40 C          -5.6868   11.8609   -0.6782 C.1     1  LIG1       -0.0678
     41 C          -5.8934   12.9819   -1.0610 C.1     1  LIG1       -0.1139
     42 H          -6.0686   13.9763   -1.4035 H       1  LIG1        0.1232
@<TRIPOS>BOND
     1    21    20    1
     2    17    18    3
     3    20    19    3
     4    18    13    1
     5    38    39    3
     6    42    41    1
     7    19    14    1
     8    41    40    3
     9    39    33    1
    10    13    14   ar
    11    13    12   ar
    12    14    15   ar
    13     5     1   ar
    14     5     4   ar
    15    40    34    1
    16     6     1    1
    17    26    22   ar
    18    26    25   ar
    19     1     2   ar
    20    12     4    1
    21    12    16   ar
    22    33    34   ar
    23    33    32   ar
    24     4     3   ar
    25    34    35   ar
    26    15    22    1
    27    15    16   ar
    28    22    23   ar
    29    32    25    1
    30    32    36   ar
    31     2     3   ar
    32     2     8    1
    33     3     9    1
    34    25    24   ar
    35    35    37    1
    36    35    36   ar
    37     8     7    3
    38    23    24   ar
    39    23    28    1
    40    24    29    1
    41     9    10    3
    42    28    27    3
    43    10    11    1
    44    29    30    3
    45    30    31    1
