@<TRIPOS>MOLECULE
mol_data/opt/cam/geoms/mol2/5de5de.out
 22 23 0 0 0
SMALL
GASTEIGER

@<TRIPOS>ATOM
      1 C          -2.0277   -1.7214    0.7054 C.ar    1  LIG1       -0.0051
      2 C          -0.7509   -1.8238    0.2337 C.ar    1  LIG1        0.0747
      3 C          -0.1796   -0.5507   -0.1254 C.ar    1  LIG1        0.0573
      4 C          -1.0597    0.4827    0.1023 C.ar    1  LIG1        0.0438
      5 S          -2.5660   -0.0992    0.7420 S.2     1  LIG1       -0.0935
      6 H          -2.6667   -2.5276    1.0346 H       1  LIG1        0.0707
      7 N           0.4788   -4.0825   -0.0179 N.1     1  LIG1       -0.1908
      8 C          -0.0644   -3.0681    0.0943 C.1     1  LIG1        0.1009
      9 C           1.1193   -0.4106   -0.6844 C.1     1  LIG1       -0.0672
     10 C           2.2197   -0.3161   -1.1598 C.1     1  LIG1       -0.1138
     11 H           3.2017   -0.2307   -1.5664 H       1  LIG1        0.1232
     12 C          -0.8585    1.9049   -0.1423 C.ar    1  LIG1        0.0457
     13 C           0.1708    2.7106    0.2835 C.ar    1  LIG1        0.0824
     14 C           0.0420    4.0763   -0.1589 C.ar    1  LIG1        0.0496
     15 C          -1.0916    4.2601   -0.8986 C.ar    1  LIG1       -0.0070
     16 S          -1.9940    2.8142   -1.0835 S.2     1  LIG1       -0.0935
     17 H          -1.4314    5.1836   -1.3433 H       1  LIG1        0.0706
     18 N           2.0926    1.9383    1.8263 N.1     1  LIG1       -0.1908
     19 C           1.2337    2.2721    1.1279 C.1     1  LIG1        0.1015
     20 C           0.9774    5.1033    0.1538 C.1     1  LIG1       -0.0678
     21 C           1.7723    5.9647    0.4221 C.1     1  LIG1       -0.1139
     22 H           2.4815    6.7227    0.6653 H       1  LIG1        0.1232
@<TRIPOS>BOND
     1    11    10    1
     2    17    15    1
     3    10     9    3
     4    16    15   ar
     5    16    12   ar
     6    15    14   ar
     7     9     3    1
     8    14    20    1
     9    14    13   ar
    10    12     4    1
    11    12    13   ar
    12     3     4   ar
    13     3     2   ar
    14     7     8    3
    15     8     2    1
    16     4     5   ar
    17    20    21    3
    18     2     1   ar
    19    13    19    1
    20    21    22    1
    21     1     5   ar
    22     1     6    1
    23    19    18    3
