@<TRIPOS>MOLECULE
mol_data/opt/cam/geoms/mol2/5de5de5de-.out
 32 34 0 0 0
SMALL
GASTEIGER

@<TRIPOS>ATOM
      1 C          -1.7631   -1.6518   -1.4900 C.ar    1  LIG1       -0.0051
      2 C          -0.8048   -1.8336   -0.5349 C.ar    1  LIG1        0.0747
      3 C          -0.2913   -0.5942   -0.0102 C.ar    1  LIG1        0.0573
      4 C          -0.8867    0.4938   -0.6073 C.ar    1  LIG1        0.0438
      5 S          -2.0612    0.0043   -1.7895 S.2     1  LIG1       -0.0935
      6 H          -2.2979   -2.4194   -2.0299 H       1  LIG1        0.0707
      7 N          -0.0363   -4.1681    0.2630 N.1     1  LIG1       -0.1908
      8 C          -0.3736   -3.1207   -0.0914 C.1     1  LIG1        0.1009
      9 C           0.6780   -0.5299    1.0267 C.1     1  LIG1       -0.0672
     10 C           1.4960   -0.4992    1.9075 C.1     1  LIG1       -0.1138
     11 H           2.2338   -0.4729    2.6770 H       1  LIG1        0.1232
     12 C          -0.6473    1.9057   -0.3392 C.ar    1  LIG1        0.0463
     13 C           0.5465    2.5862   -0.3345 C.ar    1  LIG1        0.0830
     14 C           0.4090    3.9821   -0.0130 C.ar    1  LIG1        0.0579
     15 C          -0.9040    4.3346    0.1984 C.ar    1  LIG1        0.0444
     16 S          -1.9594    2.9697    0.0305 S.2     1  LIG1       -0.0846
     17 N           2.8277    1.5288   -0.9249 N.1     1  LIG1       -0.1908
     18 C           1.8043    1.9937   -0.6546 C.1     1  LIG1        0.1016
     19 C           1.5175    4.8648    0.0935 C.1     1  LIG1       -0.0672
     20 C           2.4694    5.5938    0.1825 C.1     1  LIG1       -0.1138
     21 H           3.3128    6.2435    0.2441 H       1  LIG1        0.1232
     22 C          -1.4391    5.6450    0.5435 C.ar    1  LIG1        0.0457
     23 C          -1.2376    6.8468   -0.0932 C.ar    1  LIG1        0.0824
     24 C          -1.9269    7.9442    0.5370 C.ar    1  LIG1        0.0496
     25 C          -2.6386    7.5306    1.6274 C.ar    1  LIG1       -0.0070
     26 S          -2.4785    5.8484    1.9149 S.2     1  LIG1       -0.0935
     27 H          -3.2471    8.1452    2.2741 H       1  LIG1        0.0706
     28 N           0.1178    7.1385   -2.2721 N.1     1  LIG1       -0.1908
     29 C          -0.4786    7.0002   -1.2913 C.1     1  LIG1        0.1015
     30 C          -1.8785    9.2869    0.0658 C.1     1  LIG1       -0.0678
     31 C          -1.8320   10.4183   -0.3388 C.1     1  LIG1       -0.1139
     32 H          -1.7864   11.4188   -0.7044 H       1  LIG1        0.1232
@<TRIPOS>BOND
     1    28    29    3
     2     6     1    1
     3     5     1   ar
     4     5     4   ar
     5     1     2   ar
     6    29    23    1
     7    17    18    3
     8    32    31    1
     9    18    13    1
    10     4    12    1
    11     4     3   ar
    12     2     8    1
    13     2     3   ar
    14    12    13   ar
    15    12    16   ar
    16    31    30    3
    17    13    14   ar
    18    23    24   ar
    19    23    22   ar
    20     8     7    3
    21    14    19    1
    22    14    15   ar
    23     3     9    1
    24    16    15   ar
    25    30    24    1
    26    19    20    3
    27    20    21    1
    28    15    22    1
    29    24    25   ar
    30    22    26   ar
    31     9    10    3
    32    25    26   ar
    33    25    27    1
    34    10    11    1
