@<TRIPOS>MOLECULE
mol_data/opt/cam/geoms/mol2/5de5de5de.out
 32 34 0 0 0
SMALL
GASTEIGER

@<TRIPOS>ATOM
      1 C          -1.7935   -1.6495    1.4680 C.ar    1  LIG1       -0.0051
      2 C          -0.8145   -1.8327    0.5344 C.ar    1  LIG1        0.0747
      3 C          -0.2903   -0.5940    0.0184 C.ar    1  LIG1        0.0573
      4 C          -0.8989    0.4948    0.6005 C.ar    1  LIG1        0.0438
      5 S          -2.0988    0.0071    1.7576 S.2     1  LIG1       -0.0935
      6 H          -2.3395   -2.4163    1.9978 H       1  LIG1        0.0707
      7 N          -0.0275   -4.1683   -0.2419 N.1     1  LIG1       -0.1908
      8 C          -0.3729   -3.1204    0.1031 C.1     1  LIG1        0.1009
      9 C           0.7014   -0.5313   -0.9971 C.1     1  LIG1       -0.0672
     10 C           1.5382   -0.5020   -1.8600 C.1     1  LIG1       -0.1138
     11 H           2.2928   -0.4772   -2.6131 H       1  LIG1        0.1232
     12 C          -0.6541    1.9063    0.3350 C.ar    1  LIG1        0.0463
     13 C           0.5393    2.5872    0.3553 C.ar    1  LIG1        0.0830
     14 C           0.4084    3.9825    0.0283 C.ar    1  LIG1        0.0579
     15 C          -0.8997    4.3340   -0.2129 C.ar    1  LIG1        0.0444
     16 S          -1.9581    2.9691   -0.0658 S.2     1  LIG1       -0.0846
     17 N           2.8072    1.5318    0.9979 N.1     1  LIG1       -0.1908
     18 C           1.7899    1.9958    0.7042 C.1     1  LIG1        0.1016
     19 C           1.5187    4.8654   -0.0553 C.1     1  LIG1       -0.0672
     20 C           2.4722    5.5945   -0.1249 C.1     1  LIG1       -0.1138
     21 H           3.3164    6.2445   -0.1697 H       1  LIG1        0.1232
     22 C          -1.4274    5.6436   -0.5723 C.ar    1  LIG1        0.0457
     23 C          -1.2406    6.8466    0.0665 C.ar    1  LIG1        0.0824
     24 C          -1.9164    7.9425   -0.5808 C.ar    1  LIG1        0.0496
     25 C          -2.6033    7.5267   -1.6861 C.ar    1  LIG1       -0.0070
     26 S          -2.4358    5.8441   -1.9670 S.2     1  LIG1       -0.0935
     27 H          -3.1975    8.1399   -2.3472 H       1  LIG1        0.0706
     28 N           0.0657    7.1428    2.2747 N.1     1  LIG1       -0.1908
     29 C          -0.5086    7.0025    1.2809 C.1     1  LIG1        0.1015
     30 C          -1.8792    9.2860   -0.1109 C.1     1  LIG1       -0.0678
     31 C          -1.8423   10.4182    0.2927 C.1     1  LIG1       -0.1139
     32 H          -1.8052   11.4193    0.6576 H       1  LIG1        0.1232
@<TRIPOS>BOND
     1    11    10    1
     2    27    25    1
     3    26    25   ar
     4    26    22   ar
     5    10     9    3
     6    25    24   ar
     7     9     3    1
     8    24    30    1
     9    24    23   ar
    10    22    15    1
    11    22    23   ar
    12     7     8    3
    13    15    16   ar
    14    15    14   ar
    15    21    20    1
    16    20    19    3
    17    30    31    3
    18    16    12   ar
    19    19    14    1
    20     3     2   ar
    21     3     4   ar
    22    14    13   ar
    23    23    29    1
    24     8     2    1
    25    31    32    1
    26    12    13   ar
    27    12     4    1
    28    13    18    1
    29     2     1   ar
    30     4     5   ar
    31    18    17    3
    32    29    28    3
    33     1     5   ar
    34     1     6    1
