@<TRIPOS>MOLECULE
mol_data/opt/cam/geoms/mol2/5de5de-5de.out
 32 34 0 0 0
SMALL
GASTEIGER

@<TRIPOS>ATOM
      1 C          -1.9105   -1.8887    0.5265 C.ar    1  LIG1       -0.0051
      2 C          -0.7736   -1.8371   -0.2272 C.ar    1  LIG1        0.0747
      3 C          -0.2366   -0.5056   -0.3460 C.ar    1  LIG1        0.0573
      4 C          -0.9978    0.4105    0.3446 C.ar    1  LIG1        0.0438
      5 S          -2.3546   -0.3484    1.1200 S.2     1  LIG1       -0.0935
      6 H          -2.4979   -2.7648    0.7596 H       1  LIG1        0.0707
      7 N           0.2668   -3.9207   -1.3468 N.1     1  LIG1       -0.1908
      8 C          -0.1917   -2.9844   -0.8470 C.1     1  LIG1        0.1009
      9 C           0.9113   -0.1940   -1.1227 C.1     1  LIG1       -0.0672
     10 C           1.8814    0.0522   -1.7889 C.1     1  LIG1       -0.1138
     11 H           2.7498    0.2709   -2.3682 H       1  LIG1        0.1232
     12 C          -0.7889    1.8475    0.4537 C.ar    1  LIG1        0.0463
     13 C           0.3496    2.5218    0.8254 C.ar    1  LIG1        0.0830
     14 C           0.1962    3.9523    0.8190 C.ar    1  LIG1        0.0579
     15 C          -1.0705    4.3324    0.4389 C.ar    1  LIG1        0.0444
     16 S          -2.0621    2.9566    0.0801 S.2     1  LIG1       -0.0846
     17 N           2.5202    1.3784    1.6323 N.1     1  LIG1       -0.1908
     18 C           1.5496    1.8831    1.2583 C.1     1  LIG1        0.1016
     19 C           1.2282    4.8425    1.2212 C.1     1  LIG1       -0.0672
     20 C           2.1134    5.5777    1.5696 C.1     1  LIG1       -0.1138
     21 H           2.9038    6.2301    1.8643 H       1  LIG1        0.1232
     22 C          -1.6108    5.6806    0.3317 C.ar    1  LIG1        0.0457
     23 C          -1.0951    6.7583   -0.3489 C.ar    1  LIG1        0.0824
     24 C          -1.9041    7.9448   -0.2271 C.ar    1  LIG1        0.0496
     25 C          -3.0150    7.7195    0.5354 C.ar    1  LIG1       -0.0070
     26 S          -3.0929    6.1100    1.1204 S.2     1  LIG1       -0.0935
     27 H          -3.7883    8.4328    0.7790 H       1  LIG1        0.0706
     28 N           1.0278    6.6820   -1.8176 N.1     1  LIG1       -0.1908
     29 C           0.0841    6.7094   -1.1500 C.1     1  LIG1        0.1015
     30 C          -1.5850    9.1888   -0.8417 C.1     1  LIG1       -0.0678
     31 C          -1.3077   10.2357   -1.3642 C.1     1  LIG1       -0.1139
     32 H          -1.0553   11.1601   -1.8317 H       1  LIG1        0.1232
@<TRIPOS>BOND
     1    11    10    1
     2    32    31    1
     3    28    29    3
     4    10     9    3
     5    31    30    3
     6     7     8    3
     7    29    23    1
     8     9     3    1
     9     8     2    1
    10    30    24    1
    11    23    24   ar
    12    23    22   ar
    13     3     2   ar
    14     3     4   ar
    15     2     1   ar
    16    24    25   ar
    17    16    15   ar
    18    16    12   ar
    19    22    15    1
    20    22    26   ar
    21     4    12    1
    22     4     5   ar
    23    15    14   ar
    24    12    13   ar
    25     1     6    1
    26     1     5   ar
    27    25    27    1
    28    25    26   ar
    29    14    13   ar
    30    14    19    1
    31    13    18    1
    32    19    20    3
    33    18    17    3
    34    20    21    1
