@<TRIPOS>MOLECULE
mol_data/opt/cam/geoms/mol2/5de5de-5de-5de-.out
 42 45 0 0 0
SMALL
GASTEIGER

@<TRIPOS>ATOM
      1 C          -1.9429   -1.9363    0.3226 C.ar    1  LIG1       -0.0051
      2 C          -0.6754   -1.9071   -0.1836 C.ar    1  LIG1        0.0747
      3 C          -0.1243   -0.5775   -0.2456 C.ar    1  LIG1        0.0573
      4 C          -1.0104    0.3603    0.2350 C.ar    1  LIG1        0.0438
      5 S          -2.4981   -0.3764    0.7471 S.2     1  LIG1       -0.0935
      6 H          -2.5662   -2.8066    0.4673 H       1  LIG1        0.0707
      7 N           0.5706   -4.0269   -0.9778 N.1     1  LIG1       -0.1908
      8 C           0.0202   -3.0745   -0.6222 C.1     1  LIG1        0.1009
      9 C           1.1585   -0.2896   -0.7834 C.1     1  LIG1       -0.0672
     10 C           2.2448   -0.0640   -1.2468 C.1     1  LIG1       -0.1138
     11 H           3.2138    0.1371   -1.6444 H       1  LIG1        0.1232
     12 C          -0.8282    1.8022    0.3229 C.ar    1  LIG1        0.0463
     13 C           0.2109    2.5023    0.8880 C.ar    1  LIG1        0.0830
     14 C           0.0616    3.9298    0.7888 C.ar    1  LIG1        0.0579
     15 C          -1.1020    4.2808    0.1428 C.ar    1  LIG1        0.0444
     16 S          -2.0008    2.8818   -0.3482 S.2     1  LIG1       -0.0846
     17 N           2.1733    1.4136    2.1660 N.1     1  LIG1       -0.1908
     18 C           1.2985    1.8936    1.5822 C.1     1  LIG1        0.1016
     19 C           0.9868    4.8467    1.3556 C.1     1  LIG1       -0.0672
     20 C           1.7768    5.6088    1.8462 C.1     1  LIG1       -0.1138
     21 H           2.4828    6.2869    2.2696 H       1  LIG1        0.1232
     22 C          -1.6104    5.6178   -0.1257 C.ar    1  LIG1        0.0463
     23 C          -0.9645    6.6770   -0.7178 C.ar    1  LIG1        0.0830
     24 C          -1.7792    7.8581   -0.8230 C.ar    1  LIG1        0.0579
     25 C          -3.0385    7.6629   -0.3036 C.ar    1  LIG1        0.0444
     26 S          -3.2233    6.0557    0.3192 S.2     1  LIG1       -0.0846
     27 N           1.4131    6.5560   -1.7189 N.1     1  LIG1       -0.1908
     28 C           0.3541    6.6069   -1.2578 C.1     1  LIG1        0.1016
     29 C          -1.3318    9.0523   -1.4495 C.1     1  LIG1       -0.0672
     30 C          -0.9344   10.0512   -1.9878 C.1     1  LIG1       -0.1138
     31 H          -0.5765   10.9421   -2.4521 H       1  LIG1        0.1232
     32 C          -4.1445    8.6084   -0.2452 C.ar    1  LIG1        0.0457
     33 C          -4.1496    9.8905    0.2518 C.ar    1  LIG1        0.0824
     34 C          -5.4333   10.5359    0.1400 C.ar    1  LIG1        0.0496
     35 C          -6.3622    9.7118   -0.4296 C.ar    1  LIG1       -0.0070
     36 S          -5.7124    8.1814   -0.8470 S.2     1  LIG1       -0.0935
     37 H          -7.3993    9.9418   -0.6233 H       1  LIG1        0.0706
     38 N          -2.1316   11.0221    1.3993 N.1     1  LIG1       -0.1908
     39 C          -3.0271   10.5117    0.8753 C.1     1  LIG1        0.1015
     40 C          -5.6953   11.8627    0.5849 C.1     1  LIG1       -0.0678
     41 C          -5.9079   12.9841    0.9633 C.1     1  LIG1       -0.1139
     42 H          -6.0886   13.9787    1.3023 H       1  LIG1        0.1232
@<TRIPOS>BOND
     1    31    30    1
     2    30    29    3
     3    27    28    3
     4    11    10    1
     5    29    24    1
     6    28    23    1
     7    10     9    3
     8     7     8    3
     9    36    35   ar
    10    36    32   ar
    11    24    23   ar
    12    24    25   ar
    13     9     3    1
    14    23    22   ar
    15    37    35    1
    16     8     2    1
    17    35    34   ar
    18    16    15   ar
    19    16    12   ar
    20    25    32    1
    21    25    26   ar
    22     3     2   ar
    23     3     4   ar
    24    32    33   ar
    25     2     1   ar
    26    22    15    1
    27    22    26   ar
    28    34    33   ar
    29    34    40    1
    30    15    14   ar
    31     4    12    1
    32     4     5   ar
    33    33    39    1
    34     1     6    1
    35     1     5   ar
    36    12    13   ar
    37    40    41    3
    38    14    13   ar
    39    14    19    1
    40    39    38    3
    41    13    18    1
    42    41    42    1
    43    19    20    3
    44    18    17    3
    45    20    21    1
