@<TRIPOS>MOLECULE
mol_data/opt/cam/geoms/mol2/5de5de-.out
 22 23 0 0 0
SMALL
GASTEIGER

@<TRIPOS>ATOM
      1 C          -2.0233   -1.7179    0.7244 C.ar    1  LIG1       -0.0051
      2 C          -0.7501   -1.8225    0.2436 C.ar    1  LIG1        0.0747
      3 C          -0.1812   -0.5511   -0.1252 C.ar    1  LIG1        0.0573
      4 C          -1.0592    0.4835    0.1050 C.ar    1  LIG1        0.0438
      5 S          -2.5609   -0.0953    0.7583 S.2     1  LIG1       -0.0935
      6 H          -2.6601   -2.5225    1.0617 H       1  LIG1        0.0707
      7 N           0.4771   -4.0826   -0.0079 N.1     1  LIG1       -0.1908
      8 C          -0.0650   -3.0676    0.1043 C.1     1  LIG1        0.1009
      9 C           1.1135   -0.4139   -0.6945 C.1     1  LIG1       -0.0672
     10 C           2.2102   -0.3219   -1.1789 C.1     1  LIG1       -0.1138
     11 H           3.1891   -0.2388   -1.5932 H       1  LIG1        0.1232
     12 C          -0.8594    1.9047   -0.1466 C.ar    1  LIG1        0.0457
     13 C           0.1737    2.7116    0.2676 C.ar    1  LIG1        0.0824
     14 C           0.0415    4.0757   -0.1791 C.ar    1  LIG1        0.0496
     15 C          -1.0979    4.2570   -0.9103 C.ar    1  LIG1       -0.0070
     16 S          -2.0022    2.8106   -1.0822 S.2     1  LIG1       -0.0935
     17 H          -1.4410    5.1789   -1.3558 H       1  LIG1        0.0706
     18 N           2.1076    1.9451    1.7981 N.1     1  LIG1       -0.1908
     19 C           1.2432    2.2762    1.1051 C.1     1  LIG1        0.1015
     20 C           0.9798    5.1035    0.1220 C.1     1  LIG1       -0.0678
     21 C           1.7771    5.9658    0.3805 C.1     1  LIG1       -0.1139
     22 H           2.4883    6.7246    0.6150 H       1  LIG1        0.1232
@<TRIPOS>BOND
     1    11    10    1
     2    17    15    1
     3    10     9    3
     4    16    15   ar
     5    16    12   ar
     6    15    14   ar
     7     9     3    1
     8    14    20    1
     9    14    13   ar
    10    12     4    1
    11    12    13   ar
    12     3     4   ar
    13     3     2   ar
    14     7     8    3
    15     8     2    1
    16     4     5   ar
    17    20    21    3
    18     2     1   ar
    19    13    19    1
    20    21    22    1
    21     1     5   ar
    22     1     6    1
    23    19    18    3
