@<TRIPOS>MOLECULE
mol_data/opt/cam/geoms/mol2/5df.out
 11 11 0 0 0
SMALL
GASTEIGER

@<TRIPOS>ATOM
      1 C          -2.0990   -1.7015   -0.0001 C.ar    1  LIG1       -0.0033
      2 C          -0.7320   -1.6689   -0.0002 C.ar    1  LIG1        0.1001
      3 C          -0.2214   -0.3256   -0.0001 C.ar    1  LIG1        0.1411
      4 C          -1.2122    0.6078    0.0002 C.ar    1  LIG1        0.0185
      5 S          -2.7758   -0.1313    0.0011 S.2     1  LIG1       -0.1000
      6 H          -2.7269   -2.5801   -0.0003 H       1  LIG1        0.0707
      7 H          -1.1121    1.6832    0.0003 H       1  LIG1        0.0730
      8 N           0.7592   -3.7776   -0.0011 N.1     1  LIG1       -0.1907
      9 C           0.0965   -2.8297   -0.0007 C.1     1  LIG1        0.1034
     10 O           1.1148   -0.1302   -0.0004 O.3     1  LIG1       -0.5049
     11 H           1.3103    0.8140   -0.0004 H       1  LIG1        0.2922
@<TRIPOS>BOND
     1     8     9    3
     2     9     2    1
     3    10    11    1
     4    10     3    1
     5     6     1    1
     6     2     1   ar
     7     2     3   ar
     8     1     5   ar
     9     3     4   ar
    10     4     7    1
    11     4     5   ar
