@<TRIPOS>MOLECULE
mol_data/opt/cam/geoms/mol2/5df5df-5df-5df-.out
 38 41 0 0 0
SMALL
GASTEIGER

@<TRIPOS>ATOM
      1 C          -2.2691   -1.7292   -0.1817 C.ar    1  LIG1       -0.0027
      2 C          -0.9596   -1.8631    0.1783 C.ar    1  LIG1        0.1007
      3 C          -0.2482   -0.6146    0.1812 C.ar    1  LIG1        0.1494
      4 C          -1.0565    0.4472   -0.1800 C.ar    1  LIG1        0.0699
      5 S          -2.6759   -0.1118   -0.5422 S.2     1  LIG1       -0.0910
      6 H          -3.0003   -2.5186   -0.2769 H       1  LIG1        0.0708
      7 N           0.1266   -4.1272    0.7823 N.1     1  LIG1       -0.1907
      8 C          -0.3487   -3.1080    0.5144 C.1     1  LIG1        0.1034
      9 O           1.0235   -0.6120    0.5941 O.3     1  LIG1       -0.5043
     10 H           1.5812    0.0194    0.1098 H       1  LIG1        0.2922
     11 C          -0.7811    1.8684   -0.1913 C.ar    1  LIG1        0.0511
     12 C           0.3811    2.5394   -0.5084 C.ar    1  LIG1        0.1090
     13 C           0.2942    3.9646   -0.3796 C.ar    1  LIG1        0.1501
     14 C          -0.9582    4.3796    0.0238 C.ar    1  LIG1        0.0705
     15 S          -1.9974    2.9967    0.2996 S.2     1  LIG1       -0.0820
     16 N           2.4778    1.2645   -1.2928 N.1     1  LIG1       -0.1907
     17 C           1.5556    1.8831   -0.9611 C.1     1  LIG1        0.1040
     18 O           1.3554    4.6875   -0.7509 O.3     1  LIG1       -0.5043
     19 H           1.4777    5.4909   -0.2166 H       1  LIG1        0.2922
     20 C          -1.5134    5.7106    0.1388 C.ar    1  LIG1        0.0511
     21 C          -0.9082    6.8884    0.5246 C.ar    1  LIG1        0.1090
     22 C          -1.7717    8.0327    0.4937 C.ar    1  LIG1        0.1501
     23 C          -3.0524    7.7134    0.0991 C.ar    1  LIG1        0.0705
     24 S          -3.1625    6.0112   -0.2930 S.2     1  LIG1       -0.0820
     25 N           1.5619    6.9258    1.2536 N.1     1  LIG1       -0.1907
     26 C           0.4433    6.9595    0.9511 C.1     1  LIG1        0.1040
     27 O          -1.2815    9.1990    0.9326 O.3     1  LIG1       -0.5043
     28 H          -1.6109    9.9616    0.4275 H       1  LIG1        0.2922
     29 C          -4.2515    8.5272    0.0655 C.ar    1  LIG1        0.0505
     30 C          -4.3932    9.8604   -0.2652 C.ar    1  LIG1        0.1084
     31 C          -5.7442   10.3311   -0.1636 C.ar    1  LIG1        0.1418
     32 C          -6.6082    9.3552    0.2201 C.ar    1  LIG1        0.0191
     33 S          -5.7888    7.8575    0.4980 S.2     1  LIG1       -0.0910
     34 H          -7.6772    9.4262    0.3562 H       1  LIG1        0.0731
     35 N          -2.3638   11.2673   -0.9962 N.1     1  LIG1       -0.1907
     36 C          -3.3094   10.6701   -0.6903 C.1     1  LIG1        0.1040
     37 O          -6.0041   11.6201   -0.4619 O.3     1  LIG1       -0.5049
     38 H          -6.9456   11.8041   -0.3612 H       1  LIG1        0.2922
@<TRIPOS>BOND
     1    16    17    3
     2    35    36    3
     3    17    12    1
     4    18    13    1
     5    18    19    1
     6    36    30    1
     7     5     1   ar
     8     5     4   ar
     9    12    13   ar
    10    12    11   ar
    11    37    38    1
    12    37    31    1
    13    13    14   ar
    14    24    23   ar
    15    24    20   ar
    16     6     1    1
    17    30    31   ar
    18    30    29   ar
    19    11     4    1
    20    11    15   ar
    21     1     2   ar
    22     4     3   ar
    23    31    32   ar
    24    14    20    1
    25    14    15   ar
    26    29    23    1
    27    29    33   ar
    28    23    22   ar
    29    10     9    1
    30    20    21   ar
    31     2     3   ar
    32     2     8    1
    33     3     9    1
    34    32    34    1
    35    32    33   ar
    36    28    27    1
    37    22    21   ar
    38    22    27    1
    39     8     7    3
    40    21    26    1
    41    26    25    3
