@<TRIPOS>MOLECULE
mol_data/opt/cam/geoms/mol2/5df5df-5df-5df.out
 38 41 0 0 0
SMALL
GASTEIGER

@<TRIPOS>ATOM
      1 C          -2.2832   -1.7036    0.3395 C.ar    1  LIG1       -0.0027
      2 C          -0.9414   -1.8223    0.5579 C.ar    1  LIG1        0.1007
      3 C          -0.2315   -0.5867    0.3732 C.ar    1  LIG1        0.1494
      4 C          -1.0734    0.4505    0.0173 C.ar    1  LIG1        0.0699
      5 S          -2.7247   -0.1177   -0.1093 S.2     1  LIG1       -0.0910
      6 H          -3.0225   -2.4891    0.3965 H       1  LIG1        0.0708
      7 N           0.2023   -4.0402    1.2239 N.1     1  LIG1       -0.1907
      8 C          -0.2986   -3.0416    0.9268 C.1     1  LIG1        0.1034
      9 O           1.0792   -0.5645    0.6368 O.3     1  LIG1       -0.5043
     10 H           1.5793    0.0166    0.0399 H       1  LIG1        0.2922
     11 C          -0.7983    1.8621   -0.1482 C.ar    1  LIG1        0.0511
     12 C           0.3214    2.4906   -0.6504 C.ar    1  LIG1        0.1090
     13 C           0.2510    3.9226   -0.6363 C.ar    1  LIG1        0.1501
     14 C          -0.9479    4.3839   -0.1338 C.ar    1  LIG1        0.0705
     15 S          -1.9506    3.0418    0.3761 S.2     1  LIG1       -0.0820
     16 N           2.3148    1.1314   -1.5537 N.1     1  LIG1       -0.1907
     17 C           1.4365    1.7856   -1.1742 C.1     1  LIG1        0.1040
     18 O           1.2637    4.6008   -1.1861 O.3     1  LIG1       -0.5043
     19 H           1.4511    5.4411   -0.7339 H       1  LIG1        0.2922
     20 C          -1.4844    5.7270   -0.0812 C.ar    1  LIG1        0.0511
     21 C          -0.8384    6.9244    0.1452 C.ar    1  LIG1        0.1090
     22 C          -1.6980    8.0715    0.1215 C.ar    1  LIG1        0.1501
     23 C          -3.0144    7.7369   -0.1061 C.ar    1  LIG1        0.0705
     24 S          -3.1784    6.0042   -0.2986 S.2     1  LIG1       -0.0820
     25 N           1.6963    6.9912    0.5976 N.1     1  LIG1       -0.1907
     26 C           0.5519    7.0138    0.4145 C.1     1  LIG1        0.1040
     27 O          -1.1353    9.2801    0.2508 O.3     1  LIG1       -0.5043
     28 H          -1.6707    9.8912    0.7846 H       1  LIG1        0.2922
     29 C          -4.1772    8.5825   -0.2944 C.ar    1  LIG1        0.0505
     30 C          -4.5008    9.7732    0.3256 C.ar    1  LIG1        0.1084
     31 C          -5.7361   10.3372   -0.1355 C.ar    1  LIG1        0.1418
     32 C          -6.3410    9.5666   -1.0772 C.ar    1  LIG1        0.0191
     33 S          -5.4008    8.1627   -1.4453 S.2     1  LIG1       -0.0910
     34 H          -7.2821    9.7404   -1.5776 H       1  LIG1        0.0731
     35 N          -2.9715   10.7850    2.1338 N.1     1  LIG1       -0.1907
     36 C          -3.7000   10.3594    1.3386 C.1     1  LIG1        0.1040
     37 O          -6.1550   11.5019    0.3993 O.3     1  LIG1       -0.5049
     38 H          -6.9962   11.7668    0.0088 H       1  LIG1        0.2922
@<TRIPOS>BOND
     1    34    32    1
     2    16    17    3
     3    33    32   ar
     4    33    29   ar
     5    18    19    1
     6    18    13    1
     7    17    12    1
     8    32    31   ar
     9    12    13   ar
    10    12    11   ar
    11    13    14   ar
    12    24    23   ar
    13    24    20   ar
    14    29    23    1
    15    29    30   ar
    16    11     4    1
    17    11    15   ar
    18    31    30   ar
    19    31    37    1
    20    14    20    1
    21    14    15   ar
    22     5     4   ar
    23     5     1   ar
    24    23    22   ar
    25    20    21   ar
    26    38    37    1
    27     4     3   ar
    28    10     9    1
    29    22    21   ar
    30    22    27    1
    31    21    26    1
    32    27    28    1
    33    30    36    1
    34     1     6    1
    35     1     2   ar
    36     3     2   ar
    37     3     9    1
    38    26    25    3
    39     2     8    1
    40     8     7    3
    41    36    35    3
