@<TRIPOS>MOLECULE
mol_data/opt/cam/geoms/mol2/5df5df5df.out
 29 31 0 0 0
SMALL
GASTEIGER

@<TRIPOS>ATOM
      1 C          -2.1437   -1.7859    0.1422 C.ar    1  LIG1       -0.0027
      2 C          -0.8443   -1.8449   -0.2706 C.ar    1  LIG1        0.1007
      3 C          -0.1926   -0.5642   -0.2562 C.ar    1  LIG1        0.1494
      4 C          -1.0342    0.4448    0.1719 C.ar    1  LIG1        0.0699
      5 S          -2.6101   -0.2024    0.5745 S.2     1  LIG1       -0.0910
      6 H          -2.8336   -2.6118    0.2360 H       1  LIG1        0.0708
      7 N           0.3218   -4.0332   -0.9934 N.1     1  LIG1       -0.1907
      8 C          -0.1897   -3.0473   -0.6727 C.1     1  LIG1        0.1034
      9 O           1.0613   -0.4853   -0.7158 O.3     1  LIG1       -0.5043
     10 H           1.6074    0.1503   -0.2241 H       1  LIG1        0.2922
     11 C          -0.8233    1.8767    0.2248 C.ar    1  LIG1        0.0511
     12 C           0.3169    2.5895    0.5289 C.ar    1  LIG1        0.1090
     13 C           0.1596    4.0130    0.4554 C.ar    1  LIG1        0.1501
     14 C          -1.1217    4.3822    0.1092 C.ar    1  LIG1        0.0705
     15 S          -2.1047    2.9646   -0.1857 S.2     1  LIG1       -0.0820
     16 N           2.4959    1.3868    1.1944 N.1     1  LIG1       -0.1907
     17 C           1.5351    1.9729    0.9173 C.1     1  LIG1        0.1040
     18 O           1.1973    4.7783    0.8179 O.3     1  LIG1       -0.5043
     19 H           1.2814    5.5815    0.2768 H       1  LIG1        0.2922
     20 C          -1.7363    5.6940    0.0588 C.ar    1  LIG1        0.0505
     21 C          -1.1930    6.8994   -0.3402 C.ar    1  LIG1        0.1084
     22 C          -2.1083    7.9986   -0.2339 C.ar    1  LIG1        0.1418
     23 C          -3.3303    7.6171    0.2210 C.ar    1  LIG1        0.0191
     24 S          -3.3779    5.9217    0.5612 S.2     1  LIG1       -0.0910
     25 H          -4.2056    8.2302    0.3765 H       1  LIG1        0.0731
     26 N           1.2324    7.0447   -1.1937 N.1     1  LIG1       -0.1907
     27 C           0.1305    7.0252   -0.8334 C.1     1  LIG1        0.1040
     28 O          -1.6878    9.2279   -0.5955 O.3     1  LIG1       -0.5049
     29 H          -2.3981    9.8708   -0.4838 H       1  LIG1        0.2922
@<TRIPOS>BOND
     1    26    27    3
     2     7     8    3
     3    27    21    1
     4     9     3    1
     5     9    10    1
     6     8     2    1
     7    28    29    1
     8    28    22    1
     9    21    22   ar
    10    21    20   ar
    11     2     3   ar
    12     2     1   ar
    13     3     4   ar
    14    22    23   ar
    15    15    14   ar
    16    15    11   ar
    17    20    14    1
    18    20    24   ar
    19    14    13   ar
    20     1     6    1
    21     1     5   ar
    22     4    11    1
    23     4     5   ar
    24    23    25    1
    25    23    24   ar
    26    11    12   ar
    27    19    18    1
    28    13    12   ar
    29    13    18    1
    30    12    17    1
    31    17    16    3
