@<TRIPOS>MOLECULE
mol_data/opt/cam/geoms/mol2/5df5df5df-5df-.out
 38 41 0 0 0
SMALL
GASTEIGER

@<TRIPOS>ATOM
      1 C          -1.9659   -1.7251    0.9599 C.ar    1  LIG1       -0.0027
      2 C          -1.0436   -1.8393   -0.0393 C.ar    1  LIG1        0.1007
      3 C          -0.4326   -0.5852   -0.3845 C.ar    1  LIG1        0.1494
      4 C          -0.9232    0.4603    0.3745 C.ar    1  LIG1        0.0699
      5 S          -2.1115   -0.1199    1.5213 S.2     1  LIG1       -0.0910
      6 H          -2.5416   -2.5222    1.4072 H       1  LIG1        0.0708
      7 N          -0.4526   -4.0780   -1.1838 N.1     1  LIG1       -0.1907
      8 C          -0.7091   -3.0702   -0.6788 C.1     1  LIG1        0.1034
      9 O           0.4304   -0.5596   -1.4065 O.3     1  LIG1       -0.5043
     10 H           1.1726    0.0508   -1.2625 H       1  LIG1        0.2922
     11 C          -0.6743    1.8831    0.2673 C.ar    1  LIG1        0.0511
     12 C           0.4921    2.5510   -0.0405 C.ar    1  LIG1        0.1090
     13 C           0.3684    3.9791   -0.0553 C.ar    1  LIG1        0.1501
     14 C          -0.9060    4.3991    0.2638 C.ar    1  LIG1        0.0705
     15 S          -1.9432    3.0191    0.5665 S.2     1  LIG1       -0.0820
     16 N           2.6770    1.2638   -0.4944 N.1     1  LIG1       -0.1907
     17 C           1.7233    1.8876   -0.2832 C.1     1  LIG1        0.1040
     18 O           1.4374    4.6921   -0.4242 O.3     1  LIG1       -0.5043
     19 H           1.5205    5.5343    0.0547 H       1  LIG1        0.2922
     20 C          -1.4830    5.7262    0.2724 C.ar    1  LIG1        0.0511
     21 C          -0.9109    6.9342    0.6127 C.ar    1  LIG1        0.1090
     22 C          -1.7866    8.0610    0.4752 C.ar    1  LIG1        0.1501
     23 C          -3.0440    7.6989    0.0440 C.ar    1  LIG1        0.0705
     24 S          -3.1136    5.9757   -0.2513 S.2     1  LIG1       -0.0820
     25 N           1.5230    7.0550    1.4472 N.1     1  LIG1       -0.1907
     26 C           0.4191    7.0519    1.0937 C.1     1  LIG1        0.1040
     27 O          -1.3326    9.2590    0.8654 O.3     1  LIG1       -0.5043
     28 H          -1.6449    9.9845    0.2985 H       1  LIG1        0.2922
     29 C          -4.2504    8.4909   -0.0938 C.ar    1  LIG1        0.0505
     30 C          -4.3931    9.7991   -0.5122 C.ar    1  LIG1        0.1084
     31 C          -5.7533   10.2539   -0.5028 C.ar    1  LIG1        0.1418
     32 C          -6.6220    9.2898   -0.1004 C.ar    1  LIG1        0.0191
     33 S          -5.7977    7.8249    0.3072 S.2     1  LIG1       -0.0910
     34 H          -7.6971    9.3522   -0.0189 H       1  LIG1        0.0731
     35 N          -2.3491   11.1899   -1.2331 N.1     1  LIG1       -0.1907
     36 C          -3.3007   10.5981   -0.9354 C.1     1  LIG1        0.1040
     37 O          -6.0153   11.5181   -0.8917 O.3     1  LIG1       -0.5049
     38 H          -6.9630   11.6924   -0.8485 H       1  LIG1        0.2922
@<TRIPOS>BOND
     1     9    10    1
     2     9     3    1
     3    35    36    3
     4     7     8    3
     5    36    30    1
     6    37    38    1
     7    37    31    1
     8     8     2    1
     9    30    31   ar
    10    30    29   ar
    11    31    32   ar
    12    16    17    3
    13    18    13    1
    14    18    19    1
    15     3     2   ar
    16     3     4   ar
    17    17    12    1
    18    24    23   ar
    19    24    20   ar
    20    32    34    1
    21    32    33   ar
    22    29    23    1
    23    29    33   ar
    24    13    12   ar
    25    13    14   ar
    26    12    11   ar
    27     2     1   ar
    28    23    22   ar
    29    14    20    1
    30    14    15   ar
    31    11     4    1
    32    11    15   ar
    33    20    21   ar
    34    28    27    1
    35     4     5   ar
    36    22    21   ar
    37    22    27    1
    38    21    26    1
    39     1     6    1
    40     1     5   ar
    41    26    25    3
