@<TRIPOS>MOLECULE
mol_data/opt/cam/geoms/mol2/5df5df-5df5df.out
 38 41 0 0 0
SMALL
GASTEIGER

@<TRIPOS>ATOM
      1 C          -2.2753   -1.7290    0.1770 C.ar    1  LIG1       -0.0027
      2 C          -0.9633   -1.8636   -0.1736 C.ar    1  LIG1        0.1007
      3 C          -0.2510   -0.6157   -0.1700 C.ar    1  LIG1        0.1494
      4 C          -1.0611    0.4464    0.1862 C.ar    1  LIG1        0.0699
      5 S          -2.6835   -0.1117    0.5360 S.2     1  LIG1       -0.0910
      6 H          -3.0078   -2.5180    0.2661 H       1  LIG1        0.0708
      7 N           0.1257   -4.1280   -0.7717 N.1     1  LIG1       -0.1907
      8 C          -0.3509   -3.1087   -0.5063 C.1     1  LIG1        0.1034
      9 O           1.0237   -0.6135   -0.5737 O.3     1  LIG1       -0.5043
     10 H           1.5783    0.0169   -0.0848 H       1  LIG1        0.2922
     11 C          -0.7848    1.8674    0.2008 C.ar    1  LIG1        0.0511
     12 C           0.3756    2.5372    0.5270 C.ar    1  LIG1        0.1090
     13 C           0.2907    3.9626    0.3989 C.ar    1  LIG1        0.1501
     14 C          -0.9584    4.3790   -0.0133 C.ar    1  LIG1        0.0705
     15 S          -1.9966    2.9971   -0.2979 S.2     1  LIG1       -0.0820
     16 N           2.4656    1.2601    1.3256 N.1     1  LIG1       -0.1907
     17 C           1.5462    1.8797    0.9877 C.1     1  LIG1        0.1040
     18 O           1.3497    4.6845    0.7786 O.3     1  LIG1       -0.5043
     19 H           1.4764    5.4883    0.2460 H       1  LIG1        0.2922
     20 C          -1.5118    5.7105   -0.1311 C.ar    1  LIG1        0.0511
     21 C          -0.9030    6.8882   -0.5114 C.ar    1  LIG1        0.1090
     22 C          -1.7657    8.0331   -0.4857 C.ar    1  LIG1        0.1501
     23 C          -3.0495    7.7144   -0.1008 C.ar    1  LIG1        0.0705
     24 S          -3.1638    6.0119    0.2889 S.2     1  LIG1       -0.0820
     25 N           1.5724    6.9244   -1.2222 N.1     1  LIG1       -0.1907
     26 C           0.4518    6.9586   -0.9279 C.1     1  LIG1        0.1040
     27 O          -1.2715    9.1994   -0.9199 O.3     1  LIG1       -0.5043
     28 H          -1.6040    9.9618   -0.4165 H       1  LIG1        0.2922
     29 C          -4.2483    8.5290   -0.0752 C.ar    1  LIG1        0.0505
     30 C          -4.3914    9.8620    0.2557 C.ar    1  LIG1        0.1084
     31 C          -5.7413   10.3338    0.1447 C.ar    1  LIG1        0.1418
     32 C          -6.6032    9.3589   -0.2462 C.ar    1  LIG1        0.0191
     33 S          -5.7829    7.8609   -0.5196 S.2     1  LIG1       -0.0910
     34 H          -7.6711    9.4309   -0.3901 H       1  LIG1        0.0731
     35 N          -2.3664   11.2668    1.0028 N.1     1  LIG1       -0.1907
     36 C          -3.3102   10.6706    0.6894 C.1     1  LIG1        0.1040
     37 O          -6.0024   11.6228    0.4422 O.3     1  LIG1       -0.5049
     38 H          -6.9430   11.8075    0.3349 H       1  LIG1        0.2922
@<TRIPOS>BOND
     1    25    26    3
     2    26    21    1
     3    27    22    1
     4    27    28    1
     5     7     8    3
     6     9     3    1
     7     9    10    1
     8    33    32   ar
     9    33    29   ar
    10    21    22   ar
    11    21    20   ar
    12     8     2    1
    13    22    23   ar
    14    34    32    1
    15    15    14   ar
    16    15    11   ar
    17    32    31   ar
    18     2     3   ar
    19     2     1   ar
    20     3     4   ar
    21    20    14    1
    22    20    24   ar
    23    23    29    1
    24    23    24   ar
    25    29    30   ar
    26    14    13   ar
    27    31    30   ar
    28    31    37    1
    29     1     6    1
    30     1     5   ar
    31     4    11    1
    32     4     5   ar
    33    11    12   ar
    34    19    18    1
    35    30    36    1
    36    38    37    1
    37    13    12   ar
    38    13    18    1
    39    12    17    1
    40    36    35    3
    41    17    16    3
