@<TRIPOS>MOLECULE
mol_data/opt/cam/geoms/mol2/5df5df-5df.out
 29 31 0 0 0
SMALL
GASTEIGER

@<TRIPOS>ATOM
      1 C          -1.9768   -1.7430   -0.8848 C.ar    1  LIG1       -0.0027
      2 C          -0.8987   -1.8593   -0.0563 C.ar    1  LIG1        0.1007
      3 C          -0.2968   -0.5936    0.2615 C.ar    1  LIG1        0.1494
      4 C          -0.9516    0.4619   -0.3431 C.ar    1  LIG1        0.0699
      5 S          -2.2838   -0.1206   -1.3169 S.2     1  LIG1       -0.0910
      6 H          -2.5823   -2.5454   -1.2802 H       1  LIG1        0.0708
      7 N          -0.0274   -4.1197    0.8397 N.1     1  LIG1       -0.1907
      8 C          -0.4087   -3.1021    0.4450 C.1     1  LIG1        0.1034
      9 O           0.7206   -0.5730    1.1313 O.3     1  LIG1       -0.5043
     10 H           1.4043    0.0772    0.8991 H       1  LIG1        0.2922
     11 C          -0.7498    1.8888   -0.1921 C.ar    1  LIG1        0.0511
     12 C           0.4219    2.5996   -0.0426 C.ar    1  LIG1        0.1090
     13 C           0.2399    4.0163    0.0836 C.ar    1  LIG1        0.1501
     14 C          -1.0854    4.3841    0.0111 C.ar    1  LIG1        0.0705
     15 S          -2.0982    2.9719   -0.2032 S.2     1  LIG1       -0.0820
     16 N           2.7049    1.4058   -0.0373 N.1     1  LIG1       -0.1907
     17 C           1.7035    1.9892   -0.0489 C.1     1  LIG1        0.1040
     18 O           1.3230    4.7706    0.3128 O.3     1  LIG1       -0.5043
     19 H           1.2965    5.6217   -0.1558 H       1  LIG1        0.2922
     20 C          -1.7078    5.6821    0.1837 C.ar    1  LIG1        0.0505
     21 C          -1.2556    6.9272   -0.2070 C.ar    1  LIG1        0.1084
     22 C          -2.1426    7.9941    0.1558 C.ar    1  LIG1        0.1418
     23 C          -3.2571    7.5508    0.7943 C.ar    1  LIG1        0.0191
     24 S          -3.2283    5.8336    0.9982 S.2     1  LIG1       -0.0910
     25 H          -4.0926    8.1304    1.1583 H       1  LIG1        0.0731
     26 N           0.9686    7.1949   -1.4774 N.1     1  LIG1       -0.1907
     27 C          -0.0472    7.1211   -0.9234 C.1     1  LIG1        0.1040
     28 O          -1.8046    9.2573   -0.1743 O.3     1  LIG1       -0.5049
     29 H          -2.4851    9.8738    0.1209 H       1  LIG1        0.2922
@<TRIPOS>BOND
     1    26    27    3
     2     5     1   ar
     3     5     4   ar
     4     6     1    1
     5    27    21    1
     6     1     2   ar
     7     4    11    1
     8     4     3   ar
     9    21    22   ar
    10    21    20   ar
    11    15    11   ar
    12    15    14   ar
    13    11    12   ar
    14    28    29    1
    15    28    22    1
    16    19    18    1
    17     2     3   ar
    18     2     8    1
    19    17    12    1
    20    17    16    3
    21    12    13   ar
    22    14    13   ar
    23    14    20    1
    24    13    18    1
    25    22    23   ar
    26    20    24   ar
    27     3     9    1
    28     8     7    3
    29    23    24   ar
    30    23    25    1
    31    10     9    1
