@<TRIPOS>MOLECULE
mol_data/opt/cam/geoms/mol2/5df5df5df5df-.out
 38 41 0 0 0
SMALL
GASTEIGER

@<TRIPOS>ATOM
      1 C          -2.2667   -1.7286    0.1891 C.ar    1  LIG1       -0.0027
      2 C          -0.9543   -1.8634   -0.1598 C.ar    1  LIG1        0.1007
      3 C          -0.2436   -0.6145   -0.1625 C.ar    1  LIG1        0.1494
      4 C          -1.0554    0.4485    0.1873 C.ar    1  LIG1        0.0699
      5 S          -2.6773   -0.1099    0.5390 S.2     1  LIG1       -0.0910
      6 H          -2.9982   -2.5180    0.2819 H       1  LIG1        0.0708
      7 N           0.1381   -4.1295   -0.7448 N.1     1  LIG1       -0.1907
      8 C          -0.3400   -3.1094   -0.4853 C.1     1  LIG1        0.1034
      9 O           1.0314   -0.6129   -0.5652 O.3     1  LIG1       -0.5043
     10 H           1.5848    0.0210   -0.0793 H       1  LIG1        0.2922
     11 C          -0.7809    1.8699    0.1945 C.ar    1  LIG1        0.0511
     12 C           0.3784    2.5430    0.5179 C.ar    1  LIG1        0.1090
     13 C           0.2917    3.9675    0.3821 C.ar    1  LIG1        0.1501
     14 C          -0.9576    4.3800   -0.0333 C.ar    1  LIG1        0.0705
     15 S          -1.9938    2.9952   -0.3113 S.2     1  LIG1       -0.0820
     16 N           2.4694    1.2729    1.3250 N.1     1  LIG1       -0.1907
     17 C           1.5495    1.8894    0.9830 C.1     1  LIG1        0.1040
     18 O           1.3494    4.6928    0.7586 O.3     1  LIG1       -0.5043
     19 H           1.4755    5.4939    0.2218 H       1  LIG1        0.2922
     20 C          -1.5127    5.7101   -0.1588 C.ar    1  LIG1        0.0511
     21 C          -0.9051    6.8866   -0.5450 C.ar    1  LIG1        0.1090
     22 C          -1.7694    8.0304   -0.5262 C.ar    1  LIG1        0.1501
     23 C          -3.0530    7.7121   -0.1405 C.ar    1  LIG1        0.0705
     24 S          -3.1654    6.0117    0.2583 S.2     1  LIG1       -0.0820
     25 N           1.5708    6.9222   -1.2541 N.1     1  LIG1       -0.1907
     26 C           0.4499    6.9565   -0.9608 C.1     1  LIG1        0.1040
     27 O          -1.2764    9.1950   -0.9663 O.3     1  LIG1       -0.5043
     28 H          -1.6102    9.9597   -0.4673 H       1  LIG1        0.2922
     29 C          -4.2529    8.5253   -0.1203 C.ar    1  LIG1        0.0505
     30 C          -4.3980    9.8599    0.2034 C.ar    1  LIG1        0.1084
     31 C          -5.7484   10.3293    0.0887 C.ar    1  LIG1        0.1418
     32 C          -6.6087    9.3512   -0.2975 C.ar    1  LIG1        0.0191
     33 S          -5.7863    7.8528   -0.5622 S.2     1  LIG1       -0.0910
     34 H          -7.6767    9.4210   -0.4426 H       1  LIG1        0.0731
     35 N          -2.3754   11.2714    0.9444 N.1     1  LIG1       -0.1907
     36 C          -3.3182   10.6722    0.6335 C.1     1  LIG1        0.1040
     37 O          -6.0115   11.6195    0.3791 O.3     1  LIG1       -0.5049
     38 H          -6.9522   11.8025    0.2700 H       1  LIG1        0.2922
@<TRIPOS>BOND
     1    25    26    3
     2    27    22    1
     3    27    28    1
     4    26    21    1
     5     7     8    3
     6     9     3    1
     7     9    10    1
     8    33    32   ar
     9    33    29   ar
    10    21    22   ar
    11    21    20   ar
    12    22    23   ar
    13     8     2    1
    14    34    32    1
    15    15    14   ar
    16    15    11   ar
    17    32    31   ar
    18     3     2   ar
    19     3     4   ar
    20     2     1   ar
    21    20    14    1
    22    20    24   ar
    23    23    29    1
    24    23    24   ar
    25    29    30   ar
    26    14    13   ar
    27    31    30   ar
    28    31    37    1
    29     4    11    1
    30     4     5   ar
    31     1     6    1
    32     1     5   ar
    33    11    12   ar
    34    30    36    1
    35    19    18    1
    36    38    37    1
    37    13    12   ar
    38    13    18    1
    39    12    17    1
    40    36    35    3
    41    17    16    3
