@<TRIPOS>MOLECULE
mol_data/opt/cam/geoms/mol2/5df5df.out
 20 21 0 0 0
SMALL
GASTEIGER

@<TRIPOS>ATOM
      1 C          -2.0642   -1.7623    0.4177 C.ar    1  LIG1       -0.0027
      2 C          -0.7828   -1.8020   -0.0506 C.ar    1  LIG1        0.1007
      3 C          -0.2055   -0.4962   -0.2146 C.ar    1  LIG1        0.1494
      4 C          -1.0817    0.5102    0.1364 C.ar    1  LIG1        0.0699
      5 S          -2.5975   -0.1636    0.6905 S.2     1  LIG1       -0.0911
      6 H          -2.7028   -2.6051    0.6380 H       1  LIG1        0.0708
      7 N           0.4731   -3.9963   -0.5790 N.1     1  LIG1       -0.1907
      8 C          -0.0795   -3.0077   -0.3465 C.1     1  LIG1        0.1034
      9 O           1.0228   -0.3992   -0.7439 O.3     1  LIG1       -0.5043
     10 H           1.5635    0.2823   -0.3118 H       1  LIG1        0.2922
     11 C          -0.9413    1.9492    0.0155 C.ar    1  LIG1        0.0504
     12 C           0.1733    2.7380    0.2178 C.ar    1  LIG1        0.1084
     13 C          -0.0665    4.1326   -0.0170 C.ar    1  LIG1        0.1418
     14 C          -1.3523    4.3875   -0.3738 C.ar    1  LIG1        0.0191
     15 S          -2.2832    2.9322   -0.4647 S.2     1  LIG1       -0.0910
     16 H          -1.8078    5.3428   -0.5892 H       1  LIG1        0.0731
     17 N           2.4157    1.7133    0.9642 N.1     1  LIG1       -0.1907
     18 C           1.4221    2.2184    0.6452 C.1     1  LIG1        0.1040
     19 O           0.9513    5.0023    0.1500 O.3     1  LIG1       -0.5049
     20 H           0.6551    5.9014   -0.0346 H       1  LIG1        0.2922
@<TRIPOS>BOND
     1     9    10    1
     2     9     3    1
     3    16    14    1
     4     7     8    3
     5    15    14   ar
     6    15    11   ar
     7    14    13   ar
     8     8     2    1
     9     3     2   ar
    10     3     4   ar
    11     2     1   ar
    12    20    19    1
    13    13    19    1
    14    13    12   ar
    15    11     4    1
    16    11    12   ar
    17     4     5   ar
    18    12    18    1
    19     1     6    1
    20     1     5   ar
    21    18    17    3
