@<TRIPOS>MOLECULE
mol_data/opt/cam/geoms/mol2/5df5df5df-5df.out
 38 41 0 0 0
SMALL
GASTEIGER

@<TRIPOS>ATOM
      1 C          -1.8694   -1.6177    1.4085 C.ar    1  LIG1       -0.0027
      2 C          -1.0606   -1.8236    0.3289 C.ar    1  LIG1        0.1007
      3 C          -0.4846   -0.6094   -0.1798 C.ar    1  LIG1        0.1494
      4 C          -0.8858    0.4998    0.5402 C.ar    1  LIG1        0.0699
      5 S          -1.9463    0.0289    1.8507 S.2     1  LIG1       -0.0910
      6 H          -2.3971   -2.3688    1.9779 H       1  LIG1        0.0708
      7 N          -0.6075   -4.1541   -0.6882 N.1     1  LIG1       -0.1907
      8 C          -0.8029   -3.1060   -0.2414 C.1     1  LIG1        0.1034
      9 O           0.2635   -0.6761   -1.2872 O.3     1  LIG1       -0.5043
     10 H           1.0205   -0.0672   -1.2717 H       1  LIG1        0.2922
     11 C          -0.6437    1.9058    0.2906 C.ar    1  LIG1        0.0511
     12 C           0.4857    2.5314   -0.1930 C.ar    1  LIG1        0.1090
     13 C           0.3663    3.9550   -0.3129 C.ar    1  LIG1        0.1501
     14 C          -0.8656    4.4153    0.1019 C.ar    1  LIG1        0.0705
     15 S          -1.8695    3.0787    0.6270 S.2     1  LIG1       -0.0820
     16 N           2.6042    1.1839   -0.7703 N.1     1  LIG1       -0.1907
     17 C           1.6812    1.8348   -0.5100 C.1     1  LIG1        0.1040
     18 O           1.3919    4.6232   -0.8518 O.3     1  LIG1       -0.5043
     19 H           1.5344    5.4959   -0.4473 H       1  LIG1        0.2922
     20 C          -1.4316    5.7469    0.0524 C.ar    1  LIG1        0.0511
     21 C          -0.8220    6.9693    0.2428 C.ar    1  LIG1        0.1090
     22 C          -1.7021    8.0935    0.1128 C.ar    1  LIG1        0.1501
     23 C          -2.9983    7.7170   -0.1609 C.ar    1  LIG1        0.0705
     24 S          -3.1170    5.9734   -0.2656 S.2     1  LIG1       -0.0820
     25 N           1.6846    7.1200    0.8163 N.1     1  LIG1       -0.1907
     26 C           0.5508    7.1053    0.5756 C.1     1  LIG1        0.1040
     27 O          -1.1711    9.3200    0.2030 O.3     1  LIG1       -0.5043
     28 H          -1.7455    9.9468    0.6743 H       1  LIG1        0.2922
     29 C          -4.1666    8.5247   -0.4533 C.ar    1  LIG1        0.0505
     30 C          -4.5451    9.7390    0.0844 C.ar    1  LIG1        0.1084
     31 C          -5.7658   10.2499   -0.4682 C.ar    1  LIG1        0.1418
     32 C          -6.3058    9.4171   -1.3963 C.ar    1  LIG1        0.0191
     33 S          -5.3204    8.0172   -1.6401 S.2     1  LIG1       -0.0910
     34 H          -7.2230    9.5429   -1.9525 H       1  LIG1        0.0731
     35 N          -3.1317   10.8796    1.9104 N.1     1  LIG1       -0.1907
     36 C          -3.8094   10.3959    1.1035 C.1     1  LIG1        0.1040
     37 O          -6.2347   11.4317   -0.0191 O.3     1  LIG1       -0.5049
     38 H          -7.0591   11.6570   -0.4662 H       1  LIG1        0.2922
@<TRIPOS>BOND
     1    34    32    1
     2    33    32   ar
     3    33    29   ar
     4    32    31   ar
     5     9    10    1
     6     9     3    1
     7    18    19    1
     8    18    13    1
     9    16    17    3
    10     7     8    3
    11    17    12    1
    12    31    37    1
    13    31    30   ar
    14    38    37    1
    15    29    23    1
    16    29    30   ar
    17    13    12   ar
    18    13    14   ar
    19    24    23   ar
    20    24    20   ar
    21     8     2    1
    22    12    11   ar
    23     3     2   ar
    24     3     4   ar
    25    23    22   ar
    26    20    14    1
    27    20    21   ar
    28    30    36    1
    29    14    15   ar
    30    22    27    1
    31    22    21   ar
    32    27    28    1
    33    21    26    1
    34    11     4    1
    35    11    15   ar
    36     2     1   ar
    37     4     5   ar
    38    26    25    3
    39    36    35    3
    40     1     5   ar
    41     1     6    1
