@<TRIPOS>MOLECULE
mol_data/opt/cam/geoms/mol2/5df5df-.out
 20 21 0 0 0
SMALL
GASTEIGER

@<TRIPOS>ATOM
      1 C          -2.0611   -1.7622    0.4238 C.ar    1  LIG1       -0.0027
      2 C          -0.7837   -1.8019   -0.0550 C.ar    1  LIG1        0.1007
      3 C          -0.2076   -0.4962   -0.2234 C.ar    1  LIG1        0.1494
      4 C          -1.0807    0.5102    0.1353 C.ar    1  LIG1        0.0699
      5 S          -2.5919   -0.1635    0.7017 S.2     1  LIG1       -0.0911
      6 H          -2.6980   -2.6050    0.6491 H       1  LIG1        0.0708
      7 N           0.4675   -3.9961   -0.5948 N.1     1  LIG1       -0.1907
      8 C          -0.0830   -3.0076   -0.3573 C.1     1  LIG1        0.1034
      9 O           1.0163   -0.3991   -0.7627 O.3     1  LIG1       -0.5043
     10 H           1.5607    0.2822   -0.3349 H       1  LIG1        0.2922
     11 C          -0.9410    1.9493    0.0139 C.ar    1  LIG1        0.0504
     12 C           0.1753    2.7378    0.2073 C.ar    1  LIG1        0.1084
     13 C          -0.0662    4.1326   -0.0250 C.ar    1  LIG1        0.1418
     14 C          -1.3549    4.3878   -0.3710 C.ar    1  LIG1        0.0191
     15 S          -2.2867    2.9326   -0.4548 S.2     1  LIG1       -0.0910
     16 H          -1.8121    5.3432   -0.5823 H       1  LIG1        0.0731
     17 N           2.4237    1.7125    0.9346 N.1     1  LIG1       -0.1907
     18 C           1.4275    2.2179    0.6240 C.1     1  LIG1        0.1040
     19 O           0.9530    5.0021    0.1339 O.3     1  LIG1       -0.5049
     20 H           0.6555    5.9013   -0.0479 H       1  LIG1        0.2922
@<TRIPOS>BOND
     1     9    10    1
     2     9     3    1
     3     7     8    3
     4    16    14    1
     5    15    14   ar
     6    15    11   ar
     7    14    13   ar
     8     8     2    1
     9     3     2   ar
    10     3     4   ar
    11     2     1   ar
    12    20    19    1
    13    13    19    1
    14    13    12   ar
    15    11     4    1
    16    11    12   ar
    17     4     5   ar
    18    12    18    1
    19     1     6    1
    20     1     5   ar
    21    18    17    3
