@<TRIPOS>MOLECULE
mol_data/opt/cam/geoms/mol2/5df5df-5df5df-.out
 38 41 0 0 0
SMALL
GASTEIGER

@<TRIPOS>ATOM
      1 C          -2.2812   -1.7031   -0.3488 C.ar    1  LIG1       -0.0027
      2 C          -0.9385   -1.8212   -0.5618 C.ar    1  LIG1        0.1007
      3 C          -0.2295   -0.5859   -0.3712 C.ar    1  LIG1        0.1494
      4 C          -1.0730    0.4503   -0.0165 C.ar    1  LIG1        0.0699
      5 S          -2.7248   -0.1182    0.1015 S.2     1  LIG1       -0.0910
      6 H          -3.0201   -2.4887   -0.4106 H       1  LIG1        0.0708
      7 N           0.2082   -4.0376   -1.2279 N.1     1  LIG1       -0.1907
      8 C          -0.2940   -3.0396   -0.9306 C.1     1  LIG1        0.1034
      9 O           1.0824   -0.5634   -0.6287 O.3     1  LIG1       -0.5043
     10 H           1.5793    0.0188   -0.0303 H       1  LIG1        0.2922
     11 C          -0.7989    1.8617    0.1527 C.ar    1  LIG1        0.0511
     12 C           0.3184    2.4894    0.6614 C.ar    1  LIG1        0.1090
     13 C           0.2479    3.9214    0.6496 C.ar    1  LIG1        0.1501
     14 C          -0.9486    4.3835    0.1423 C.ar    1  LIG1        0.0705
     15 S          -1.9487    3.0423   -0.3749 S.2     1  LIG1       -0.0820
     16 N           2.3075    1.1280    1.5710 N.1     1  LIG1       -0.1907
     17 C           1.4311    1.7832    1.1889 C.1     1  LIG1        0.1040
     18 O           1.2580    4.5987    1.2055 O.3     1  LIG1       -0.5043
     19 H           1.4475    5.4398    0.7554 H       1  LIG1        0.2922
     20 C          -1.4849    5.7267    0.0893 C.ar    1  LIG1        0.0511
     21 C          -0.8379    6.9245   -0.1324 C.ar    1  LIG1        0.1090
     22 C          -1.6976    8.0716   -0.1109 C.ar    1  LIG1        0.1501
     23 C          -3.0151    7.7367    0.1103 C.ar    1  LIG1        0.0705
     24 S          -3.1799    6.0036    0.2993 S.2     1  LIG1       -0.0820
     25 N           1.6990    6.9922   -0.5724 N.1     1  LIG1       -0.1907
     26 C           0.5538    7.0143   -0.3948 C.1     1  LIG1        0.1040
     27 O          -1.1341    9.2801   -0.2361 O.3     1  LIG1       -0.5043
     28 H          -1.6678    9.8927   -0.7699 H       1  LIG1        0.2922
     29 C          -4.1787    8.5818    0.2948 C.ar    1  LIG1        0.0505
     30 C          -4.4994    9.7739   -0.3241 C.ar    1  LIG1        0.1084
     31 C          -5.7368   10.3369    0.1324 C.ar    1  LIG1        0.1418
     32 C          -6.3461    9.5643    1.0696 C.ar    1  LIG1        0.0191
     33 S          -5.4076    8.1596    1.4391 S.2     1  LIG1       -0.0910
     34 H          -7.2897    9.7369    1.5659 H       1  LIG1        0.0731
     35 N          -2.9623   10.7900   -2.1234 N.1     1  LIG1       -0.1907
     36 C          -3.6941   10.3623   -1.3323 C.1     1  LIG1        0.1040
     37 O          -6.1532   11.5028   -0.4018 O.3     1  LIG1       -0.5049
     38 H          -6.9960   11.7671   -0.0143 H       1  LIG1        0.2922
@<TRIPOS>BOND
     1    35    36    3
     2    36    30    1
     3     7     8    3
     4     8     2    1
     5    28    27    1
     6     9     3    1
     7     9    10    1
     8    25    26    3
     9     2     3   ar
    10     2     1   ar
    11     6     1    1
    12    37    38    1
    13    37    31    1
    14    26    21    1
    15    15    14   ar
    16    15    11   ar
    17     3     4   ar
    18     1     5   ar
    19    30    31   ar
    20    30    29   ar
    21    27    22    1
    22    21    22   ar
    23    21    20   ar
    24    22    23   ar
    25     4     5   ar
    26     4    11    1
    27    20    14    1
    28    20    24   ar
    29    23    29    1
    30    23    24   ar
    31    31    32   ar
    32    14    13   ar
    33    11    12   ar
    34    29    33   ar
    35    13    12   ar
    36    13    18    1
    37    12    17    1
    38    19    18    1
    39    32    33   ar
    40    32    34    1
    41    17    16    3
