@<TRIPOS>MOLECULE
mol_data/opt/cam/geoms/mol2/5df5df5df5df.out
 38 41 0 0 0
SMALL
GASTEIGER

@<TRIPOS>ATOM
      1 C          -2.2693   -1.7288    0.1802 C.ar    1  LIG1       -0.0027
      2 C          -0.9562   -1.8634   -0.1661 C.ar    1  LIG1        0.1007
      3 C          -0.2451   -0.6147   -0.1652 C.ar    1  LIG1        0.1494
      4 C          -1.0572    0.4479    0.1848 C.ar    1  LIG1        0.0699
      5 S          -2.6801   -0.1106    0.5321 S.2     1  LIG1       -0.0910
      6 H          -3.0012   -2.5181    0.2701 H       1  LIG1        0.0708
      7 N           0.1367   -4.1289   -0.7528 N.1     1  LIG1       -0.1907
      8 C          -0.3416   -3.1091   -0.4926 C.1     1  LIG1        0.1034
      9 O           1.0308   -0.6128   -0.5652 O.3     1  LIG1       -0.5043
     10 H           1.5834    0.0200   -0.0770 H       1  LIG1        0.2922
     11 C          -0.7823    1.8692    0.1950 C.ar    1  LIG1        0.0511
     12 C           0.3765    2.5413    0.5221 C.ar    1  LIG1        0.1090
     13 C           0.2906    3.9661    0.3885 C.ar    1  LIG1        0.1501
     14 C          -0.9578    4.3798   -0.0288 C.ar    1  LIG1        0.0705
     15 S          -1.9938    2.9958   -0.3113 S.2     1  LIG1       -0.0820
     16 N           2.4654    1.2691    1.3313 N.1     1  LIG1       -0.1907
     17 C           1.5464    1.8866    0.9885 C.1     1  LIG1        0.1040
     18 O           1.3477    4.6904    0.7686 O.3     1  LIG1       -0.5043
     19 H           1.4752    5.4924    0.2334 H       1  LIG1        0.2922
     20 C          -1.5121    5.7103   -0.1531 C.ar    1  LIG1        0.0511
     21 C          -0.9033    6.8872   -0.5359 C.ar    1  LIG1        0.1090
     22 C          -1.7673    8.0313   -0.5169 C.ar    1  LIG1        0.1501
     23 C          -3.0519    7.7127   -0.1345 C.ar    1  LIG1        0.0705
     24 S          -3.1656    6.0117    0.2611 S.2     1  LIG1       -0.0820
     25 N           1.5740    6.9232   -1.2398 N.1     1  LIG1       -0.1907
     26 C           0.4525    6.9574   -0.9488 C.1     1  LIG1        0.1040
     27 O          -1.2730    9.1965   -0.9540 O.3     1  LIG1       -0.5043
     28 H          -1.6076    9.9604   -0.4543 H       1  LIG1        0.2922
     29 C          -4.2515    8.5263   -0.1154 C.ar    1  LIG1        0.0505
     30 C          -4.3969    9.8604    0.2103 C.ar    1  LIG1        0.1084
     31 C          -5.7468   10.3304    0.0936 C.ar    1  LIG1        0.1418
     32 C          -6.6067    9.3533   -0.2961 C.ar    1  LIG1        0.0191
     33 S          -5.7842    7.8550   -0.5617 S.2     1  LIG1       -0.0910
     34 H          -7.6743    9.4236   -0.4433 H       1  LIG1        0.0731
     35 N          -2.3754   11.2698    0.9580 N.1     1  LIG1       -0.1907
     36 C          -3.3177   10.6716    0.6441 C.1     1  LIG1        0.1040
     37 O          -6.0101   11.6202    0.3857 O.3     1  LIG1       -0.5049
     38 H          -6.9505   11.8037    0.2749 H       1  LIG1        0.2922
@<TRIPOS>BOND
     1    25    26    3
     2    27    22    1
     3    27    28    1
     4    26    21    1
     5     7     8    3
     6     9     3    1
     7     9    10    1
     8    33    32   ar
     9    33    29   ar
    10    21    22   ar
    11    21    20   ar
    12    22    23   ar
    13     8     2    1
    14    34    32    1
    15    15    14   ar
    16    15    11   ar
    17    32    31   ar
    18     2     3   ar
    19     2     1   ar
    20     3     4   ar
    21    20    14    1
    22    20    24   ar
    23    23    29    1
    24    23    24   ar
    25    29    30   ar
    26    14    13   ar
    27    31    30   ar
    28    31    37    1
    29     1     6    1
    30     1     5   ar
    31     4    11    1
    32     4     5   ar
    33    11    12   ar
    34    30    36    1
    35    19    18    1
    36    38    37    1
    37    13    12   ar
    38    13    18    1
    39    12    17    1
    40    36    35    3
    41    17    16    3
