@<TRIPOS>MOLECULE
mol_data/opt/cam/geoms/mol2/5df5df5df-.out
 29 31 0 0 0
SMALL
GASTEIGER

@<TRIPOS>ATOM
      1 C          -1.9916   -1.7429    0.8658 C.ar    1  LIG1       -0.0027
      2 C          -0.9024   -1.8593    0.0520 C.ar    1  LIG1        0.1007
      3 C          -0.2950   -0.5939   -0.2563 C.ar    1  LIG1        0.1494
      4 C          -0.9571    0.4617    0.3404 C.ar    1  LIG1        0.0699
      5 S          -2.3032   -0.1206    1.2951 S.2     1  LIG1       -0.0910
      6 H          -2.6030   -2.5452    1.2522 H       1  LIG1        0.0708
      7 N          -0.0210   -4.1196   -0.8342 N.1     1  LIG1       -0.1907
      8 C          -0.4066   -3.1020   -0.4438 C.1     1  LIG1        0.1034
      9 O           0.7345   -0.5736   -1.1115 O.3     1  LIG1       -0.5043
     10 H           1.4143    0.0776   -0.8708 H       1  LIG1        0.2922
     11 C          -0.7525    1.8886    0.1934 C.ar    1  LIG1        0.0511
     12 C           0.4214    2.5989    0.0600 C.ar    1  LIG1        0.1090
     13 C           0.2416    4.0158   -0.0675 C.ar    1  LIG1        0.1501
     14 C          -1.0843    4.3841   -0.0125 C.ar    1  LIG1        0.0705
     15 S          -2.1005    2.9722    0.1873 S.2     1  LIG1       -0.0820
     16 N           2.7038    1.4044    0.0838 N.1     1  LIG1       -0.1907
     17 C           1.7025    1.9881    0.0829 C.1     1  LIG1        0.1040
     18 O           1.3280    4.7698   -0.2818 O.3     1  LIG1       -0.5043
     19 H           1.2959    5.6204    0.1874 H       1  LIG1        0.2922
     20 C          -1.7039    5.6826   -0.1917 C.ar    1  LIG1        0.0505
     21 C          -1.2565    6.9271    0.2061 C.ar    1  LIG1        0.1084
     22 C          -2.1382    7.9947   -0.1673 C.ar    1  LIG1        0.1418
     23 C          -3.2444    7.5525   -0.8207 C.ar    1  LIG1        0.0191
     24 S          -3.2139    5.8354   -1.0254 S.2     1  LIG1       -0.0910
     25 H          -4.0749    8.1327   -1.1949 H       1  LIG1        0.0731
     26 N           0.9516    7.1934    1.5048 N.1     1  LIG1       -0.1907
     27 C          -0.0572    7.1203    0.9380 C.1     1  LIG1        0.1040
     28 O          -1.8041    9.2575    0.1684 O.3     1  LIG1       -0.5049
     29 H          -2.4799    9.8746   -0.1360 H       1  LIG1        0.2922
@<TRIPOS>BOND
     1    25    23    1
     2     9    10    1
     3     9     3    1
     4    24    23   ar
     5    24    20   ar
     6     7     8    3
     7    23    22   ar
     8     8     2    1
     9    18    13    1
    10    18    19    1
    11     3     2   ar
    12     3     4   ar
    13    20    14    1
    14    20    21   ar
    15    22    28    1
    16    22    21   ar
    17    29    28    1
    18    13    14   ar
    19    13    12   ar
    20    14    15   ar
    21     2     1   ar
    22    12    17    1
    23    12    11   ar
    24    17    16    3
    25    15    11   ar
    26    11     4    1
    27    21    27    1
    28     4     5   ar
    29     1     6    1
    30     1     5   ar
    31    27    26    3
