@<TRIPOS>MOLECULE
mol_data/opt/cam/geoms/mol2/5df5df-5df-.out
 29 31 0 0 0
SMALL
GASTEIGER

@<TRIPOS>ATOM
      1 C          -2.1446   -1.7855   -0.1475 C.ar    1  LIG1       -0.0027
      2 C          -0.8492   -1.8446    0.2777 C.ar    1  LIG1        0.1007
      3 C          -0.1968   -0.5642    0.2680 C.ar    1  LIG1        0.1494
      4 C          -1.0338    0.4447   -0.1692 C.ar    1  LIG1        0.0699
      5 S          -2.6062   -0.2023   -0.5861 S.2     1  LIG1       -0.0910
      6 H          -2.8339   -2.6112   -0.2468 H       1  LIG1        0.0708
      7 N           0.3090   -4.0325    1.0141 N.1     1  LIG1       -0.1907
      8 C          -0.1990   -3.0468    0.6874 C.1     1  LIG1        0.1034
      9 O           1.0528   -0.4853    0.7394 O.3     1  LIG1       -0.5043
     10 H           1.6038    0.1495    0.2521 H       1  LIG1        0.2922
     11 C          -0.8218    1.8765   -0.2218 C.ar    1  LIG1        0.0511
     12 C           0.3216    2.5884   -0.5160 C.ar    1  LIG1        0.1090
     13 C           0.1642    4.0120   -0.4456 C.ar    1  LIG1        0.1501
     14 C          -1.1201    4.3822   -0.1120 C.ar    1  LIG1        0.0705
     15 S          -2.1066    2.9654    0.1752 S.2     1  LIG1       -0.0820
     16 N           2.5062    1.3839   -1.1593 N.1     1  LIG1       -0.1907
     17 C           1.5431    1.9708   -0.8920 C.1     1  LIG1        0.1040
     18 O           1.2057    4.7765   -0.7991 O.3     1  LIG1       -0.5043
     19 H           1.2850    5.5803   -0.2582 H       1  LIG1        0.2922
     20 C          -1.7345    5.6944   -0.0689 C.ar    1  LIG1        0.0505
     21 C          -1.1946    6.8999    0.3338 C.ar    1  LIG1        0.1084
     22 C          -2.1083    7.9995    0.2175 C.ar    1  LIG1        0.1418
     23 C          -3.3261    7.6180   -0.2486 C.ar    1  LIG1        0.0191
     24 S          -3.3712    5.9222   -0.5872 S.2     1  LIG1       -0.0910
     25 H          -4.1996    8.2313   -0.4131 H       1  LIG1        0.0731
     26 N           1.2227    7.0452    1.2101 N.1     1  LIG1       -0.1907
     27 C           0.1242    7.0257    0.8394 C.1     1  LIG1        0.1040
     28 O          -1.6907    9.2290    0.5817 O.3     1  LIG1       -0.5049
     29 H          -2.3996    9.8721    0.4623 H       1  LIG1        0.2922
@<TRIPOS>BOND
     1    16    17    3
     2    17    12    1
     3    18    13    1
     4    18    19    1
     5    24    23   ar
     6    24    20   ar
     7     5     4   ar
     8     5     1   ar
     9    12    13   ar
    10    12    11   ar
    11    13    14   ar
    12    25    23    1
    13    23    22   ar
    14     6     1    1
    15    11     4    1
    16    11    15   ar
    17     4     3   ar
    18     1     2   ar
    19    14    20    1
    20    14    15   ar
    21    20    21   ar
    22    22    21   ar
    23    22    28    1
    24    10     9    1
    25     3     2   ar
    26     3     9    1
    27     2     8    1
    28    21    27    1
    29    29    28    1
    30     8     7    3
    31    27    26    3
