@<TRIPOS>MOLECULE
mol_data/opt/cam/geoms/mol2/5dg.out
 11 11 0 0 0
SMALL
GASTEIGER

@<TRIPOS>ATOM
      1 C          -2.1424   -1.7243    0.0002 C.ar    1  LIG1       -0.0059
      2 C          -0.7753   -1.6871   -0.0003 C.ar    1  LIG1        0.0719
      3 C          -0.2561   -0.3439   -0.0002 C.ar    1  LIG1        0.0292
      4 C          -1.2554    0.5792    0.0003 C.ar    1  LIG1       -0.0099
      5 S          -2.8185   -0.1551    0.0005 S.2     1  LIG1       -0.1027
      6 H          -2.7674   -2.6051    0.0002 H       1  LIG1        0.0706
      7 H          -1.1640    1.6553    0.0005 H       1  LIG1        0.0705
      8 N           0.7078   -3.8036   -0.0011 N.1     1  LIG1       -0.1908
      9 C           0.0401   -2.8590   -0.0008 C.1     1  LIG1        0.1008
     10 S           1.4868   -0.0443   -0.0007 S.3     1  LIG1       -0.1409
     11 H           1.3935    1.2948   -0.0004 H       1  LIG1        0.1072
@<TRIPOS>BOND
     1     8     9    3
     2     9     2    1
     3    10    11    1
     4    10     3    1
     5     2     3   ar
     6     2     1   ar
     7     3     4   ar
     8     1     6    1
     9     1     5   ar
    10     4     7    1
    11     4     5   ar
