@<TRIPOS>MOLECULE
mol_data/opt/cam/geoms/mol2/5dg5dg5dg-5dg.out
 38 41 0 0 0
SMALL
GASTEIGER

@<TRIPOS>ATOM
      1 C          -0.9374   -1.5090    2.2140 C.ar    1  LIG1       -0.0052
      2 C          -0.9633   -1.7772    0.8741 C.ar    1  LIG1        0.0725
      3 C          -0.8258   -0.5981    0.0616 C.ar    1  LIG1        0.0375
      4 C          -0.6938    0.5314    0.8282 C.ar    1  LIG1        0.0416
      5 S          -0.7418    0.1541    2.5312 S.2     1  LIG1       -0.0937
      6 H          -1.0188   -2.2256    3.0183 H       1  LIG1        0.0707
      7 N          -1.2610   -4.1559   -0.0909 N.1     1  LIG1       -0.1908
      8 C          -1.1246   -3.0928    0.3434 C.1     1  LIG1        0.1008
      9 S          -0.8949   -0.7315   -1.6927 S.3     1  LIG1       -0.1403
     10 H          -0.6996    0.5726   -1.9419 H       1  LIG1        0.1072
     11 C          -0.5470    1.9182    0.3956 C.ar    1  LIG1        0.0460
     12 C           0.4877    2.4823   -0.3165 C.ar    1  LIG1        0.0808
     13 C           0.3164    3.8859   -0.5706 C.ar    1  LIG1        0.0381
     14 C          -0.8465    4.3637   -0.0234 C.ar    1  LIG1        0.0422
     15 S          -1.7401    3.1013    0.7765 S.2     1  LIG1       -0.0847
     16 N           2.5692    1.1658   -1.0974 N.1     1  LIG1       -0.1908
     17 C           1.6362    1.7480   -0.7392 C.1     1  LIG1        0.1014
     18 S           1.5181    4.7559   -1.5189 S.3     1  LIG1       -0.1402
     19 H           0.9161    5.9527   -1.4398 H       1  LIG1        0.1072
     20 C          -1.3784    5.7239   -0.0544 C.ar    1  LIG1        0.0460
     21 C          -0.8441    6.8551    0.5203 C.ar    1  LIG1        0.0808
     22 C          -1.6295    8.0380    0.3034 C.ar    1  LIG1        0.0381
     23 C          -2.7622    7.7717   -0.4218 C.ar    1  LIG1        0.0422
     24 S          -2.8587    6.0888   -0.8563 S.2     1  LIG1       -0.0847
     25 N           1.3445    6.8530    1.8938 N.1     1  LIG1       -0.1908
     26 C           0.3633    6.8459    1.2814 C.1     1  LIG1        0.1014
     27 S          -1.0709    9.5892    0.9215 S.3     1  LIG1       -0.1402
     28 H          -2.1149   10.2995    0.4661 H       1  LIG1        0.1072
     29 C          -3.8143    8.6951   -0.8405 C.ar    1  LIG1        0.0454
     30 C          -4.7038    9.3809   -0.0425 C.ar    1  LIG1        0.0802
     31 C          -5.6158   10.2061   -0.7856 C.ar    1  LIG1        0.0298
     32 C          -5.3978   10.1122   -2.1261 C.ar    1  LIG1       -0.0093
     33 S          -4.0948    9.0519   -2.5055 S.2     1  LIG1       -0.0937
     34 H          -5.9344   10.6119   -2.9195 H       1  LIG1        0.0705
     35 N          -4.7728    9.1619    2.5311 N.1     1  LIG1       -0.1908
     36 C          -4.7359    9.2533    1.3786 C.1     1  LIG1        0.1014
     37 S          -6.8404   11.1739    0.0431 S.3     1  LIG1       -0.1408
     38 H          -7.3661   11.7064   -1.0715 H       1  LIG1        0.1072
@<TRIPOS>BOND
     1    34    32    1
     2    33    32   ar
     3    33    29   ar
     4    32    31   ar
     5    10     9    1
     6     9     3    1
     7    18    19    1
     8    18    13    1
     9    16    17    3
    10    38    37    1
    11    24    23   ar
    12    24    20   ar
    13    29    23    1
    14    29    30   ar
    15    31    30   ar
    16    31    37    1
    17    17    12    1
    18    13    12   ar
    19    13    14   ar
    20    23    22   ar
    21    12    11   ar
    22     7     8    3
    23    20    14    1
    24    20    21   ar
    25    30    36    1
    26    14    15   ar
    27     3     4   ar
    28     3     2   ar
    29    22    21   ar
    30    22    27    1
    31     8     2    1
    32    11    15   ar
    33    11     4    1
    34    28    27    1
    35    21    26    1
    36     4     5   ar
    37     2     1   ar
    38    26    25    3
    39    36    35    3
    40     1     5   ar
    41     1     6    1
