@<TRIPOS>MOLECULE
mol_data/opt/cam/geoms/mol2/5dg5dg-5dg-.out
 29 31 0 0 0
SMALL
GASTEIGER

@<TRIPOS>ATOM
      1 C          -1.5470   -1.7077    1.4692 C.ar    1  LIG1       -0.0052
      2 C          -0.8817   -1.8628    0.2856 C.ar    1  LIG1        0.0725
      3 C          -0.4822   -0.6125   -0.3033 C.ar    1  LIG1        0.0375
      4 C          -0.8608    0.4546    0.4702 C.ar    1  LIG1        0.0416
      5 S          -1.7031   -0.0676    1.9063 S.2     1  LIG1       -0.0937
      6 H          -1.9412   -2.4936    2.0969 H       1  LIG1        0.0707
      7 N          -0.4237   -4.1670   -0.7913 N.1     1  LIG1       -0.1908
      8 C          -0.6267   -3.1370   -0.3059 C.1     1  LIG1        0.1008
      9 S           0.3376   -0.6001   -1.8614 S.3     1  LIG1       -0.1403
     10 H           0.4894    0.7315   -1.9304 H       1  LIG1        0.1072
     11 C          -0.6612    1.8796    0.2219 C.ar    1  LIG1        0.0460
     12 C           0.5267    2.5723    0.1526 C.ar    1  LIG1        0.0808
     13 C           0.3624    3.9760   -0.1059 C.ar    1  LIG1        0.0381
     14 C          -0.9595    4.3242   -0.2088 C.ar    1  LIG1        0.0422
     15 S          -1.9981    2.9404   -0.0151 S.2     1  LIG1       -0.0847
     16 N           2.8409    1.4736    0.4899 N.1     1  LIG1       -0.1908
     17 C           1.8005    1.9577    0.3448 C.1     1  LIG1        0.1014
     18 S           1.7784    5.0080   -0.2815 S.3     1  LIG1       -0.1402
     19 H           1.0934    6.1411   -0.5020 H       1  LIG1        0.1072
     20 C          -1.5390    5.6418   -0.4582 C.ar    1  LIG1        0.0454
     21 C          -1.4921    6.7555    0.3518 C.ar    1  LIG1        0.0802
     22 C          -2.1767    7.8913   -0.2017 C.ar    1  LIG1        0.0298
     23 C          -2.7328    7.6018   -1.4099 C.ar    1  LIG1       -0.0093
     24 S          -2.4284    5.9785   -1.8986 S.2     1  LIG1       -0.0937
     25 H          -3.3090    8.2574   -2.0464 H       1  LIG1        0.0705
     26 N          -0.3477    6.7932    2.6680 N.1     1  LIG1       -0.1908
     27 C          -0.8583    6.7660    1.6305 C.1     1  LIG1        0.1014
     28 S          -2.2373    9.4258    0.6733 S.3     1  LIG1       -0.1408
     29 H          -2.9583   10.0785   -0.2521 H       1  LIG1        0.1072
@<TRIPOS>BOND
     1    25    23    1
     2    10     9    1
     3    24    23   ar
     4    24    20   ar
     5     9     3    1
     6    23    22   ar
     7     7     8    3
     8    19    18    1
     9    20    14    1
    10    20    21   ar
    11     8     2    1
    12     3     2   ar
    13     3     4   ar
    14    18    13    1
    15    29    28    1
    16    14    13   ar
    17    14    15   ar
    18    22    21   ar
    19    22    28    1
    20    13    12   ar
    21    15    11   ar
    22    12    11   ar
    23    12    17    1
    24    11     4    1
    25     2     1   ar
    26    17    16    3
    27    21    27    1
    28     4     5   ar
    29     1     5   ar
    30     1     6    1
    31    27    26    3
