@<TRIPOS>MOLECULE
mol_data/opt/cam/geoms/mol2/5dg5dg.out
 20 21 0 0 0
SMALL
GASTEIGER

@<TRIPOS>ATOM
      1 C          -1.9357   -1.7580    0.8281 C.ar    1  LIG1       -0.0052
      2 C          -0.7892   -1.8475    0.0897 C.ar    1  LIG1        0.0725
      3 C          -0.2848   -0.5652   -0.3240 C.ar    1  LIG1        0.0375
      4 C          -1.0747    0.4603    0.1277 C.ar    1  LIG1        0.0416
      5 S          -2.4288   -0.1410    1.0495 S.2     1  LIG1       -0.0937
      6 H          -2.4986   -2.5779    1.2497 H       1  LIG1        0.0707
      7 N           0.3287   -4.0962   -0.5204 N.1     1  LIG1       -0.1908
      8 C          -0.1713   -3.0905   -0.2441 C.1     1  LIG1        0.1008
      9 S           1.1551   -0.4704   -1.3332 S.3     1  LIG1       -0.1403
     10 H           1.1768    0.8689   -1.4176 H       1  LIG1        0.1072
     11 C          -0.9157    1.8965   -0.0824 C.ar    1  LIG1        0.0454
     12 C           0.0993    2.7142    0.3648 C.ar    1  LIG1        0.0802
     13 C          -0.0615    4.0880   -0.0262 C.ar    1  LIG1        0.0298
     14 C          -1.2004    4.2750   -0.7473 C.ar    1  LIG1       -0.0093
     15 S          -2.0753    2.8091   -0.9786 S.2     1  LIG1       -0.0937
     16 H          -1.5770    5.1997   -1.1596 H       1  LIG1        0.0705
     17 N           2.0705    1.8939    1.8197 N.1     1  LIG1       -0.1908
     18 C           1.1825    2.2497    1.1693 C.1     1  LIG1        0.1014
     19 S           1.1302    5.3075    0.4407 S.3     1  LIG1       -0.1408
     20 H           0.5073    6.3366   -0.1552 H       1  LIG1        0.1072
@<TRIPOS>BOND
     1    10     9    1
     2     9     3    1
     3    16    14    1
     4    15    14   ar
     5    15    11   ar
     6    14    13   ar
     7     7     8    3
     8     3     2   ar
     9     3     4   ar
    10     8     2    1
    11    20    19    1
    12    11     4    1
    13    11    12   ar
    14    13    12   ar
    15    13    19    1
    16     2     1   ar
    17     4     5   ar
    18    12    18    1
    19     1     5   ar
    20     1     6    1
    21    18    17    3
