@<TRIPOS>MOLECULE
mol_data/opt/cam/geoms/mol2/5dg5dg-5dg-5dg.out
 38 41 0 0 0
SMALL
GASTEIGER

@<TRIPOS>ATOM
      1 C          -1.8146   -2.0067   -0.2477 C.ar    1  LIG1       -0.0052
      2 C          -0.6337   -1.9085    0.4325 C.ar    1  LIG1        0.0725
      3 C          -0.1448   -0.5580    0.5222 C.ar    1  LIG1        0.0375
      4 C          -0.9833    0.3248   -0.1097 C.ar    1  LIG1        0.0416
      5 S          -2.3636   -0.4903   -0.8004 S.2     1  LIG1       -0.0937
      6 H          -2.3732   -2.9099   -0.4459 H       1  LIG1        0.0707
      7 N           0.5696   -3.9448    1.4737 N.1     1  LIG1       -0.1908
      8 C           0.0317   -3.0346    1.0051 C.1     1  LIG1        0.1008
      9 S           1.3336   -0.2211    1.4154 S.3     1  LIG1       -0.1403
     10 H           1.3120    1.1084    1.2328 H       1  LIG1        0.1072
     11 C          -0.8561    1.7727   -0.2393 C.ar    1  LIG1        0.0460
     12 C           0.1326    2.4852   -0.8798 C.ar    1  LIG1        0.0808
     13 C          -0.0483    3.9094   -0.8199 C.ar    1  LIG1        0.0381
     14 C          -1.1857    4.2479   -0.1323 C.ar    1  LIG1        0.0422
     15 S          -2.0248    2.8364    0.4482 S.2     1  LIG1       -0.0847
     16 N           2.0815    1.3768   -2.1642 N.1     1  LIG1       -0.1908
     17 C           1.2065    1.8648   -1.5862 C.1     1  LIG1        0.1014
     18 S           1.0947    4.9690   -1.6376 S.3     1  LIG1       -0.1402
     19 H           0.4725    6.1160   -1.3236 H       1  LIG1        0.1072
     20 C          -1.7264    5.5766    0.1375 C.ar    1  LIG1        0.0460
     21 C          -1.1577    6.5841    0.8840 C.ar    1  LIG1        0.0808
     22 C          -1.9609    7.7726    0.9564 C.ar    1  LIG1        0.0381
     23 C          -3.1357    7.6361    0.2625 C.ar    1  LIG1        0.0422
     24 S          -3.2543    6.0693   -0.4875 S.2     1  LIG1       -0.0847
     25 N           1.0948    6.3254    2.1232 N.1     1  LIG1       -0.1908
     26 C           0.0876    6.4368    1.5656 C.1     1  LIG1        0.1014
     27 S          -1.4115    9.1457    1.9116 S.3     1  LIG1       -0.1402
     28 H          -2.4746    9.9237    1.6544 H       1  LIG1        0.1072
     29 C          -4.2168    8.6048    0.1009 C.ar    1  LIG1        0.0454
     30 C          -4.1727    9.8177   -0.5516 C.ar    1  LIG1        0.0802
     31 C          -5.4245   10.5227   -0.5278 C.ar    1  LIG1        0.0298
     32 C          -6.3841    9.8174    0.1315 C.ar    1  LIG1       -0.0093
     33 S          -5.7937    8.3181    0.7405 S.2     1  LIG1       -0.0937
     34 H          -7.4143   10.0975    0.2965 H       1  LIG1        0.0705
     35 N          -2.0657   10.7039   -1.7563 N.1     1  LIG1       -0.1908
     36 C          -3.0063   10.3014   -1.2165 C.1     1  LIG1        0.1014
     37 S          -5.5887   12.1018   -1.3044 S.3     1  LIG1       -0.1408
     38 H          -6.8845   12.2680   -0.9957 H       1  LIG1        0.1072
@<TRIPOS>BOND
     1    16    17    3
     2    35    36    3
     3    18    19    1
     4    18    13    1
     5    17    12    1
     6    37    38    1
     7    37    31    1
     8    36    30    1
     9    12    13   ar
    10    12    11   ar
    11    13    14   ar
    12     5     1   ar
    13     5     4   ar
    14    30    31   ar
    15    30    29   ar
    16    31    32   ar
    17    24    20   ar
    18    24    23   ar
    19     6     1    1
    20     1     2   ar
    21    11     4    1
    22    11    15   ar
    23    14    20    1
    24    14    15   ar
    25     4     3   ar
    26    29    23    1
    27    29    33   ar
    28    32    34    1
    29    32    33   ar
    30    20    21   ar
    31    23    22   ar
    32     2     3   ar
    33     2     8    1
    34     3     9    1
    35    21    22   ar
    36    21    26    1
    37    22    27    1
    38     8     7    3
    39    10     9    1
    40    26    25    3
    41    28    27    1
