@<TRIPOS>MOLECULE
mol_data/opt/cam/geoms/mol2/5dg5dg5dg.out
 29 31 0 0 0
SMALL
GASTEIGER

@<TRIPOS>ATOM
      1 C          -1.8718   -1.9239    0.4398 C.ar    1  LIG1       -0.0052
      2 C          -0.8077   -1.8239   -0.4115 C.ar    1  LIG1        0.0725
      3 C          -0.3107   -0.4793   -0.5380 C.ar    1  LIG1        0.0375
      4 C          -1.0235    0.3972    0.2399 C.ar    1  LIG1        0.0416
      5 S          -2.2977   -0.4163    1.1122 S.2     1  LIG1       -0.0937
      6 H          -2.4120   -2.8235    0.6964 H       1  LIG1        0.0707
      7 N           0.1796   -3.8470   -1.6808 N.1     1  LIG1       -0.1908
      8 C          -0.2613   -2.9426   -1.1105 C.1     1  LIG1        0.1008
      9 S           1.0198   -0.1384   -1.6384 S.3     1  LIG1       -0.1403
     10 H           1.0523    1.1851   -1.4181 H       1  LIG1        0.1072
     11 C          -0.8469    1.8382    0.3889 C.ar    1  LIG1        0.0460
     12 C           0.2431    2.5127    0.8919 C.ar    1  LIG1        0.0808
     13 C           0.0852    3.9405    0.9005 C.ar    1  LIG1        0.0381
     14 C          -1.1354    4.3215    0.4058 C.ar    1  LIG1        0.0422
     15 S          -2.0816    2.9439   -0.0827 S.2     1  LIG1       -0.0847
     16 N           2.3409    1.3346    1.8338 N.1     1  LIG1       -0.1908
     17 C           1.3984    1.8530    1.4087 C.1     1  LIG1        0.1014
     18 S           1.3611    4.9600    1.5587 S.3     1  LIG1       -0.1402
     19 H           0.7315    6.1245    1.3378 H       1  LIG1        0.1072
     20 C          -1.6800    5.6688    0.2609 C.ar    1  LIG1        0.0454
     21 C          -1.2274    6.6798   -0.5587 C.ar    1  LIG1        0.0802
     22 C          -2.0027    7.8855   -0.4573 C.ar    1  LIG1        0.0298
     23 C          -3.0283    7.7487    0.4271 C.ar    1  LIG1       -0.0093
     24 S          -3.0625    6.1876    1.1545 S.2     1  LIG1       -0.0937
     25 H          -3.7724    8.4846    0.6951 H       1  LIG1        0.0705
     26 N           0.7760    6.4149   -2.1688 N.1     1  LIG1       -0.1908
     27 C          -0.1208    6.5260   -1.4466 C.1     1  LIG1        0.1014
     28 S          -1.5928    9.3088   -1.4217 S.3     1  LIG1       -0.1408
     29 H          -2.5856   10.0794   -0.9502 H       1  LIG1        0.1072
@<TRIPOS>BOND
     1    26    27    3
     2     7     8    3
     3     9    10    1
     4     9     3    1
     5    27    21    1
     6    28    29    1
     7    28    22    1
     8     8     2    1
     9    21    22   ar
    10    21    20   ar
    11     3     2   ar
    12     3     4   ar
    13    22    23   ar
    14     2     1   ar
    15    15    11   ar
    16    15    14   ar
    17     4    11    1
    18     4     5   ar
    19    20    14    1
    20    20    24   ar
    21    11    12   ar
    22    14    13   ar
    23    23    25    1
    24    23    24   ar
    25     1     6    1
    26     1     5   ar
    27    12    13   ar
    28    12    17    1
    29    13    18    1
    30    19    18    1
    31    17    16    3
