@<TRIPOS>MOLECULE
mol_data/opt/cam/geoms/mol2/5dg5dg5dg-5dg-.out
 38 41 0 0 0
SMALL
GASTEIGER

@<TRIPOS>ATOM
      1 C          -0.7588   -1.8181    1.6320 C.ar    1  LIG1       -0.0052
      2 C          -0.7889   -1.9001    0.2682 C.ar    1  LIG1        0.0725
      3 C          -0.7231   -0.6146   -0.3744 C.ar    1  LIG1        0.0375
      4 C          -0.6393    0.4038    0.5402 C.ar    1  LIG1        0.0416
      5 S          -0.6447   -0.2064    2.1749 S.2     1  LIG1       -0.0937
      6 H          -0.7924   -2.6421    2.3299 H       1  LIG1        0.0707
      7 N          -0.9785   -4.1362   -1.0133 N.1     1  LIG1       -0.1908
      8 C          -0.8901   -3.1368   -0.4380 C.1     1  LIG1        0.1008
      9 S          -0.8075   -0.5071   -2.1297 S.3     1  LIG1       -0.1403
     10 H          -0.6897    0.8281   -2.1953 H       1  LIG1        0.1072
     11 C          -0.5687    1.8425    0.3010 C.ar    1  LIG1        0.0460
     12 C           0.4319    2.5523   -0.3235 C.ar    1  LIG1        0.0808
     13 C           0.1852    3.9666   -0.3878 C.ar    1  LIG1        0.0381
     14 C          -1.0002    4.3027    0.2143 C.ar    1  LIG1        0.0422
     15 S          -1.8235    2.8976    0.8315 S.2     1  LIG1       -0.0847
     16 N           2.5766    1.4606   -1.2639 N.1     1  LIG1       -0.1908
     17 C           1.6158    1.9421   -0.8366 C.1     1  LIG1        0.1014
     18 S           1.3355    5.0177   -1.2064 S.3     1  LIG1       -0.1402
     19 H           0.6490    6.1549   -1.0135 H       1  LIG1        0.1072
     20 C          -1.6037    5.6238    0.3646 C.ar    1  LIG1        0.0460
     21 C          -1.1203    6.6992    1.0756 C.ar    1  LIG1        0.0808
     22 C          -1.9694    7.8564    1.0195 C.ar    1  LIG1        0.0381
     23 C          -3.0918    7.6285    0.2655 C.ar    1  LIG1        0.0422
     24 S          -3.1057    6.0136   -0.3837 S.2     1  LIG1       -0.0847
     25 N           1.0574    6.6220    2.4641 N.1     1  LIG1       -0.1908
     26 C           0.0845    6.6495    1.8392 C.1     1  LIG1        0.1014
     27 S          -1.5323    9.3097    1.9121 S.3     1  LIG1       -0.1402
     28 H          -2.6049   10.0252    1.5388 H       1  LIG1        0.1072
     29 C          -4.1937    8.5416   -0.0274 C.ar    1  LIG1        0.0454
     30 C          -4.1506    9.7078   -0.7602 C.ar    1  LIG1        0.0802
     31 C          -5.4247   10.3648   -0.8598 C.ar    1  LIG1        0.0298
     32 C          -6.3984    9.6702   -0.2099 C.ar    1  LIG1       -0.0093
     33 S          -5.7962    8.2396    0.5369 S.2     1  LIG1       -0.0937
     34 H          -7.4457    9.9215   -0.1263 H       1  LIG1        0.0705
     35 N          -2.0042   10.5882   -1.8976 N.1     1  LIG1       -0.1908
     36 C          -2.9623   10.1887   -1.3872 C.1     1  LIG1        0.1014
     37 S          -5.5933   11.8797   -1.7542 S.3     1  LIG1       -0.1408
     38 H          -6.9090   12.0224   -1.5288 H       1  LIG1        0.1072
@<TRIPOS>BOND
     1    10     9    1
     2     9     3    1
     3    35    36    3
     4    37    38    1
     5    37    31    1
     6    36    30    1
     7    16    17    3
     8    18    19    1
     9    18    13    1
    10     7     8    3
    11    31    30   ar
    12    31    32   ar
    13    17    12    1
    14    30    29   ar
    15     8     2    1
    16    13    12   ar
    17    13    14   ar
    18    24    23   ar
    19    24    20   ar
    20     3     2   ar
    21     3     4   ar
    22    12    11   ar
    23    32    34    1
    24    32    33   ar
    25    29    23    1
    26    29    33   ar
    27    14    20    1
    28    14    15   ar
    29    23    22   ar
    30     2     1   ar
    31    11     4    1
    32    11    15   ar
    33    20    21   ar
    34     4     5   ar
    35    22    21   ar
    36    22    27    1
    37    21    26    1
    38    28    27    1
    39     1     5   ar
    40     1     6    1
    41    26    25    3
