@<TRIPOS>MOLECULE
mol_data/opt/cam/geoms/mol2/5dg5dg-5dg.out
 29 31 0 0 0
SMALL
GASTEIGER

@<TRIPOS>ATOM
      1 C          -1.5505   -1.6938    1.5082 C.ar    1  LIG1       -0.0052
      2 C          -0.9108   -1.8604    0.3121 C.ar    1  LIG1        0.0725
      3 C          -0.5148   -0.6163   -0.2922 C.ar    1  LIG1        0.0375
      4 C          -0.8700    0.4579    0.4827 C.ar    1  LIG1        0.0416
      5 S          -1.6862   -0.0502    1.9388 S.2     1  LIG1       -0.0937
      6 H          -1.9370   -2.4734    2.1484 H       1  LIG1        0.0707
      7 N          -0.4910   -4.1738   -0.7605 N.1     1  LIG1       -0.1908
      8 C          -0.6768   -3.1397   -0.2771 C.1     1  LIG1        0.1008
      9 S           0.2728   -0.6185   -1.8669 S.3     1  LIG1       -0.1403
     10 H           0.4323    0.7116   -1.9467 H       1  LIG1        0.1072
     11 C          -0.6657    1.8800    0.2220 C.ar    1  LIG1        0.0460
     12 C           0.5253    2.5639    0.1243 C.ar    1  LIG1        0.0808
     13 C           0.3654    3.9672   -0.1389 C.ar    1  LIG1        0.0381
     14 C          -0.9559    4.3242   -0.2167 C.ar    1  LIG1        0.0422
     15 S          -1.9999    2.9488    0.0064 S.2     1  LIG1       -0.0847
     16 N           2.8382    1.4509    0.4203 N.1     1  LIG1       -0.1908
     17 C           1.7985    1.9415    0.2938 C.1     1  LIG1        0.1014
     18 S           1.7846    4.9882   -0.3497 S.3     1  LIG1       -0.1402
     19 H           1.1030    6.1248   -0.5626 H       1  LIG1        0.1072
     20 C          -1.5313    5.6443   -0.4618 C.ar    1  LIG1        0.0454
     21 C          -1.4600    6.7622    0.3406 C.ar    1  LIG1        0.0802
     22 C          -2.1480    7.8997   -0.2054 C.ar    1  LIG1        0.0298
     23 C          -2.7309    7.6072   -1.4002 C.ar    1  LIG1       -0.0093
     24 S          -2.4478    5.9791   -1.8856 S.2     1  LIG1       -0.0937
     25 H          -3.3155    8.2633   -2.0286 H       1  LIG1        0.0705
     26 N          -0.2679    6.8051    2.6325 N.1     1  LIG1       -0.1908
     27 C          -0.7999    6.7756    1.6058 C.1     1  LIG1        0.1014
     28 S          -2.1799    9.4396    0.6617 S.3     1  LIG1       -0.1408
     29 H          -2.9152   10.0920   -0.2525 H       1  LIG1        0.1072
@<TRIPOS>BOND
     1    25    23    1
     2    10     9    1
     3    24    23   ar
     4    24    20   ar
     5     9     3    1
     6    23    22   ar
     7     7     8    3
     8    19    18    1
     9    20    14    1
    10    20    21   ar
    11    18    13    1
    12     3     2   ar
    13     3     4   ar
    14     8     2    1
    15    29    28    1
    16    14    13   ar
    17    14    15   ar
    18    22    21   ar
    19    22    28    1
    20    13    12   ar
    21    15    11   ar
    22    12    11   ar
    23    12    17    1
    24    11     4    1
    25    17    16    3
    26     2     1   ar
    27    21    27    1
    28     4     5   ar
    29     1     5   ar
    30     1     6    1
    31    27    26    3
