@<TRIPOS>MOLECULE
mol_data/opt/cam/geoms/mol2/5dg5dg5dg-.out
 29 31 0 0 0
SMALL
GASTEIGER

@<TRIPOS>ATOM
      1 C          -1.8443   -1.9286    0.4555 C.ar    1  LIG1       -0.0052
      2 C          -0.7724   -1.8255   -0.3856 C.ar    1  LIG1        0.0725
      3 C          -0.2827   -0.4784   -0.5129 C.ar    1  LIG1        0.0375
      4 C          -1.0086    0.3969    0.2541 C.ar    1  LIG1        0.0416
      5 S          -2.2864   -0.4210    1.1172 S.2     1  LIG1       -0.0937
      6 H          -2.3815   -2.8306    0.7105 H       1  LIG1        0.0707
      7 N           0.2400   -3.8477   -1.6364 N.1     1  LIG1       -0.1908
      8 C          -0.2122   -2.9438   -1.0744 C.1     1  LIG1        0.1008
      9 S           1.0566   -0.1338   -1.6015 S.3     1  LIG1       -0.1403
     10 H           1.0787    1.1909   -1.3866 H       1  LIG1        0.1072
     11 C          -0.8425    1.8395    0.3987 C.ar    1  LIG1        0.0460
     12 C           0.2382    2.5230    0.9096 C.ar    1  LIG1        0.0808
     13 C           0.0712    3.9498    0.9105 C.ar    1  LIG1        0.0381
     14 C          -1.1467    4.3210    0.4022 C.ar    1  LIG1        0.0422
     15 S          -2.0793    2.9355   -0.0898 S.2     1  LIG1       -0.0847
     16 N           2.3338    1.3621    1.8774 N.1     1  LIG1       -0.1908
     17 C           1.3924    1.8728    1.4407 C.1     1  LIG1        0.1014
     18 S           1.3342    4.9801    1.5770 S.3     1  LIG1       -0.1402
     19 H           0.6995    6.1397    1.3449 H       1  LIG1        0.1072
     20 C          -1.6982    5.6643    0.2461 C.ar    1  LIG1        0.0454
     21 C          -1.2438    6.6746   -0.5733 C.ar    1  LIG1        0.0802
     22 C          -2.0276    7.8758   -0.4847 C.ar    1  LIG1        0.0298
     23 C          -3.0611    7.7364    0.3900 C.ar    1  LIG1       -0.0093
     24 S          -3.0928    6.1781    1.1237 S.2     1  LIG1       -0.0937
     25 H          -3.8124    8.4687    0.6475 H       1  LIG1        0.0705
     26 N           0.7772    6.4156   -2.1622 N.1     1  LIG1       -0.1908
     27 C          -0.1274    6.5241   -1.4495 C.1     1  LIG1        0.1014
     28 S          -1.6170    9.2976   -1.4511 S.3     1  LIG1       -0.1408
     29 H          -2.6193   10.0640   -0.9927 H       1  LIG1        0.1072
@<TRIPOS>BOND
     1    26    27    3
     2     7     8    3
     3     9    10    1
     4     9     3    1
     5    28    29    1
     6    28    22    1
     7    27    21    1
     8     8     2    1
     9    21    22   ar
    10    21    20   ar
    11     3     2   ar
    12     3     4   ar
    13    22    23   ar
    14     2     1   ar
    15    15    11   ar
    16    15    14   ar
    17    20    14    1
    18    20    24   ar
    19     4    11    1
    20     4     5   ar
    21    23    25    1
    22    23    24   ar
    23    11    12   ar
    24    14    13   ar
    25     1     6    1
    26     1     5   ar
    27    12    13   ar
    28    12    17    1
    29    13    18    1
    30    19    18    1
    31    17    16    3
