@<TRIPOS>MOLECULE
mol_data/opt/cam/geoms/mol2/5dg5dg5dg5dg-.out
 38 41 0 0 0
SMALL
GASTEIGER

@<TRIPOS>ATOM
      1 C          -1.8093   -2.0012    0.3558 C.ar    1  LIG1       -0.0052
      2 C          -0.6186   -1.9133   -0.3086 C.ar    1  LIG1        0.0725
      3 C          -0.1302   -0.5638   -0.4152 C.ar    1  LIG1        0.0375
      4 C          -0.9790    0.3288    0.1883 C.ar    1  LIG1        0.0416
      5 S          -2.3684   -0.4759    0.8730 S.2     1  LIG1       -0.0937
      6 H          -2.3697   -2.9015    0.5619 H       1  LIG1        0.0707
      7 N           0.6026   -3.9660   -1.2952 N.1     1  LIG1       -0.1908
      8 C           0.0566   -3.0484   -0.8510 C.1     1  LIG1        0.1008
      9 S           1.3608   -0.2406   -1.2924 S.3     1  LIG1       -0.1403
     10 H           1.3348    1.0919   -1.1340 H       1  LIG1        0.1072
     11 C          -0.8557    1.7790    0.2938 C.ar    1  LIG1        0.0460
     12 C           0.1225    2.5043    0.9360 C.ar    1  LIG1        0.0808
     13 C          -0.0593    3.9270    0.8479 C.ar    1  LIG1        0.0381
     14 C          -1.1869    4.2513    0.1376 C.ar    1  LIG1        0.0422
     15 S          -2.0155    2.8285   -0.4298 S.2     1  LIG1       -0.0847
     16 N           2.0536    1.4222    2.2686 N.1     1  LIG1       -0.1908
     17 C           1.1866    1.8984    1.6692 C.1     1  LIG1        0.1014
     18 S           1.0701    5.0028    1.6632 S.3     1  LIG1       -0.1402
     19 H           0.4512    6.1431    1.3196 H       1  LIG1        0.1072
     20 C          -1.7252    5.5742   -0.1639 C.ar    1  LIG1        0.0460
     21 C          -1.1468    6.5691   -0.9199 C.ar    1  LIG1        0.0808
     22 C          -1.9504    7.7548   -1.0255 C.ar    1  LIG1        0.0381
     23 C          -3.1351    7.6289   -0.3467 C.ar    1  LIG1        0.0422
     24 S          -3.2629    6.0757    0.4295 S.2     1  LIG1       -0.0847
     25 N           1.1241    6.2917   -2.1208 N.1     1  LIG1       -0.1908
     26 C           0.1086    6.4115   -1.5803 C.1     1  LIG1        0.1014
     27 S          -1.3887    9.1114   -1.9969 S.3     1  LIG1       -0.1402
     28 H          -2.4564    9.8923   -1.7695 H       1  LIG1        0.1072
     29 C          -4.2197    8.5987   -0.2184 C.ar    1  LIG1        0.0454
     30 C          -4.1869    9.8231    0.4128 C.ar    1  LIG1        0.0802
     31 C          -5.4391   10.5257    0.3579 C.ar    1  LIG1        0.0298
     32 C          -6.3879    9.8071   -0.3028 C.ar    1  LIG1       -0.0093
     33 S          -5.7867    8.2981   -0.8760 S.2     1  LIG1       -0.0937
     34 H          -7.4160   10.0827   -0.4880 H       1  LIG1        0.0705
     35 N          -2.0991   10.7341    1.6323 N.1     1  LIG1       -0.1908
     36 C          -3.0310   10.3206    1.0859 C.1     1  LIG1        0.1014
     37 S          -5.6167   12.1182    1.1034 S.3     1  LIG1       -0.1408
     38 H          -6.9081   12.2768    0.7727 H       1  LIG1        0.1072
@<TRIPOS>BOND
     1    25    26    3
     2    27    28    1
     3    27    22    1
     4    26    21    1
     5     7     8    3
     6     9    10    1
     7     9     3    1
     8    22    21   ar
     9    22    23   ar
    10    21    20   ar
    11    33    32   ar
    12    33    29   ar
    13     8     2    1
    14    34    32    1
    15    15    14   ar
    16    15    11   ar
    17     3     2   ar
    18     3     4   ar
    19    23    29    1
    20    23    24   ar
    21     2     1   ar
    22    32    31   ar
    23    29    30   ar
    24    20    14    1
    25    20    24   ar
    26    14    13   ar
    27     4    11    1
    28     4     5   ar
    29    11    12   ar
    30     1     6    1
    31     1     5   ar
    32    31    30   ar
    33    31    37    1
    34    30    36    1
    35    38    37    1
    36    13    12   ar
    37    13    18    1
    38    12    17    1
    39    36    35    3
    40    19    18    1
    41    17    16    3
