@<TRIPOS>MOLECULE
mol_data/opt/cam/geoms/mol2/5dg5dg-5dg5dg-.out
 38 41 0 0 0
SMALL
GASTEIGER

@<TRIPOS>ATOM
      1 C          -0.9008   -1.5116    2.2124 C.ar    1  LIG1       -0.0052
      2 C          -0.9546   -1.7789    0.8732 C.ar    1  LIG1        0.0725
      3 C          -0.8321   -0.5995    0.0587 C.ar    1  LIG1        0.0375
      4 C          -0.6829    0.5293    0.8231 C.ar    1  LIG1        0.0416
      5 S          -0.6964    0.1510    2.5265 S.2     1  LIG1       -0.0937
      6 H          -0.9666   -2.2286    3.0178 H       1  LIG1        0.0707
      7 N          -1.2754   -4.1566   -0.0870 N.1     1  LIG1       -0.1908
      8 C          -1.1286   -3.0940    0.3451 C.1     1  LIG1        0.1008
      9 S          -0.9375   -0.7317   -1.6939 S.3     1  LIG1       -0.1403
     10 H          -0.7455    0.5722   -1.9463 H       1  LIG1        0.1072
     11 C          -0.5430    1.9162    0.3884 C.ar    1  LIG1        0.0460
     12 C           0.4776    2.4793   -0.3444 C.ar    1  LIG1        0.0808
     13 C           0.3031    3.8833   -0.5941 C.ar    1  LIG1        0.0381
     14 C          -0.8476    4.3623   -0.0229 C.ar    1  LIG1        0.0422
     15 S          -1.7264    3.1007    0.7944 S.2     1  LIG1       -0.0847
     16 N           2.5408    1.1604   -1.1687 N.1     1  LIG1       -0.1908
     17 C           1.6162    1.7436   -0.7911 C.1     1  LIG1        0.1014
     18 S           1.4863    4.7522   -1.5664 S.3     1  LIG1       -0.1402
     19 H           0.8877    5.9498   -1.4742 H       1  LIG1        0.1072
     20 C          -1.3781    5.7233   -0.0422 C.ar    1  LIG1        0.0460
     21 C          -0.8306    6.8534    0.5222 C.ar    1  LIG1        0.0808
     22 C          -1.6186    8.0376    0.3221 C.ar    1  LIG1        0.0381
     23 C          -2.7664    7.7733   -0.3799 C.ar    1  LIG1        0.0422
     24 S          -2.8741    6.0908   -0.8133 S.2     1  LIG1       -0.0847
     25 N           1.3857    6.8475    1.8503 N.1     1  LIG1       -0.1908
     26 C           0.3922    6.8421    1.2583 C.1     1  LIG1        0.1014
     27 S          -1.0453    9.5876    0.9295 S.3     1  LIG1       -0.1402
     28 H          -2.0974   10.2996    0.4960 H       1  LIG1        0.1072
     29 C          -3.8255    8.6984   -0.7763 C.ar    1  LIG1        0.0454
     30 C          -4.6975    9.3849    0.0402 C.ar    1  LIG1        0.0802
     31 C          -5.6234   10.2118   -0.6835 C.ar    1  LIG1        0.0298
     32 C          -5.4332   10.1185   -2.0282 C.ar    1  LIG1       -0.0093
     33 S          -4.1397    9.0566   -2.4349 S.2     1  LIG1       -0.0937
     34 H          -5.9852   10.6194   -2.8101 H       1  LIG1        0.0705
     35 N          -4.7139    9.1644    2.6146 N.1     1  LIG1       -0.1908
     36 C          -4.7006    9.2565    1.4616 C.1     1  LIG1        0.1014
     37 S          -6.8294   11.1809    0.1708 S.3     1  LIG1       -0.1408
     38 H          -7.3771   11.7147   -0.9325 H       1  LIG1        0.1072
@<TRIPOS>BOND
     1    34    32    1
     2    33    32   ar
     3    33    29   ar
     4    32    31   ar
     5    10     9    1
     6     9     3    1
     7    18    19    1
     8    18    13    1
     9    16    17    3
    10    38    37    1
    11    24    23   ar
    12    24    20   ar
    13    17    12    1
    14    29    23    1
    15    29    30   ar
    16    31    30   ar
    17    31    37    1
    18    13    12   ar
    19    13    14   ar
    20    23    22   ar
    21    12    11   ar
    22     7     8    3
    23    20    14    1
    24    20    21   ar
    25    14    15   ar
    26    30    36    1
    27     3     4   ar
    28     3     2   ar
    29    22    21   ar
    30    22    27    1
    31     8     2    1
    32    11    15   ar
    33    11     4    1
    34    28    27    1
    35    21    26    1
    36     4     5   ar
    37     2     1   ar
    38    26    25    3
    39    36    35    3
    40     1     5   ar
    41     1     6    1
