@<TRIPOS>MOLECULE
mol_data/opt/cam/geoms/mol2/5dg5dg5dg5dg.out
 38 41 0 0 0
SMALL
GASTEIGER

@<TRIPOS>ATOM
      1 C          -1.8386   -2.0005    0.3705 C.ar    1  LIG1       -0.0052
      2 C          -0.6375   -1.9178   -0.2757 C.ar    1  LIG1        0.0725
      3 C          -0.1428   -0.5702   -0.3770 C.ar    1  LIG1        0.0375
      4 C          -0.9978    0.3263    0.2120 C.ar    1  LIG1        0.0416
      5 S          -2.4002   -0.4725    0.8766 S.2     1  LIG1       -0.0937
      6 H          -2.4051   -2.8986    0.5694 H       1  LIG1        0.0707
      7 N           0.5917   -3.9764   -1.2401 N.1     1  LIG1       -0.1908
      8 C           0.0421   -3.0561   -0.8059 C.1     1  LIG1        0.1008
      9 S           1.3626   -0.2536   -1.2317 S.3     1  LIG1       -0.1403
     10 H           1.3387    1.0793   -1.0759 H       1  LIG1        0.1072
     11 C          -0.8711    1.7762    0.3170 C.ar    1  LIG1        0.0460
     12 C           0.0997    2.4993    0.9729 C.ar    1  LIG1        0.0808
     13 C          -0.0759    3.9224    0.8797 C.ar    1  LIG1        0.0381
     14 C          -1.1914    4.2494    0.1517 C.ar    1  LIG1        0.0422
     15 S          -2.0161    2.8284   -0.4260 S.2     1  LIG1       -0.0847
     16 N           2.0064    1.4129    2.3367 N.1     1  LIG1       -0.1908
     17 C           1.1503    1.8910    1.7233 C.1     1  LIG1        0.1014
     18 S           1.0445    4.9958    1.7105 S.3     1  LIG1       -0.1402
     19 H           0.4349    6.1376    1.3555 H       1  LIG1        0.1072
     20 C          -1.7205    5.5736   -0.1601 C.ar    1  LIG1        0.0460
     21 C          -1.1272    6.5652   -0.9088 C.ar    1  LIG1        0.0808
     22 C          -1.9250    7.7535   -1.0285 C.ar    1  LIG1        0.0381
     23 C          -3.1204    7.6328   -0.3677 C.ar    1  LIG1        0.0422
     24 S          -3.2653    6.0813    0.4090 S.2     1  LIG1       -0.0847
     25 N           1.1608    6.2781   -2.0744 N.1     1  LIG1       -0.1908
     26 C           0.1376    6.4022   -1.5496 C.1     1  LIG1        0.1014
     27 S          -1.3439    9.1066   -1.9935 S.3     1  LIG1       -0.1402
     28 H          -2.4123    9.8915   -1.7836 H       1  LIG1        0.1072
     29 C          -4.2035    8.6065   -0.2576 C.ar    1  LIG1        0.0454
     30 C          -4.1761    9.8319    0.3721 C.ar    1  LIG1        0.0802
     31 C          -5.4249   10.5386    0.2969 C.ar    1  LIG1        0.0298
     32 C          -6.3660    9.8222   -0.3771 C.ar    1  LIG1       -0.0093
     33 S          -5.7612    8.3102   -0.9387 S.2     1  LIG1       -0.0937
     34 H          -7.3901   10.1010   -0.5785 H       1  LIG1        0.0705
     35 N          -2.1040   10.7377    1.6220 N.1     1  LIG1       -0.1908
     36 C          -3.0289   10.3264    1.0620 C.1     1  LIG1        0.1014
     37 S          -5.6084   12.1329    1.0371 S.3     1  LIG1       -0.1408
     38 H          -6.8940   12.2954    0.6864 H       1  LIG1        0.1072
@<TRIPOS>BOND
     1    25    26    3
     2    27    28    1
     3    27    22    1
     4    26    21    1
     5     7     8    3
     6     9    10    1
     7     9     3    1
     8    22    21   ar
     9    22    23   ar
    10    33    32   ar
    11    33    29   ar
    12    21    20   ar
    13     8     2    1
    14    34    32    1
    15    15    14   ar
    16    15    11   ar
    17    32    31   ar
    18     3     2   ar
    19     3     4   ar
    20    23    29    1
    21    23    24   ar
    22     2     1   ar
    23    29    30   ar
    24    20    14    1
    25    20    24   ar
    26    14    13   ar
    27     4    11    1
    28     4     5   ar
    29    31    30   ar
    30    31    37    1
    31    11    12   ar
    32     1     6    1
    33     1     5   ar
    34    30    36    1
    35    38    37    1
    36    13    12   ar
    37    13    18    1
    38    12    17    1
    39    36    35    3
    40    19    18    1
    41    17    16    3
