@<TRIPOS>MOLECULE
mol_data/opt/cam/geoms/mol2/5dg5dg-5dg-5dg-.out
 38 41 0 0 0
SMALL
GASTEIGER

@<TRIPOS>ATOM
      1 C          -1.8677   -2.0094   -0.1562 C.ar    1  LIG1       -0.0052
      2 C          -0.6449   -1.9094    0.4450 C.ar    1  LIG1        0.0725
      3 C          -0.1439   -0.5609    0.4842 C.ar    1  LIG1        0.0375
      4 C          -1.0166    0.3185   -0.1044 C.ar    1  LIG1        0.0416
      5 S          -2.4430   -0.4971   -0.6932 S.2     1  LIG1       -0.0937
      6 H          -2.4429   -2.9116   -0.3055 H       1  LIG1        0.0707
      7 N           0.6122   -3.9391    1.4344 N.1     1  LIG1       -0.1908
      8 C           0.0501   -3.0318    0.9890 C.1     1  LIG1        0.1008
      9 S           1.3910   -0.2213    1.2755 S.3     1  LIG1       -0.1403
     10 H           1.3648    1.1057    1.0763 H       1  LIG1        0.1072
     11 C          -0.8903    1.7637   -0.2619 C.ar    1  LIG1        0.0460
     12 C           0.0589    2.4613   -0.9747 C.ar    1  LIG1        0.0808
     13 C          -0.1101    3.8873   -0.9229 C.ar    1  LIG1        0.0381
     14 C          -1.1989    4.2422   -0.1681 C.ar    1  LIG1        0.0422
     15 S          -2.0064    2.8440    0.4847 S.2     1  LIG1       -0.0847
     16 N           1.9147    1.3236   -2.3666 N.1     1  LIG1       -0.1908
     17 C           1.0815    1.8247   -1.7402 C.1     1  LIG1        0.1014
     18 S           0.9834    4.9286   -1.8272 S.3     1  LIG1       -0.1402
     19 H           0.3891    6.0837   -1.4896 H       1  LIG1        0.1072
     20 C          -1.7139    5.5777    0.1175 C.ar    1  LIG1        0.0460
     21 C          -1.0927    6.5916    0.8118 C.ar    1  LIG1        0.0808
     22 C          -1.8831    7.7860    0.9194 C.ar    1  LIG1        0.0381
     23 C          -3.1010    7.6476    0.3047 C.ar    1  LIG1        0.0422
     24 S          -3.2762    6.0716   -0.4144 S.2     1  LIG1       -0.0847
     25 N           1.2337    6.3354    1.9066 N.1     1  LIG1       -0.1908
     26 C           0.1932    6.4457    1.4137 C.1     1  LIG1        0.1014
     27 S          -1.2658    9.1683    1.8181 S.3     1  LIG1       -0.1402
     28 H          -2.3390    9.9496    1.6193 H       1  LIG1        0.1072
     29 C          -4.1849    8.6208    0.1997 C.ar    1  LIG1        0.0454
     30 C          -4.1765    9.8245   -0.4710 C.ar    1  LIG1        0.0802
     31 C          -5.4204   10.5377   -0.3763 C.ar    1  LIG1        0.0298
     32 C          -6.3392    9.8473    0.3533 C.ar    1  LIG1       -0.0093
     33 S          -5.7188    8.3527    0.9436 S.2     1  LIG1       -0.0937
     34 H          -7.3550   10.1362    0.5805 H       1  LIG1        0.0705
     35 N          -2.1470   10.6811   -1.8213 N.1     1  LIG1       -0.1908
     36 C          -3.0529   10.2919   -1.2163 C.1     1  LIG1        0.1014
     37 S          -5.6257   12.1071   -1.1625 S.3     1  LIG1       -0.1408
     38 H          -6.8980   12.2857   -0.7731 H       1  LIG1        0.1072
@<TRIPOS>BOND
     1    16    17    3
     2    18    19    1
     3    18    13    1
     4    35    36    3
     5    17    12    1
     6    36    30    1
     7    37    38    1
     8    37    31    1
     9    12    13   ar
    10    12    11   ar
    11    13    14   ar
    12     5     1   ar
    13     5     4   ar
    14    30    31   ar
    15    30    29   ar
    16    24    20   ar
    17    24    23   ar
    18    31    32   ar
    19     6     1    1
    20    11     4    1
    21    11    15   ar
    22    14    20    1
    23    14    15   ar
    24     1     2   ar
    25     4     3   ar
    26    20    21   ar
    27    29    23    1
    28    29    33   ar
    29    23    22   ar
    30    32    34    1
    31    32    33   ar
    32     2     3   ar
    33     2     8    1
    34     3     9    1
    35    21    22   ar
    36    21    26    1
    37    22    27    1
    38     8     7    3
    39    10     9    1
    40    26    25    3
    41    28    27    1
