@<TRIPOS>MOLECULE
mol_data/opt/cam/geoms/mol2/5dg5dg-.out
 20 21 0 0 0
SMALL
GASTEIGER

@<TRIPOS>ATOM
      1 C          -1.9356   -1.7737    0.7628 C.ar    1  LIG1       -0.0052
      2 C          -0.7913   -1.8482    0.0194 C.ar    1  LIG1        0.0725
      3 C          -0.2870   -0.5578   -0.3683 C.ar    1  LIG1        0.0375
      4 C          -1.0749    0.4584    0.1075 C.ar    1  LIG1        0.0416
      5 S          -2.4269   -0.1615    1.0200 S.2     1  LIG1       -0.0937
      6 H          -2.4980   -2.6021    1.1683 H       1  LIG1        0.0707
      7 N           0.3231   -4.0842   -0.6419 N.1     1  LIG1       -0.1908
      8 C          -0.1753   -3.0843   -0.3427 C.1     1  LIG1        0.1008
      9 S           1.1501   -0.4424   -1.3793 S.3     1  LIG1       -0.1403
     10 H           1.1725    0.8984   -1.4352 H       1  LIG1        0.1072
     11 C          -0.9153    1.8987   -0.0723 C.ar    1  LIG1        0.0454
     12 C           0.1016    2.7058    0.3894 C.ar    1  LIG1        0.0802
     13 C          -0.0592    4.0879    0.0284 C.ar    1  LIG1        0.0298
     14 C          -1.2000    4.2911   -0.6852 C.ar    1  LIG1       -0.0093
     15 S          -2.0768    2.8311   -0.9453 S.2     1  LIG1       -0.0937
     16 H          -1.5771    5.2247   -1.0765 H       1  LIG1        0.0705
     17 N           2.0764    1.8531    1.8207 N.1     1  LIG1       -0.1908
     18 C           1.1867    2.2234    1.1807 C.1     1  LIG1        0.1014
     19 S           1.1348    5.2961    0.5179 S.3     1  LIG1       -0.1408
     20 H           0.5110    6.3382   -0.0539 H       1  LIG1        0.1072
@<TRIPOS>BOND
     1    10     9    1
     2     9     3    1
     3    16    14    1
     4    15    14   ar
     5    15    11   ar
     6    14    13   ar
     7     7     8    3
     8     3     2   ar
     9     3     4   ar
    10     8     2    1
    11    11     4    1
    12    11    12   ar
    13    20    19    1
    14     2     1   ar
    15    13    12   ar
    16    13    19    1
    17     4     5   ar
    18    12    18    1
    19     1     5   ar
    20     1     6    1
    21    18    17    3
