@<TRIPOS>MOLECULE
mol_data/opt/cam/geoms/mol2/5dg5dg-5dg5dg.out
 38 41 0 0 0
SMALL
GASTEIGER

@<TRIPOS>ATOM
      1 C          -1.8908   -2.0037    0.3219 C.ar    1  LIG1       -0.0052
      2 C          -0.6688   -1.9221   -0.2839 C.ar    1  LIG1        0.0725
      3 C          -0.1633   -0.5766   -0.3557 C.ar    1  LIG1        0.0375
      4 C          -1.0319    0.3194    0.2138 C.ar    1  LIG1        0.0416
      5 S          -2.4599   -0.4772    0.8244 S.2     1  LIG1       -0.0937
      6 H          -2.4687   -2.9002    0.4934 H       1  LIG1        0.0707
      7 N           0.5793   -3.9787   -1.2278 N.1     1  LIG1       -0.1908
      8 C           0.0212   -3.0594   -0.8027 C.1     1  LIG1        0.1008
      9 S           1.3710   -0.2610   -1.1577 S.3     1  LIG1       -0.1403
     10 H           1.3498    1.0704   -0.9897 H       1  LIG1        0.1072
     11 C          -0.9003    1.7674    0.3371 C.ar    1  LIG1        0.0460
     12 C           0.0527    2.4783    1.0314 C.ar    1  LIG1        0.0808
     13 C          -0.1116    3.9033    0.9465 C.ar    1  LIG1        0.0381
     14 C          -1.2007    4.2441    0.1857 C.ar    1  LIG1        0.0422
     15 S          -2.0142    2.8337   -0.4325 S.2     1  LIG1       -0.0847
     16 N           1.9075    1.3672    2.4460 N.1     1  LIG1       -0.1908
     17 C           1.0747    1.8563    1.8097 C.1     1  LIG1        0.1014
     18 S           0.9873    4.9617    1.8239 S.3     1  LIG1       -0.1402
     19 H           0.3962    6.1106    1.4605 H       1  LIG1        0.1072
     20 C          -1.7117    5.5743   -0.1302 C.ar    1  LIG1        0.0460
     21 C          -1.0885    6.5695   -0.8493 C.ar    1  LIG1        0.0808
     22 C          -1.8751    7.7637   -0.9834 C.ar    1  LIG1        0.0381
     23 C          -3.0921    7.6440   -0.3631 C.ar    1  LIG1        0.0422
     24 S          -3.2713    6.0860    0.3932 S.2     1  LIG1       -0.0847
     25 N           1.2347    6.2796   -1.9425 N.1     1  LIG1       -0.1908
     26 C           0.1956    6.4050   -1.4501 C.1     1  LIG1        0.1014
     27 S          -1.2549    9.1224   -1.9155 S.3     1  LIG1       -0.1402
     28 H          -2.3250    9.9118   -1.7330 H       1  LIG1        0.1072
     29 C          -4.1725    8.6232   -0.2789 C.ar    1  LIG1        0.0454
     30 C          -4.1586    9.8422    0.3634 C.ar    1  LIG1        0.0802
     31 C          -5.4002   10.5573    0.2544 C.ar    1  LIG1        0.0298
     32 C          -6.3229    9.8531   -0.4569 C.ar    1  LIG1       -0.0093
     33 S          -5.7088    8.3429   -1.0132 S.2     1  LIG1       -0.0937
     34 H          -7.3382   10.1401   -0.6888 H       1  LIG1        0.0705
     35 N          -2.1233   10.7233    1.6890 N.1     1  LIG1       -0.1908
     36 C          -3.0318   10.3231    1.0952 C.1     1  LIG1        0.1014
     37 S          -5.5986   12.1455    1.0038 S.3     1  LIG1       -0.1408
     38 H          -6.8710   12.3192    0.6130 H       1  LIG1        0.1072
@<TRIPOS>BOND
     1    25    26    3
     2    27    28    1
     3    27    22    1
     4    26    21    1
     5     7     8    3
     6     9    10    1
     7     9     3    1
     8    33    32   ar
     9    33    29   ar
    10    22    21   ar
    11    22    23   ar
    12    21    20   ar
    13     8     2    1
    14    34    32    1
    15    32    31   ar
    16    15    14   ar
    17    15    11   ar
    18    23    29    1
    19    23    24   ar
    20     3     2   ar
    21     3     4   ar
    22     2     1   ar
    23    29    30   ar
    24    20    14    1
    25    20    24   ar
    26    14    13   ar
    27     4    11    1
    28     4     5   ar
    29    31    30   ar
    30    31    37    1
    31     1     6    1
    32     1     5   ar
    33    11    12   ar
    34    30    36    1
    35    38    37    1
    36    13    12   ar
    37    13    18    1
    38    12    17    1
    39    36    35    3
    40    19    18    1
    41    17    16    3
