@<TRIPOS>MOLECULE
mol_data/opt/cam/geoms/mol2/5dh.out
 12 12 0 0 0
SMALL
GASTEIGER

@<TRIPOS>ATOM
      1 C          -2.1406   -1.7098    0.0412 C.ar    1  LIG1       -0.0051
      2 C          -0.7733   -1.6831   -0.0091 C.ar    1  LIG1        0.0793
      3 C          -0.2331   -0.3455   -0.0535 C.ar    1  LIG1        0.0492
      4 C          -1.2307    0.5873   -0.0415 C.ar    1  LIG1       -0.0024
      5 S          -2.7992   -0.1367    0.0355 S.2     1  LIG1       -0.1019
      6 H          -2.7721   -2.5850    0.0757 H       1  LIG1        0.0707
      7 H          -1.1273    1.6619   -0.0550 H       1  LIG1        0.0712
      8 N           0.7818   -3.7435   -0.0729 N.1     1  LIG1       -0.1908
      9 C           0.0594   -2.8394   -0.0356 C.1     1  LIG1        0.1015
     10 N           1.1297   -0.1048   -0.0462 N.pl3   1  LIG1       -0.3566
     11 H           1.7054   -0.8648   -0.3798 H       1  LIG1        0.1424
     12 H           1.4186    0.7923   -0.4044 H       1  LIG1        0.1424
@<TRIPOS>BOND
     1    12    10    1
     2    11    10    1
     3     8     9    3
     4     7     4    1
     5     3    10    1
     6     3     4   ar
     7     3     2   ar
     8     4     5   ar
     9     9     2    1
    10     2     1   ar
    11     5     1   ar
    12     1     6    1
