@<TRIPOS>MOLECULE
mol_data/opt/cam/geoms/mol2/5dh5dh5dh-.out
 32 34 0 0 0
SMALL
GASTEIGER

@<TRIPOS>ATOM
      1 C          -2.0214   -1.7131   -1.0970 C.ar    1  LIG1       -0.0045
      2 C          -0.9429   -1.8762   -0.2762 C.ar    1  LIG1        0.0800
      3 C          -0.3024   -0.6358    0.0949 C.ar    1  LIG1        0.0577
      4 C          -0.9410    0.4462   -0.4883 C.ar    1  LIG1        0.0491
      5 S          -2.2965   -0.0760   -1.4708 S.2     1  LIG1       -0.0929
      6 H          -2.6423   -2.4935   -1.5121 H       1  LIG1        0.0707
      7 N          -0.0328   -4.1282    0.5986 N.1     1  LIG1       -0.1908
      8 C          -0.4658   -3.1352    0.1905 C.1     1  LIG1        0.1016
      9 N           0.7332   -0.6217    0.9891 N.pl3   1  LIG1       -0.3561
     10 H           1.1155   -1.5259    1.2270 H       1  LIG1        0.1424
     11 H           1.4336    0.0991    0.9058 H       1  LIG1        0.1424
     12 C          -0.7113    1.8645   -0.3083 C.ar    1  LIG1        0.0475
     13 C           0.4772    2.5619   -0.2258 C.ar    1  LIG1        0.0883
     14 C           0.3311    3.9851   -0.0402 C.ar    1  LIG1        0.0583
     15 C          -0.9989    4.3560   -0.0199 C.ar    1  LIG1        0.0497
     16 S          -2.0418    2.9570   -0.1859 S.2     1  LIG1       -0.0839
     17 N           2.8166    1.4997   -0.4407 N.1     1  LIG1       -0.1908
     18 C           1.7593    1.9693   -0.3611 C.1     1  LIG1        0.1022
     19 N           1.4274    4.7835    0.1576 N.pl3   1  LIG1       -0.3561
     20 H           2.3216    4.3498   -0.0220 H       1  LIG1        0.1424
     21 H           1.3835    5.7394   -0.1612 H       1  LIG1        0.1424
     22 C          -1.6001    5.6533    0.2139 C.ar    1  LIG1        0.0469
     23 C          -1.2234    6.8983   -0.2551 C.ar    1  LIG1        0.0876
     24 C          -2.0662    7.9779    0.1960 C.ar    1  LIG1        0.0499
     25 C          -3.0836    7.5185    0.9781 C.ar    1  LIG1       -0.0018
     26 S          -3.0011    5.8082    1.2162 S.2     1  LIG1       -0.0929
     27 H          -3.8709    8.0937    1.4417 H       1  LIG1        0.0712
     28 N           0.7439    7.3252   -1.8662 N.1     1  LIG1       -0.1908
     29 C          -0.1468    7.1223   -1.1517 C.1     1  LIG1        0.1022
     30 N          -1.7972    9.2962   -0.1252 N.pl3   1  LIG1       -0.3565
     31 H          -1.2706    9.4408   -0.9750 H       1  LIG1        0.1424
     32 H          -2.5723    9.9346   -0.0329 H       1  LIG1        0.1424
@<TRIPOS>BOND
     1    28    29    3
     2     6     1    1
     3     5     1   ar
     4     5     4   ar
     5    29    23    1
     6     1     2   ar
     7    31    30    1
     8     4    12    1
     9     4     3   ar
    10    17    18    3
    11    18    13    1
    12    12    13   ar
    13    12    16   ar
    14     2     3   ar
    15     2     8    1
    16    23    24   ar
    17    23    22   ar
    18    13    14   ar
    19    16    15   ar
    20    21    19    1
    21    30    32    1
    22    30    24    1
    23    14    15   ar
    24    14    19    1
    25    20    19    1
    26    15    22    1
    27     3     9    1
    28     8     7    3
    29    24    25   ar
    30    22    26   ar
    31    11     9    1
    32    25    26   ar
    33    25    27    1
    34     9    10    1
