@<TRIPOS>MOLECULE
mol_data/opt/cam/geoms/mol2/5dh5dh5dh5dh.out
 42 45 0 0 0
SMALL
GASTEIGER

@<TRIPOS>ATOM
      1 C          -1.8504   -1.5530   -1.7356 C.ar    1  LIG1       -0.0045
      2 C          -1.1006   -1.8033   -0.6228 C.ar    1  LIG1        0.0800
      3 C          -0.5161   -0.6189   -0.0377 C.ar    1  LIG1        0.0577
      4 C          -0.8548    0.5117   -0.7639 C.ar    1  LIG1        0.0491
      5 S          -1.8694    0.1010   -2.1345 S.2     1  LIG1       -0.0929
      6 H          -2.3662   -2.2806   -2.3451 H       1  LIG1        0.0707
      7 N          -0.6859   -4.1212    0.4355 N.1     1  LIG1       -0.1908
      8 C          -0.8920   -3.0968   -0.0627 C.1     1  LIG1        0.1016
      9 N           0.1825   -0.6901    1.1356 N.pl3   1  LIG1       -0.3561
     10 H           0.3951   -1.6222    1.4614 H       1  LIG1        0.1424
     11 H           0.9258   -0.0285    1.2992 H       1  LIG1        0.1424
     12 C          -0.5894    1.9065   -0.4832 C.ar    1  LIG1        0.0475
     13 C           0.5579    2.5080   -0.0059 C.ar    1  LIG1        0.0883
     14 C           0.4684    3.9388    0.1563 C.ar    1  LIG1        0.0583
     15 C          -0.7666    4.4142   -0.2452 C.ar    1  LIG1        0.0497
     16 S          -1.8033    3.0996   -0.7694 S.2     1  LIG1       -0.0839
     17 N           2.7574    1.2676    0.5143 N.1     1  LIG1       -0.1908
     18 C           1.7679    1.8174    0.2620 C.1     1  LIG1        0.1022
     19 N           1.4983    4.6427    0.7180 N.pl3   1  LIG1       -0.3561
     20 H           2.3629    4.1355    0.8400 H       1  LIG1        0.1424
     21 H           1.6363    5.6018    0.4383 H       1  LIG1        0.1424
     22 C          -1.3176    5.7497   -0.1763 C.ar    1  LIG1        0.0475
     23 C          -0.7210    6.9679   -0.4380 C.ar    1  LIG1        0.0883
     24 C          -1.5813    8.1124   -0.2621 C.ar    1  LIG1        0.0583
     25 C          -2.8576    7.7321    0.1027 C.ar    1  LIG1        0.0497
     26 S          -2.9695    5.9905    0.2655 S.2     1  LIG1       -0.0839
     27 N           1.7068    7.2659   -1.2524 N.1     1  LIG1       -0.1908
     28 C           0.6113    7.1200   -0.9008 C.1     1  LIG1        0.1022
     29 N          -1.0902    9.3858   -0.3892 N.pl3   1  LIG1       -0.3561
     30 H          -0.1665    9.4596   -0.7909 H       1  LIG1        0.1424
     31 H          -1.7171   10.1070   -0.7117 H       1  LIG1        0.1424
     32 C          -4.0078    8.5426    0.4477 C.ar    1  LIG1        0.0469
     33 C          -4.4829    9.6982   -0.1447 C.ar    1  LIG1        0.0876
     34 C          -5.6647   10.2381    0.4805 C.ar    1  LIG1        0.0499
     35 C          -6.0753    9.4584    1.5205 C.ar    1  LIG1       -0.0018
     36 S          -5.0203    8.1142    1.7829 S.2     1  LIG1       -0.0929
     37 H          -6.9330    9.6078    2.1589 H       1  LIG1        0.0712
     38 N          -3.4575   10.8029   -2.2367 N.1     1  LIG1       -0.1908
     39 C          -3.9194   10.2920   -1.3036 C.1     1  LIG1        0.1022
     40 N          -6.2368   11.4241    0.0573 N.pl3   1  LIG1       -0.3565
     41 H          -6.0656   11.6738   -0.9064 H       1  LIG1        0.1424
     42 H          -7.1956   11.5694    0.3340 H       1  LIG1        0.1424
@<TRIPOS>BOND
     1     6     1    1
     2    38    39    3
     3     5     1   ar
     4     5     4   ar
     5     1     2   ar
     6    39    33    1
     7    27    28    3
     8    41    40    1
     9    28    23    1
    10    30    29    1
    11    16    12   ar
    12    16    15   ar
    13     4    12    1
    14     4     3   ar
    15    31    29    1
    16     2     8    1
    17     2     3   ar
    18    12    13   ar
    19    23    24   ar
    20    23    22   ar
    21    29    24    1
    22    24    25   ar
    23    15    22    1
    24    15    14   ar
    25    22    26   ar
    26    33    32   ar
    27    33    34   ar
    28     8     7    3
    29     3     9    1
    30    13    14   ar
    31    13    18    1
    32    40    42    1
    33    40    34    1
    34    25    26   ar
    35    25    32    1
    36    14    19    1
    37    18    17    3
    38    21    19    1
    39    32    36   ar
    40    34    35   ar
    41    19    20    1
    42     9    11    1
    43     9    10    1
    44    35    36   ar
    45    35    37    1
