@<TRIPOS>MOLECULE
mol_data/opt/cam/geoms/mol2/5dh5dh-5dh-.out
 32 34 0 0 0
SMALL
GASTEIGER

@<TRIPOS>ATOM
      1 C          -2.0332   -1.7100   -1.0899 C.ar    1  LIG1       -0.0045
      2 C          -0.9465   -1.8757   -0.2804 C.ar    1  LIG1        0.0800
      3 C          -0.3020   -0.6365    0.0876 C.ar    1  LIG1        0.0577
      4 C          -0.9461    0.4473   -0.4862 C.ar    1  LIG1        0.0491
      5 S          -2.3115   -0.0718   -1.4564 S.2     1  LIG1       -0.0929
      6 H          -2.6584   -2.4891   -1.5009 H       1  LIG1        0.0707
      7 N          -0.0283   -4.1303    0.5790 N.1     1  LIG1       -0.1908
      8 C          -0.4652   -3.1361    0.1780 C.1     1  LIG1        0.1016
      9 N           0.7426   -0.6251    0.9714 N.pl3   1  LIG1       -0.3561
     10 H           1.1269   -1.5300    1.2030 H       1  LIG1        0.1424
     11 H           1.4424    0.0957    0.8829 H       1  LIG1        0.1424
     12 C          -0.7142    1.8651   -0.3047 C.ar    1  LIG1        0.0475
     13 C           0.4753    2.5619   -0.2322 C.ar    1  LIG1        0.0883
     14 C           0.3315    3.9847   -0.0412 C.ar    1  LIG1        0.0583
     15 C          -0.9981    4.3559   -0.0066 C.ar    1  LIG1        0.0497
     16 S          -2.0430    2.9576   -0.1659 S.2     1  LIG1       -0.0839
     17 N           2.8122    1.4997   -0.4734 N.1     1  LIG1       -0.1908
     18 C           1.7558    1.9694   -0.3820 C.1     1  LIG1        0.1022
     19 N           1.4300    4.7822    0.1477 N.pl3   1  LIG1       -0.3561
     20 H           2.3222    4.3488   -0.0421 H       1  LIG1        0.1424
     21 H           1.3831    5.7391   -0.1678 H       1  LIG1        0.1424
     22 C          -1.5966    5.6527    0.2366 C.ar    1  LIG1        0.0469
     23 C          -1.2242    6.8989   -0.2328 C.ar    1  LIG1        0.0876
     24 C          -2.0622    7.9774    0.2296 C.ar    1  LIG1        0.0499
     25 C          -3.0719    7.5162    1.0206 C.ar    1  LIG1       -0.0018
     26 S          -2.9874    5.8052    1.2533 S.2     1  LIG1       -0.0929
     27 H          -3.8543    8.0904    1.4936 H       1  LIG1        0.0712
     28 N           0.7270    7.3296   -1.8623 N.1     1  LIG1       -0.1908
     29 C          -0.1565    7.1250   -1.1394 C.1     1  LIG1        0.1022
     30 N          -1.7960    9.2965   -0.0907 N.pl3   1  LIG1       -0.3565
     31 H          -1.2778    9.4432   -0.9453 H       1  LIG1        0.1424
     32 H          -2.5700    9.9349    0.0110 H       1  LIG1        0.1424
@<TRIPOS>BOND
     1    28    29    3
     2     6     1    1
     3     5     1   ar
     4     5     4   ar
     5    29    23    1
     6     1     2   ar
     7    31    30    1
     8     4    12    1
     9     4     3   ar
    10    17    18    3
    11    18    13    1
    12    12    13   ar
    13    12    16   ar
    14     2     3   ar
    15     2     8    1
    16    23    24   ar
    17    23    22   ar
    18    13    14   ar
    19    21    19    1
    20    16    15   ar
    21    30    32    1
    22    30    24    1
    23    20    19    1
    24    14    15   ar
    25    14    19    1
    26    15    22    1
    27     3     9    1
    28     8     7    3
    29    24    25   ar
    30    22    26   ar
    31    11     9    1
    32     9    10    1
    33    25    26   ar
    34    25    27    1
