@<TRIPOS>MOLECULE
mol_data/opt/cam/geoms/mol2/5dh5dh-5dh-5dh.out
 42 45 0 0 0
SMALL
GASTEIGER

@<TRIPOS>ATOM
      1 C          -1.8477   -1.5437   -1.7567 C.ar    1  LIG1       -0.0045
      2 C          -1.0985   -1.7999   -0.6448 C.ar    1  LIG1        0.0800
      3 C          -0.5147   -0.6187   -0.0528 C.ar    1  LIG1        0.0577
      4 C          -0.8533    0.5158   -0.7729 C.ar    1  LIG1        0.0491
      5 S          -1.8669    0.1124   -2.1464 S.2     1  LIG1       -0.0929
      6 H          -2.3629   -2.2682   -2.3705 H       1  LIG1        0.0707
      7 N          -0.6838   -4.1235    0.4010 N.1     1  LIG1       -0.1908
      8 C          -0.8899   -3.0965   -0.0917 C.1     1  LIG1        0.1016
      9 N           0.1832   -0.6961    1.1206 N.pl3   1  LIG1       -0.3561
     10 H           0.3959   -1.6300    1.4413 H       1  LIG1        0.1424
     11 H           0.9262   -0.0352    1.2883 H       1  LIG1        0.1424
     12 C          -0.5885    1.9091   -0.4843 C.ar    1  LIG1        0.0475
     13 C           0.5583    2.5083   -0.0030 C.ar    1  LIG1        0.0883
     14 C           0.4683    3.9382    0.1671 C.ar    1  LIG1        0.0583
     15 C          -0.7665    4.4155   -0.2325 C.ar    1  LIG1        0.0497
     16 S          -1.8026    3.1035   -0.7647 S.2     1  LIG1       -0.0839
     17 N           2.7578    1.2657    0.5118 N.1     1  LIG1       -0.1908
     18 C           1.7684    1.8166    0.2619 C.1     1  LIG1        0.1022
     19 N           1.4977    4.6393    0.7333 N.pl3   1  LIG1       -0.3561
     20 H           2.3624    4.1316    0.8531 H       1  LIG1        0.1424
     21 H           1.6356    5.5999    0.4590 H       1  LIG1        0.1424
     22 C          -1.3180    5.7503   -0.1566 C.ar    1  LIG1        0.0475
     23 C          -0.7216    6.9702   -0.4112 C.ar    1  LIG1        0.0883
     24 C          -1.5823    8.1134   -0.2295 C.ar    1  LIG1        0.0583
     25 C          -2.8587    7.7308    0.1323 C.ar    1  LIG1        0.0497
     26 S          -2.9702    5.9883    0.2854 S.2     1  LIG1       -0.0839
     27 N           1.7066    7.2734   -1.2225 N.1     1  LIG1       -0.1908
     28 C           0.6109    7.1253   -0.8724 C.1     1  LIG1        0.1022
     29 N          -1.0915    9.3876   -0.3493 N.pl3   1  LIG1       -0.3561
     30 H          -0.1676    9.4639   -0.7499 H       1  LIG1        0.1424
     31 H          -1.7185   10.1104   -0.6683 H       1  LIG1        0.1424
     32 C          -4.0094    8.5390    0.4812 C.ar    1  LIG1        0.0469
     33 C          -4.4844    9.6978   -0.1051 C.ar    1  LIG1        0.0876
     34 C          -5.6668   10.2338    0.5224 C.ar    1  LIG1        0.0499
     35 C          -6.0777    9.4482    1.5577 C.ar    1  LIG1       -0.0018
     36 S          -5.0225    8.1029    1.8133 S.2     1  LIG1       -0.0929
     37 H          -6.9359    9.5939    2.1965 H       1  LIG1        0.0712
     38 N          -3.4580   10.8143   -2.1904 N.1     1  LIG1       -0.1908
     39 C          -3.9204   10.2981   -1.2604 C.1     1  LIG1        0.1022
     40 N          -6.2390   11.4221    0.1054 N.pl3   1  LIG1       -0.3565
     41 H          -6.0672   11.6771   -0.8568 H       1  LIG1        0.1424
     42 H          -7.1980   11.5655    0.3823 H       1  LIG1        0.1424
@<TRIPOS>BOND
     1     6     1    1
     2    38    39    3
     3     5     1   ar
     4     5     4   ar
     5     1     2   ar
     6    39    33    1
     7    27    28    3
     8    28    23    1
     9    41    40    1
    10     4    12    1
    11     4     3   ar
    12    16    12   ar
    13    16    15   ar
    14    30    29    1
    15    31    29    1
    16     2     8    1
    17     2     3   ar
    18    12    13   ar
    19    23    24   ar
    20    23    22   ar
    21    29    24    1
    22    15    22    1
    23    15    14   ar
    24    24    25   ar
    25    22    26   ar
    26    33    32   ar
    27    33    34   ar
    28     8     7    3
    29     3     9    1
    30    13    14   ar
    31    13    18    1
    32    40    42    1
    33    40    34    1
    34    25    26   ar
    35    25    32    1
    36    14    19    1
    37    18    17    3
    38    21    19    1
    39    32    36   ar
    40    34    35   ar
    41    19    20    1
    42     9    11    1
    43     9    10    1
    44    35    36   ar
    45    35    37    1
