@<TRIPOS>MOLECULE
mol_data/opt/cam/geoms/mol2/5dh5dh5dh-5dh-.out
 42 45 0 0 0
SMALL
GASTEIGER

@<TRIPOS>ATOM
      1 C          -1.8281   -1.5497   -1.7603 C.ar    1  LIG1       -0.0045
      2 C          -1.0910   -1.8020   -0.6395 C.ar    1  LIG1        0.0800
      3 C          -0.5139   -0.6187   -0.0451 C.ar    1  LIG1        0.0577
      4 C          -0.8447    0.5133   -0.7727 C.ar    1  LIG1        0.0491
      5 S          -1.8433    0.1051   -2.1558 S.2     1  LIG1       -0.0929
      6 H          -2.3365   -2.2763   -2.3772 H       1  LIG1        0.0707
      7 N          -0.6874   -4.1220    0.4187 N.1     1  LIG1       -0.1908
      8 C          -0.8883   -3.0967   -0.0797 C.1     1  LIG1        0.1016
      9 N           0.1712   -0.6920    1.1360 N.pl3   1  LIG1       -0.3561
     10 H           0.3805   -1.6248    1.4623 H       1  LIG1        0.1424
     11 H           0.9121   -0.0303    1.3097 H       1  LIG1        0.1424
     12 C          -0.5833    1.9076   -0.4859 C.ar    1  LIG1        0.0475
     13 C           0.5580    2.5086    0.0059 C.ar    1  LIG1        0.0883
     14 C           0.4660    3.9391    0.1701 C.ar    1  LIG1        0.0583
     15 C          -0.7645    4.4148   -0.2446 C.ar    1  LIG1        0.0497
     16 S          -1.7944    3.1008   -0.7837 S.2     1  LIG1       -0.0839
     17 N           2.7520    1.2683    0.5491 N.1     1  LIG1       -0.1908
     18 C           1.7653    1.8180    0.2864 C.1     1  LIG1        0.1022
     19 N           1.4890    4.6422    0.7452 N.pl3   1  LIG1       -0.3561
     20 H           2.3523    4.1351    0.8764 H       1  LIG1        0.1424
     21 H           1.6298    5.6020    0.4693 H       1  LIG1        0.1424
     22 C          -1.3170    5.7498   -0.1793 C.ar    1  LIG1        0.0475
     23 C          -0.7180    6.9689   -0.4315 C.ar    1  LIG1        0.0883
     24 C          -1.5808    8.1126   -0.2631 C.ar    1  LIG1        0.0583
     25 C          -2.8611    7.7309    0.0861 C.ar    1  LIG1        0.0497
     26 S          -2.9740    5.9889    0.2437 S.2     1  LIG1       -0.0839
     27 N           1.7190    7.2700   -1.2171 N.1     1  LIG1       -0.1908
     28 C           0.6195    7.1227   -0.8785 C.1     1  LIG1        0.1022
     29 N          -1.0889    9.3865   -0.3818 N.pl3   1  LIG1       -0.3561
     30 H          -0.1607    9.4616   -0.7724 H       1  LIG1        0.1424
     31 H          -1.7124   10.1081   -0.7100 H       1  LIG1        0.1424
     32 C          -4.0157    8.5401    0.4195 C.ar    1  LIG1        0.0469
     33 C          -4.4843    9.6968   -0.1759 C.ar    1  LIG1        0.0876
     34 C          -5.6737   10.2347    0.4367 C.ar    1  LIG1        0.0499
     35 C          -6.0959    9.4525    1.4701 C.ar    1  LIG1       -0.0018
     36 S          -5.0434    8.1082    1.7418 S.2     1  LIG1       -0.0929
     37 H          -6.9611    9.6001    2.0988 H       1  LIG1        0.0712
     38 N          -3.4352   10.8066   -2.2534 N.1     1  LIG1       -0.1908
     39 C          -3.9077   10.2934   -1.3268 C.1     1  LIG1        0.1022
     40 N          -6.2414   11.4215    0.0095 N.pl3   1  LIG1       -0.3565
     41 H          -6.0591   11.6733   -0.9516 H       1  LIG1        0.1424
     42 H          -7.2035   11.5655    0.2752 H       1  LIG1        0.1424
@<TRIPOS>BOND
     1     6     1    1
     2    38    39    3
     3     5     1   ar
     4     5     4   ar
     5     1     2   ar
     6    39    33    1
     7    27    28    3
     8    41    40    1
     9    28    23    1
    10    16    12   ar
    11    16    15   ar
    12     4    12    1
    13     4     3   ar
    14    30    29    1
    15    31    29    1
    16     2     8    1
    17     2     3   ar
    18    12    13   ar
    19    23    24   ar
    20    23    22   ar
    21    29    24    1
    22    24    25   ar
    23    15    22    1
    24    15    14   ar
    25    22    26   ar
    26    33    32   ar
    27    33    34   ar
    28     8     7    3
    29     3     9    1
    30    13    14   ar
    31    13    18    1
    32    40    42    1
    33    40    34    1
    34    25    26   ar
    35    25    32    1
    36    14    19    1
    37    18    17    3
    38    32    36   ar
    39    34    35   ar
    40    21    19    1
    41    19    20    1
    42     9    11    1
    43     9    10    1
    44    35    36   ar
    45    35    37    1
