@<TRIPOS>MOLECULE
mol_data/opt/cam/geoms/mol2/5dh5dh5dh5dh-.out
 42 45 0 0 0
SMALL
GASTEIGER

@<TRIPOS>ATOM
      1 C          -1.8459   -1.5545   -1.7350 C.ar    1  LIG1       -0.0045
      2 C          -1.0971   -1.8036   -0.6213 C.ar    1  LIG1        0.0800
      3 C          -0.5137   -0.6186   -0.0365 C.ar    1  LIG1        0.0577
      4 C          -0.8521    0.5113   -0.7638 C.ar    1  LIG1        0.0491
      5 S          -1.8652    0.0991   -2.1351 S.2     1  LIG1       -0.0929
      6 H          -2.3608   -2.2829   -2.3444 H       1  LIG1        0.0707
      7 N          -0.6825   -4.1206    0.4393 N.1     1  LIG1       -0.1908
      8 C          -0.8885   -3.0967   -0.0599 C.1     1  LIG1        0.1016
      9 N           0.1838   -0.6885    1.1377 N.pl3   1  LIG1       -0.3561
     10 H           0.3965   -1.6204    1.4643 H       1  LIG1        0.1424
     11 H           0.9267   -0.0266    1.3013 H       1  LIG1        0.1424
     12 C          -0.5877    1.9064   -0.4839 C.ar    1  LIG1        0.0475
     13 C           0.5589    2.5087   -0.0058 C.ar    1  LIG1        0.0883
     14 C           0.4686    3.9396    0.1552 C.ar    1  LIG1        0.0583
     15 C          -0.7661    4.4143   -0.2479 C.ar    1  LIG1        0.0497
     16 S          -1.8018    3.0988   -0.7722 S.2     1  LIG1       -0.0839
     17 N           2.7583    1.2696    0.5175 N.1     1  LIG1       -0.1908
     18 C           1.7690    1.8188    0.2638 C.1     1  LIG1        0.1022
     19 N           1.4976    4.6444    0.7174 N.pl3   1  LIG1       -0.3561
     20 H           2.3624    4.1376    0.8407 H       1  LIG1        0.1424
     21 H           1.6355    5.6033    0.4371 H       1  LIG1        0.1424
     22 C          -1.3178    5.7495   -0.1806 C.ar    1  LIG1        0.0475
     23 C          -0.7215    6.9678   -0.4427 C.ar    1  LIG1        0.0883
     24 C          -1.5824    8.1121   -0.2684 C.ar    1  LIG1        0.0583
     25 C          -2.8590    7.7315    0.0955 C.ar    1  LIG1        0.0497
     26 S          -2.9702    5.9900    0.2595 S.2     1  LIG1       -0.0839
     27 N           1.7069    7.2662   -1.2552 N.1     1  LIG1       -0.1908
     28 C           0.6111    7.1202   -0.9044 C.1     1  LIG1        0.1022
     29 N          -1.0918    9.3855   -0.3961 N.pl3   1  LIG1       -0.3561
     30 H          -0.1679    9.4595   -0.7971 H       1  LIG1        0.1424
     31 H          -1.7188   10.1062   -0.7197 H       1  LIG1        0.1424
     32 C          -4.0098    8.5417    0.4388 C.ar    1  LIG1        0.0469
     33 C          -4.4848    9.6967   -0.1549 C.ar    1  LIG1        0.0876
     34 C          -5.6675   10.2365    0.4688 C.ar    1  LIG1        0.0499
     35 C          -6.0787    9.4574    1.5090 C.ar    1  LIG1       -0.0018
     36 S          -5.0234    8.1139    1.7734 S.2     1  LIG1       -0.0929
     37 H          -6.9370    9.6070    2.1465 H       1  LIG1        0.0712
     38 N          -3.4579   10.8002   -2.2468 N.1     1  LIG1       -0.1908
     39 C          -3.9205   10.2898   -1.3137 C.1     1  LIG1        0.1022
     40 N          -6.2397   11.4220    0.0442 N.pl3   1  LIG1       -0.3565
     41 H          -6.0677   11.6711   -0.9195 H       1  LIG1        0.1424
     42 H          -7.1988   11.5671    0.3199 H       1  LIG1        0.1424
@<TRIPOS>BOND
     1     6     1    1
     2    38    39    3
     3     5     1   ar
     4     5     4   ar
     5     1     2   ar
     6    39    33    1
     7    27    28    3
     8    41    40    1
     9    28    23    1
    10    30    29    1
    11    16    12   ar
    12    16    15   ar
    13     4    12    1
    14     4     3   ar
    15    31    29    1
    16     2     8    1
    17     2     3   ar
    18    12    13   ar
    19    23    24   ar
    20    23    22   ar
    21    29    24    1
    22    24    25   ar
    23    15    22    1
    24    15    14   ar
    25    22    26   ar
    26    33    32   ar
    27    33    34   ar
    28     8     7    3
    29     3     9    1
    30    13    14   ar
    31    13    18    1
    32    40    42    1
    33    40    34    1
    34    25    26   ar
    35    25    32    1
    36    14    19    1
    37    18    17    3
    38    21    19    1
    39    32    36   ar
    40    34    35   ar
    41    19    20    1
    42     9    11    1
    43     9    10    1
    44    35    36   ar
    45    35    37    1
