@<TRIPOS>MOLECULE
mol_data/opt/cam/geoms/mol2/5dh5dh-5dh-5dh-.out
 42 45 0 0 0
SMALL
GASTEIGER

@<TRIPOS>ATOM
      1 C          -1.8468   -1.5461   -1.7522 C.ar    1  LIG1       -0.0045
      2 C          -1.0987   -1.8010   -0.6393 C.ar    1  LIG1        0.0800
      3 C          -0.5154   -0.6190   -0.0483 C.ar    1  LIG1        0.0577
      4 C          -0.8531    0.5146   -0.7703 C.ar    1  LIG1        0.0491
      5 S          -1.8654    0.1095   -2.1442 S.2     1  LIG1       -0.0929
      6 H          -2.3614   -2.2713   -2.3656 H       1  LIG1        0.0707
      7 N          -0.6854   -4.1232    0.4100 N.1     1  LIG1       -0.1908
      8 C          -0.8909   -3.0968   -0.0842 C.1     1  LIG1        0.1016
      9 N           0.1813   -0.6949    1.1259 N.pl3   1  LIG1       -0.3561
     10 H           0.3936   -1.6284    1.4481 H       1  LIG1        0.1424
     11 H           0.9244   -0.0340    1.2932 H       1  LIG1        0.1424
     12 C          -0.5884    1.9082   -0.4833 C.ar    1  LIG1        0.0475
     13 C           0.5580    2.5079   -0.0016 C.ar    1  LIG1        0.0883
     14 C           0.4680    3.9380    0.1665 C.ar    1  LIG1        0.0583
     15 C          -0.7664    4.4149   -0.2350 C.ar    1  LIG1        0.0497
     16 S          -1.8021    3.1024   -0.7664 S.2     1  LIG1       -0.0839
     17 N           2.7568    1.2655    0.5170 N.1     1  LIG1       -0.1908
     18 C           1.7677    1.8163    0.2654 C.1     1  LIG1        0.1022
     19 N           1.4969    4.6397    0.7329 N.pl3   1  LIG1       -0.3561
     20 H           2.3614    4.1321    0.8542 H       1  LIG1        0.1424
     21 H           1.6352    5.5999    0.4573 H       1  LIG1        0.1424
     22 C          -1.3177    5.7500   -0.1614 C.ar    1  LIG1        0.0475
     23 C          -0.7210    6.9694   -0.4171 C.ar    1  LIG1        0.0883
     24 C          -1.5817    8.1130   -0.2377 C.ar    1  LIG1        0.0583
     25 C          -2.8585    7.7309    0.1236 C.ar    1  LIG1        0.0497
     26 S          -2.9703    5.9887    0.2789 S.2     1  LIG1       -0.0839
     27 N           1.7080    7.2711   -1.2268 N.1     1  LIG1       -0.1908
     28 C           0.6120    7.1237   -0.8774 C.1     1  LIG1        0.1022
     29 N          -1.0907    9.3870   -0.3588 N.pl3   1  LIG1       -0.3561
     30 H          -0.1665    9.4626   -0.7590 H       1  LIG1        0.1424
     31 H          -1.7173   10.1094   -0.6792 H       1  LIG1        0.1424
     32 C          -4.0094    8.5398    0.4703 C.ar    1  LIG1        0.0469
     33 C          -4.4837    9.6978   -0.1180 C.ar    1  LIG1        0.0876
     34 C          -5.6666   10.2349    0.5077 C.ar    1  LIG1        0.0499
     35 C          -6.0785    9.4508    1.5438 C.ar    1  LIG1       -0.0018
     36 S          -5.0237    8.1056    1.8021 S.2     1  LIG1       -0.0929
     37 H          -6.9372    9.5974    2.1816 H       1  LIG1        0.0712
     38 N          -3.4552   10.8114   -2.2038 N.1     1  LIG1       -0.1908
     39 C          -3.9186   10.2965   -1.2736 C.1     1  LIG1        0.1022
     40 N          -6.2382   11.4226    0.0886 N.pl3   1  LIG1       -0.3565
     41 H          -6.0656   11.6763   -0.8738 H       1  LIG1        0.1424
     42 H          -7.1974   11.5666    0.3645 H       1  LIG1        0.1424
@<TRIPOS>BOND
     1     6     1    1
     2    38    39    3
     3     5     1   ar
     4     5     4   ar
     5     1     2   ar
     6    39    33    1
     7    27    28    3
     8    28    23    1
     9    41    40    1
    10     4    12    1
    11     4     3   ar
    12    16    12   ar
    13    16    15   ar
    14    30    29    1
    15    31    29    1
    16     2     8    1
    17     2     3   ar
    18    12    13   ar
    19    23    24   ar
    20    23    22   ar
    21    29    24    1
    22    24    25   ar
    23    15    22    1
    24    15    14   ar
    25    22    26   ar
    26    33    32   ar
    27    33    34   ar
    28     8     7    3
    29     3     9    1
    30    13    14   ar
    31    13    18    1
    32    40    42    1
    33    40    34    1
    34    25    26   ar
    35    25    32    1
    36    14    19    1
    37    18    17    3
    38    21    19    1
    39    32    36   ar
    40    34    35   ar
    41    19    20    1
    42     9    11    1
    43     9    10    1
    44    35    36   ar
    45    35    37    1
