@<TRIPOS>MOLECULE
mol_data/opt/cam/geoms/mol2/5dh5dh-.out
 22 23 0 0 0
SMALL
GASTEIGER

@<TRIPOS>ATOM
      1 C          -2.0704   -1.7622    0.5585 C.ar    1  LIG1       -0.0045
      2 C          -0.8184   -1.8345    0.0182 C.ar    1  LIG1        0.0800
      3 C          -0.2226   -0.5450   -0.2418 C.ar    1  LIG1        0.0577
      4 C          -1.0731    0.4797    0.1316 C.ar    1  LIG1        0.0491
      5 S          -2.5669   -0.1515    0.7949 S.2     1  LIG1       -0.0929
      6 H          -2.7006   -2.5910    0.8460 H       1  LIG1        0.0707
      7 N           0.4676   -4.0050   -0.5308 N.1     1  LIG1       -0.1908
      8 C          -0.1351   -3.0503   -0.2747 C.1     1  LIG1        0.1016
      9 N           0.9942   -0.4407   -0.8680 N.pl3   1  LIG1       -0.3561
     10 H           1.4963   -1.3113   -0.9728 H       1  LIG1        0.1424
     11 H           1.5943    0.3271   -0.6058 H       1  LIG1        0.1424
     12 C          -0.9326    1.9131   -0.0422 C.ar    1  LIG1        0.0469
     13 C           0.1724    2.7206    0.1480 C.ar    1  LIG1        0.0876
     14 C          -0.0589    4.1142   -0.1421 C.ar    1  LIG1        0.0499
     15 C          -1.3461    4.3314   -0.5342 C.ar    1  LIG1       -0.0018
     16 S          -2.2686    2.8700   -0.5791 S.2     1  LIG1       -0.0929
     17 H          -1.8097    5.2744   -0.7819 H       1  LIG1        0.0712
     18 N           2.4725    1.8864    0.9612 N.1     1  LIG1       -0.1908
     19 C           1.4282    2.2575    0.6193 C.1     1  LIG1        0.1022
     20 N           0.9203    5.0714    0.0534 N.pl3   1  LIG1       -0.3565
     21 H           1.8730    4.7402    0.0053 H       1  LIG1        0.1424
     22 H           0.7836    5.9433   -0.4343 H       1  LIG1        0.1424
@<TRIPOS>BOND
     1    10     9    1
     2     9    11    1
     3     9     3    1
     4    17    15    1
     5    16    15   ar
     6    16    12   ar
     7    15    14   ar
     8     7     8    3
     9    22    20    1
    10     8     2    1
    11     3     2   ar
    12     3     4   ar
    13    14    20    1
    14    14    13   ar
    15    12     4    1
    16    12    13   ar
    17    21    20    1
    18     2     1   ar
    19     4     5   ar
    20    13    19    1
    21     1     5   ar
    22     1     6    1
    23    19    18    3
