@<TRIPOS>MOLECULE
mol_data/opt/cam/geoms/mol2/5dh5dh-5dh.out
 32 34 0 0 0
SMALL
GASTEIGER

@<TRIPOS>ATOM
      1 C          -2.0345   -1.7120   -1.0854 C.ar    1  LIG1       -0.0045
      2 C          -0.9462   -1.8763   -0.2777 C.ar    1  LIG1        0.0800
      3 C          -0.3012   -0.6365    0.0873 C.ar    1  LIG1        0.0577
      4 C          -0.9466    0.4464   -0.4868 C.ar    1  LIG1        0.0491
      5 S          -2.3138   -0.0743   -1.4537 S.2     1  LIG1       -0.0929
      6 H          -2.6604   -2.4918   -1.4941 H       1  LIG1        0.0707
      7 N          -0.0261   -4.1295    0.5832 N.1     1  LIG1       -0.1908
      8 C          -0.4638   -3.1360    0.1816 C.1     1  LIG1        0.1016
      9 N           0.7450   -0.6237    0.9691 N.pl3   1  LIG1       -0.3561
     10 H           1.1300   -1.5282    1.2012 H       1  LIG1        0.1424
     11 H           1.4444    0.0971    0.8784 H       1  LIG1        0.1424
     12 C          -0.7145    1.8644   -0.3078 C.ar    1  LIG1        0.0475
     13 C           0.4750    2.5615   -0.2385 C.ar    1  LIG1        0.0883
     14 C           0.3313    3.9846   -0.0493 C.ar    1  LIG1        0.0583
     15 C          -0.9982    4.3556   -0.0127 C.ar    1  LIG1        0.0497
     16 S          -2.0432    2.9570   -0.1680 S.2     1  LIG1       -0.0839
     17 N           2.8116    1.4993   -0.4827 N.1     1  LIG1       -0.1908
     18 C           1.7553    1.9690   -0.3899 C.1     1  LIG1        0.1022
     19 N           1.4301    4.7825    0.1363 N.pl3   1  LIG1       -0.3561
     20 H           2.3220    4.3489   -0.0545 H       1  LIG1        0.1424
     21 H           1.3825    5.7389   -0.1805 H       1  LIG1        0.1424
     22 C          -1.5964    5.6527    0.2298 C.ar    1  LIG1        0.0469
     23 C          -1.2251    6.8982   -0.2421 C.ar    1  LIG1        0.0876
     24 C          -2.0623    7.9773    0.2205 C.ar    1  LIG1        0.0499
     25 C          -3.0704    7.5172    1.0141 C.ar    1  LIG1       -0.0018
     26 S          -2.9852    5.8065    1.2490 S.2     1  LIG1       -0.0929
     27 H          -3.8520    8.0919    1.4877 H       1  LIG1        0.0712
     28 N           0.7229    7.3269   -1.8759 N.1     1  LIG1       -0.1908
     29 C          -0.1592    7.1232   -1.1511 C.1     1  LIG1        0.1022
     30 N          -1.7970    9.2960   -0.1023 N.pl3   1  LIG1       -0.3565
     31 H          -1.2805    9.4416   -0.9581 H       1  LIG1        0.1424
     32 H          -2.5708    9.9345    0.0000 H       1  LIG1        0.1424
@<TRIPOS>BOND
     1    28    29    3
     2     6     1    1
     3     5     1   ar
     4     5     4   ar
     5    29    23    1
     6     1     2   ar
     7    31    30    1
     8     4    12    1
     9     4     3   ar
    10    17    18    3
    11    18    13    1
    12    12    13   ar
    13    12    16   ar
    14     2     3   ar
    15     2     8    1
    16    23    24   ar
    17    23    22   ar
    18    13    14   ar
    19    21    19    1
    20    16    15   ar
    21    30    32    1
    22    30    24    1
    23    20    19    1
    24    14    15   ar
    25    14    19    1
    26    15    22    1
    27     3     9    1
    28     8     7    3
    29    24    25   ar
    30    22    26   ar
    31    11     9    1
    32     9    10    1
    33    25    26   ar
    34    25    27    1
