@<TRIPOS>MOLECULE
mol_data/opt/cam/geoms/mol2/5dh5dh-5dh5dh.out
 42 45 0 0 0
SMALL
GASTEIGER

@<TRIPOS>ATOM
      1 C          -1.8645   -1.5458   -1.7425 C.ar    1  LIG1       -0.0045
      2 C          -1.1058   -1.8009   -0.6369 C.ar    1  LIG1        0.0800
      3 C          -0.5165   -0.6192   -0.0513 C.ar    1  LIG1        0.0577
      4 C          -0.8609    0.5146   -0.7699 C.ar    1  LIG1        0.0491
      5 S          -1.8865    0.1099   -2.1340 S.2     1  LIG1       -0.0929
      6 H          -2.3852   -2.2707   -2.3510 H       1  LIG1        0.0707
      7 N          -0.6829   -4.1234    0.4081 N.1     1  LIG1       -0.1908
      8 C          -0.8929   -3.0969   -0.0840 C.1     1  LIG1        0.1016
      9 N           0.1914   -0.6954    1.1161 N.pl3   1  LIG1       -0.3561
     10 H           0.4065   -1.6290    1.4361 H       1  LIG1        0.1424
     11 H           0.9362   -0.0347    1.2765 H       1  LIG1        0.1424
     12 C          -0.5931    1.9081   -0.4852 C.ar    1  LIG1        0.0475
     13 C           0.5580    2.5075   -0.0145 C.ar    1  LIG1        0.0883
     14 C           0.4700    3.9376    0.1546 C.ar    1  LIG1        0.0583
     15 C          -0.7681    4.4149   -0.2349 C.ar    1  LIG1        0.0497
     16 S          -1.8092    3.1026   -0.7565 S.2     1  LIG1       -0.0839
     17 N           2.7615    1.2647    0.4826 N.1     1  LIG1       -0.1908
     18 C           1.7701    1.8156    0.2407 C.1     1  LIG1        0.1022
     19 N           1.5044    4.6390    0.7111 N.pl3   1  LIG1       -0.3561
     20 H           2.3699    4.1312    0.8240 H       1  LIG1        0.1424
     21 H           1.6403    5.5993    0.4344 H       1  LIG1        0.1424
     22 C          -1.3185    5.7500   -0.1558 C.ar    1  LIG1        0.0475
     23 C          -0.7238    6.9694   -0.4170 C.ar    1  LIG1        0.0883
     24 C          -1.5825    8.1131   -0.2292 C.ar    1  LIG1        0.0583
     25 C          -2.8559    7.7313    0.1441 C.ar    1  LIG1        0.0497
     26 S          -2.9667    5.9891    0.3002 S.2     1  LIG1       -0.0839
     27 N           1.6975    7.2706   -1.2495 N.1     1  LIG1       -0.1908
     28 C           0.6047    7.1234   -0.8897 C.1     1  LIG1        0.1022
     29 N          -1.0923    9.3870   -0.3547 N.pl3   1  LIG1       -0.3561
     30 H          -0.1719    9.4625   -0.7635 H       1  LIG1        0.1424
     31 H          -1.7218   10.1097   -0.6689 H       1  LIG1        0.1424
     32 C          -4.0033    8.5404    0.5018 C.ar    1  LIG1        0.0469
     33 C          -4.4829    9.6986   -0.0817 C.ar    1  LIG1        0.0876
     34 C          -5.6597   10.2358    0.5553 C.ar    1  LIG1        0.0499
     35 C          -6.0620    9.4516    1.5951 C.ar    1  LIG1       -0.0018
     36 S          -5.0051    8.1062    1.8432 S.2     1  LIG1       -0.0929
     37 H          -6.9145    9.5983    2.2410 H       1  LIG1        0.0712
     38 N          -3.4742   10.8122   -2.1771 N.1     1  LIG1       -0.1908
     39 C          -3.9287   10.2973   -1.2425 C.1     1  LIG1        0.1022
     40 N          -6.2350   11.4238    0.1418 N.pl3   1  LIG1       -0.3565
     41 H          -6.0715   11.6776   -0.8221 H       1  LIG1        0.1424
     42 H          -7.1916   11.5679    0.4268 H       1  LIG1        0.1424
@<TRIPOS>BOND
     1     6     1    1
     2    38    39    3
     3     5     1   ar
     4     5     4   ar
     5     1     2   ar
     6    27    28    3
     7    39    33    1
     8    28    23    1
     9    41    40    1
    10     4    12    1
    11     4     3   ar
    12    30    29    1
    13    16    12   ar
    14    16    15   ar
    15    31    29    1
    16     2     8    1
    17     2     3   ar
    18    12    13   ar
    19    23    24   ar
    20    23    22   ar
    21    29    24    1
    22    15    22    1
    23    15    14   ar
    24    24    25   ar
    25    22    26   ar
    26     8     7    3
    27    33    32   ar
    28    33    34   ar
    29     3     9    1
    30    13    14   ar
    31    13    18    1
    32    40    42    1
    33    40    34    1
    34    25    26   ar
    35    25    32    1
    36    14    19    1
    37    18    17    3
    38    21    19    1
    39    32    36   ar
    40    34    35   ar
    41    19    20    1
    42     9    11    1
    43     9    10    1
    44    35    36   ar
    45    35    37    1
