@<TRIPOS>MOLECULE
mol_data/opt/cam/geoms/mol2/5dh5dh.out
 22 23 0 0 0
SMALL
GASTEIGER

@<TRIPOS>ATOM
      1 C          -2.0749   -1.7629    0.5468 C.ar    1  LIG1       -0.0045
      2 C          -0.8187   -1.8344    0.0163 C.ar    1  LIG1        0.0800
      3 C          -0.2209   -0.5445   -0.2371 C.ar    1  LIG1        0.0577
      4 C          -1.0744    0.4796    0.1310 C.ar    1  LIG1        0.0491
      5 S          -2.5734   -0.1526    0.7815 S.2     1  LIG1       -0.0929
      6 H          -2.7073   -2.5921    0.8280 H       1  LIG1        0.0707
      7 N           0.4717   -4.0040   -0.5257 N.1     1  LIG1       -0.1908
      8 C          -0.1330   -3.0497   -0.2730 C.1     1  LIG1        0.1016
      9 N           1.0008   -0.4392   -0.8535 N.pl3   1  LIG1       -0.3561
     10 H           1.5037   -1.3096   -0.9556 H       1  LIG1        0.1424
     11 H           1.5988    0.3282   -0.5854 H       1  LIG1        0.1424
     12 C          -0.9327    1.9134   -0.0396 C.ar    1  LIG1        0.0469
     13 C           0.1708    2.7206    0.1605 C.ar    1  LIG1        0.0876
     14 C          -0.0583    4.1146   -0.1294 C.ar    1  LIG1        0.0499
     15 C          -1.3424    4.3323   -0.5313 C.ar    1  LIG1       -0.0018
     16 S          -2.2644    2.8709   -0.5856 S.2     1  LIG1       -0.0929
     17 H          -1.8041    5.2757   -0.7813 H       1  LIG1        0.0712
     18 N           2.4644    1.8853    0.9907 N.1     1  LIG1       -0.1908
     19 C           1.4229    2.2569    0.6411 C.1     1  LIG1        0.1022
     20 N           0.9192    5.0716    0.0752 N.pl3   1  LIG1       -0.3565
     21 H           1.8723    4.7404    0.0343 H       1  LIG1        0.1424
     22 H           0.7864    5.9442   -0.4123 H       1  LIG1        0.1424
@<TRIPOS>BOND
     1    10     9    1
     2     9    11    1
     3     9     3    1
     4    17    15    1
     5    16    15   ar
     6    16    12   ar
     7    15    14   ar
     8     7     8    3
     9    22    20    1
    10     8     2    1
    11     3     2   ar
    12     3     4   ar
    13    14    20    1
    14    14    13   ar
    15    12     4    1
    16    12    13   ar
    17     2     1   ar
    18    21    20    1
    19     4     5   ar
    20    13    19    1
    21     1     5   ar
    22     1     6    1
    23    19    18    3
