@<TRIPOS>MOLECULE
mol_data/opt/cam/geoms/mol2/5dh5dh5dh-5dh.out
 42 45 0 0 0
SMALL
GASTEIGER

@<TRIPOS>ATOM
      1 C          -1.8324   -1.5480   -1.7610 C.ar    1  LIG1       -0.0045
      2 C          -1.0933   -1.8015   -0.6418 C.ar    1  LIG1        0.0800
      3 C          -0.5150   -0.6188   -0.0473 C.ar    1  LIG1        0.0577
      4 C          -0.8469    0.5139   -0.7733 C.ar    1  LIG1        0.0491
      5 S          -1.8477    0.1071   -2.1551 S.2     1  LIG1       -0.0929
      6 H          -2.3421   -2.2739   -2.3777 H       1  LIG1        0.0707
      7 N          -0.6885   -4.1225    0.4136 N.1     1  LIG1       -0.1908
      8 C          -0.8899   -3.0968   -0.0836 C.1     1  LIG1        0.1016
      9 N           0.1721   -0.6933    1.1327 N.pl3   1  LIG1       -0.3561
     10 H           0.3816   -1.6265    1.4576 H       1  LIG1        0.1424
     11 H           0.9141   -0.0324    1.3051 H       1  LIG1        0.1424
     12 C          -0.5847    1.9080   -0.4857 C.ar    1  LIG1        0.0475
     13 C           0.5576    2.5084    0.0047 C.ar    1  LIG1        0.0883
     14 C           0.4662    3.9387    0.1702 C.ar    1  LIG1        0.0583
     15 C          -0.7649    4.4150   -0.2420 C.ar    1  LIG1        0.0497
     16 S          -1.7961    3.1016   -0.7802 S.2     1  LIG1       -0.0839
     17 N           2.7524    1.2671    0.5424 N.1     1  LIG1       -0.1908
     18 C           1.7653    1.8173    0.2823 C.1     1  LIG1        0.1022
     19 N           1.4903    4.6413    0.7441 N.pl3   1  LIG1       -0.3561
     20 H           2.3538    4.1338    0.8731 H       1  LIG1        0.1424
     21 H           1.6310    5.6011    0.4682 H       1  LIG1        0.1424
     22 C          -1.3170    5.7501   -0.1749 C.ar    1  LIG1        0.0475
     23 C          -0.7182    6.9693   -0.4272 C.ar    1  LIG1        0.0883
     24 C          -1.5805    8.1131   -0.2566 C.ar    1  LIG1        0.0583
     25 C          -2.8602    7.7314    0.0944 C.ar    1  LIG1        0.0497
     26 S          -2.9732    5.9893    0.2513 S.2     1  LIG1       -0.0839
     27 N           1.7175    7.2701   -1.2169 N.1     1  LIG1       -0.1908
     28 C           0.6186    7.1230   -0.8764 C.1     1  LIG1        0.1022
     29 N          -1.0884    9.3869   -0.3753 N.pl3   1  LIG1       -0.3561
     30 H          -0.1610    9.4620   -0.7679 H       1  LIG1        0.1424
     31 H          -1.7125   10.1089   -0.7018 H       1  LIG1        0.1424
     32 C          -4.0142    8.5406    0.4301 C.ar    1  LIG1        0.0469
     33 C          -4.4836    9.6977   -0.1638 C.ar    1  LIG1        0.0876
     34 C          -5.6718   10.2355    0.4511 C.ar    1  LIG1        0.0499
     35 C          -6.0925    9.4527    1.4847 C.ar    1  LIG1       -0.0018
     36 S          -5.0398    8.1081    1.7538 S.2     1  LIG1       -0.0929
     37 H          -6.9566    9.6001    2.1150 H       1  LIG1        0.0712
     38 N          -3.4378   10.8087   -2.2423 N.1     1  LIG1       -0.1908
     39 C          -3.9088   10.2949   -1.3153 C.1     1  LIG1        0.1022
     40 N          -6.2400   11.4226    0.0255 N.pl3   1  LIG1       -0.3565
     41 H          -6.0593   11.6750   -0.9357 H       1  LIG1        0.1424
     42 H          -7.2016   11.5669    0.2931 H       1  LIG1        0.1424
@<TRIPOS>BOND
     1     6     1    1
     2    38    39    3
     3     5     1   ar
     4     5     4   ar
     5     1     2   ar
     6    39    33    1
     7    27    28    3
     8    41    40    1
     9    28    23    1
    10    16    12   ar
    11    16    15   ar
    12     4    12    1
    13     4     3   ar
    14    30    29    1
    15    31    29    1
    16     2     8    1
    17     2     3   ar
    18    12    13   ar
    19    23    24   ar
    20    23    22   ar
    21    29    24    1
    22    24    25   ar
    23    15    22    1
    24    15    14   ar
    25    22    26   ar
    26    33    32   ar
    27    33    34   ar
    28     8     7    3
    29     3     9    1
    30    13    14   ar
    31    13    18    1
    32    40    42    1
    33    40    34    1
    34    25    26   ar
    35    25    32    1
    36    14    19    1
    37    18    17    3
    38    32    36   ar
    39    34    35   ar
    40    21    19    1
    41    19    20    1
    42     9    11    1
    43     9    10    1
    44    35    36   ar
    45    35    37    1
