@<TRIPOS>MOLECULE
mol_data/opt/cam/geoms/mol2/5dh5dh5dh.out
 32 34 0 0 0
SMALL
GASTEIGER

@<TRIPOS>ATOM
      1 C          -2.0215   -1.7161   -1.0888 C.ar    1  LIG1       -0.0045
      2 C          -0.9421   -1.8771   -0.2688 C.ar    1  LIG1        0.0800
      3 C          -0.3015   -0.6356    0.0987 C.ar    1  LIG1        0.0577
      4 C          -0.9409    0.4448   -0.4864 C.ar    1  LIG1        0.0491
      5 S          -2.2974   -0.0800   -1.4662 S.2     1  LIG1       -0.0929
      6 H          -2.6427   -2.4977   -1.5015 H       1  LIG1        0.0707
      7 N          -0.0305   -4.1267    0.6104 N.1     1  LIG1       -0.1908
      8 C          -0.4643   -3.1349    0.2004 C.1     1  LIG1        0.1016
      9 N           0.7350   -0.6192    0.9918 N.pl3   1  LIG1       -0.3561
     10 H           1.1178   -1.5227    1.2313 H       1  LIG1        0.1424
     11 H           1.4352    0.1015    0.9060 H       1  LIG1        0.1424
     12 C          -0.7114    1.8636   -0.3101 C.ar    1  LIG1        0.0475
     13 C           0.4771    2.5614   -0.2305 C.ar    1  LIG1        0.0883
     14 C           0.3309    3.9851   -0.0481 C.ar    1  LIG1        0.0583
     15 C          -0.9991    4.3558   -0.0273 C.ar    1  LIG1        0.0497
     16 S          -2.0419    2.9562   -0.1888 S.2     1  LIG1       -0.0839
     17 N           2.8165    1.4992   -0.4453 N.1     1  LIG1       -0.1908
     18 C           1.7592    1.9688   -0.3658 C.1     1  LIG1        0.1022
     19 N           1.4273    4.7842    0.1466 N.pl3   1  LIG1       -0.3561
     20 H           2.3214    4.3502   -0.0330 H       1  LIG1        0.1424
     21 H           1.3827    5.7394   -0.1743 H       1  LIG1        0.1424
     22 C          -1.6004    5.6535    0.2039 C.ar    1  LIG1        0.0469
     23 C          -1.2244    6.8974   -0.2685 C.ar    1  LIG1        0.0876
     24 C          -2.0670    7.9779    0.1809 C.ar    1  LIG1        0.0499
     25 C          -3.0835    7.5203    0.9652 C.ar    1  LIG1       -0.0018
     26 S          -3.0003    5.8105    1.2073 S.2     1  LIG1       -0.0929
     27 H          -3.8705    8.0964    1.4281 H       1  LIG1        0.0712
     28 N           0.7412    7.3209   -1.8826 N.1     1  LIG1       -0.1908
     29 C          -0.1487    7.1195   -1.1667 C.1     1  LIG1        0.1022
     30 N          -1.7986    9.2955   -0.1438 N.pl3   1  LIG1       -0.3565
     31 H          -1.2729    9.4381   -0.9945 H       1  LIG1        0.1424
     32 H          -2.5738    9.9340   -0.0523 H       1  LIG1        0.1424
@<TRIPOS>BOND
     1    28    29    3
     2     6     1    1
     3     5     1   ar
     4     5     4   ar
     5    29    23    1
     6     1     2   ar
     7    31    30    1
     8     4    12    1
     9     4     3   ar
    10    17    18    3
    11    18    13    1
    12    12    13   ar
    13    12    16   ar
    14     2     3   ar
    15     2     8    1
    16    23    24   ar
    17    23    22   ar
    18    13    14   ar
    19    16    15   ar
    20    21    19    1
    21    30    32    1
    22    30    24    1
    23    14    15   ar
    24    14    19    1
    25    20    19    1
    26    15    22    1
    27     3     9    1
    28    24    25   ar
    29     8     7    3
    30    22    26   ar
    31    11     9    1
    32    25    26   ar
    33    25    27    1
    34     9    10    1
