@<TRIPOS>MOLECULE
mol_data/opt/cam/geoms/mol2/5dh5dh-5dh5dh-.out
 42 45 0 0 0
SMALL
GASTEIGER

@<TRIPOS>ATOM
      1 C          -1.8617   -1.5483   -1.7377 C.ar    1  LIG1       -0.0045
      2 C          -1.1035   -1.8017   -0.6313 C.ar    1  LIG1        0.0800
      3 C          -0.5149   -0.6190   -0.0471 C.ar    1  LIG1        0.0577
      4 C          -0.8592    0.5137   -0.7674 C.ar    1  LIG1        0.0491
      5 S          -1.8840    0.1068   -2.1315 S.2     1  LIG1       -0.0929
      6 H          -2.3819   -2.2743   -2.3455 H       1  LIG1        0.0707
      7 N          -0.6805   -4.1227    0.4170 N.1     1  LIG1       -0.1908
      8 C          -0.8905   -3.0969   -0.0766 C.1     1  LIG1        0.1016
      9 N           0.1925   -0.6935    1.1208 N.pl3   1  LIG1       -0.3561
     10 H           0.4077   -1.6265    1.4422 H       1  LIG1        0.1424
     11 H           0.9370   -0.0323    1.2806 H       1  LIG1        0.1424
     12 C          -0.5920    1.9077   -0.4845 C.ar    1  LIG1        0.0475
     13 C           0.5587    2.5080   -0.0140 C.ar    1  LIG1        0.0883
     14 C           0.4702    3.9383    0.1531 C.ar    1  LIG1        0.0583
     15 C          -0.7678    4.4147   -0.2377 C.ar    1  LIG1        0.0497
     16 S          -1.8083    3.1014   -0.7581 S.2     1  LIG1       -0.0839
     17 N           2.7622    1.2665    0.4860 N.1     1  LIG1       -0.1908
     18 C           1.7709    1.8168    0.2428 C.1     1  LIG1        0.1022
     19 N           1.5041    4.6407    0.7092 N.pl3   1  LIG1       -0.3561
     20 H           2.3698    4.1333    0.8232 H       1  LIG1        0.1424
     21 H           1.6399    5.6007    0.4313 H       1  LIG1        0.1424
     22 C          -1.3186    5.7498   -0.1607 C.ar    1  LIG1        0.0475
     23 C          -0.7242    6.9689   -0.4234 C.ar    1  LIG1        0.0883
     24 C          -1.5834    8.1127   -0.2376 C.ar    1  LIG1        0.0583
     25 C          -2.8568    7.7310    0.1357 C.ar    1  LIG1        0.0497
     26 S          -2.9671    5.9890    0.2942 S.2     1  LIG1       -0.0839
     27 N           1.6973    7.2698   -1.2553 N.1     1  LIG1       -0.1908
     28 C           0.6045    7.1227   -0.8958 C.1     1  LIG1        0.1022
     29 N          -1.0935    9.3865   -0.3647 N.pl3   1  LIG1       -0.3561
     30 H          -0.1729    9.4617   -0.7731 H       1  LIG1        0.1424
     31 H          -1.7231   10.1086   -0.6804 H       1  LIG1        0.1424
     32 C          -4.0046    8.5403    0.4918 C.ar    1  LIG1        0.0469
     33 C          -4.4843    9.6976   -0.0936 C.ar    1  LIG1        0.0876
     34 C          -5.6615   10.2353    0.5422 C.ar    1  LIG1        0.0499
     35 C          -6.0640    9.4524    1.5828 C.ar    1  LIG1       -0.0018
     36 S          -5.0068    8.1077    1.8333 S.2     1  LIG1       -0.0929
     37 H          -6.9169    9.5998    2.2282 H       1  LIG1        0.0712
     38 N          -3.4748   10.8086   -2.1899 N.1     1  LIG1       -0.1908
     39 C          -3.9297   10.2949   -1.2549 C.1     1  LIG1        0.1022
     40 N          -6.2370   11.4225    0.1268 N.pl3   1  LIG1       -0.3565
     41 H          -6.0731   11.6751   -0.8374 H       1  LIG1        0.1424
     42 H          -7.1937   11.5667    0.4111 H       1  LIG1        0.1424
@<TRIPOS>BOND
     1     6     1    1
     2    38    39    3
     3     5     1   ar
     4     5     4   ar
     5     1     2   ar
     6    27    28    3
     7    39    33    1
     8    28    23    1
     9    41    40    1
    10    30    29    1
    11     4    12    1
    12     4     3   ar
    13    16    12   ar
    14    16    15   ar
    15    31    29    1
    16     2     8    1
    17     2     3   ar
    18    12    13   ar
    19    23    24   ar
    20    23    22   ar
    21    29    24    1
    22    15    22    1
    23    15    14   ar
    24    24    25   ar
    25    22    26   ar
    26    33    32   ar
    27    33    34   ar
    28     8     7    3
    29     3     9    1
    30    13    14   ar
    31    13    18    1
    32    40    42    1
    33    40    34    1
    34    25    26   ar
    35    25    32    1
    36    14    19    1
    37    18    17    3
    38    21    19    1
    39    32    36   ar
    40    34    35   ar
    41    19    20    1
    42     9    11    1
    43     9    10    1
    44    35    36   ar
    45    35    37    1
