@<TRIPOS>MOLECULE
mol_data/opt/cam/geoms/mol2/5di.out
 13 13 0 0 0
SMALL
GASTEIGER

@<TRIPOS>ATOM
      1 C          -2.1605   -1.7275   -0.0169 C.ar    1  LIG1       -0.0067
      2 C          -0.7934   -1.6922   -0.0365 C.ar    1  LIG1        0.0617
      3 C          -0.2530   -0.3581    0.0233 C.ar    1  LIG1       -0.0261
      4 C          -1.2514    0.5626    0.0860 C.ar    1  LIG1       -0.0202
      5 S          -2.8231   -0.1526    0.0745 S.2     1  LIG1       -0.1035
      6 H          -2.7935   -2.6019   -0.0518 H       1  LIG1        0.0706
      7 H          -1.1476    1.6369    0.1393 H       1  LIG1        0.0696
      8 N           0.6993   -3.7991   -0.1680 N.1     1  LIG1       -0.1908
      9 C           0.0213   -2.8632   -0.1094 C.1     1  LIG1        0.0999
     10 C           1.2144   -0.0573    0.0156 C.3     1  LIG1       -0.0380
     11 H           1.3934    1.0177    0.0674 H       1  LIG1        0.0278
     12 H           1.6895   -0.4400   -0.8923 H       1  LIG1        0.0278
     13 H           1.7170   -0.5293    0.8647 H       1  LIG1        0.0278
@<TRIPOS>BOND
     1    12    10    1
     2     8     9    3
     3     9     2    1
     4     6     1    1
     5     2     1   ar
     6     2     3   ar
     7     1     5   ar
     8    10     3    1
     9    10    11    1
    10    10    13    1
    11     3     4   ar
    12     5     4   ar
    13     4     7    1
