@<TRIPOS>MOLECULE
mol_data/opt/cam/geoms/mol2/5di5di5di5di-.out
 46 49 0 0 0
SMALL
GASTEIGER

@<TRIPOS>ATOM
      1 C          -1.2737   -1.5243   -2.1854 C.ar    1  LIG1       -0.0061
      2 C          -0.8357   -1.7749   -0.9147 C.ar    1  LIG1        0.0623
      3 C          -0.5212   -0.5897   -0.1642 C.ar    1  LIG1       -0.0178
      4 C          -0.7324    0.5353   -0.9192 C.ar    1  LIG1        0.0313
      5 S          -1.3112    0.1484   -2.5190 S.2     1  LIG1       -0.0945
      6 H          -1.5710   -2.2493   -2.9290 H       1  LIG1        0.0706
      7 N          -0.6405   -4.1530    0.0808 N.1     1  LIG1       -0.1908
      8 C          -0.7261   -3.0927   -0.3737 C.1     1  LIG1        0.1000
      9 C          -0.0593   -0.6316    1.2592 C.3     1  LIG1       -0.0374
     10 H          -0.2694    0.3086    1.7712 H       1  LIG1        0.0278
     11 H           1.0192   -0.8047    1.3151 H       1  LIG1        0.0278
     12 H          -0.5564   -1.4410    1.7982 H       1  LIG1        0.0278
     13 C          -0.5369    1.9300   -0.5403 C.ar    1  LIG1        0.0444
     14 C           0.5812    2.5219    0.0039 C.ar    1  LIG1        0.0705
     15 C           0.4447    3.9271    0.2655 C.ar    1  LIG1       -0.0172
     16 C          -0.7915    4.3802   -0.1145 C.ar    1  LIG1        0.0319
     17 S          -1.7847    3.1014   -0.7585 S.2     1  LIG1       -0.0856
     18 N           2.7743    1.2440    0.4892 N.1     1  LIG1       -0.1908
     19 C           1.7906    1.8102    0.2636 C.1     1  LIG1        0.1006
     20 C           1.5361    4.7416    0.8877 C.3     1  LIG1       -0.0374
     21 H           1.1366    5.6389    1.3624 H       1  LIG1        0.0278
     22 H           2.2630    5.0607    0.1355 H       1  LIG1        0.0278
     23 H           2.0685    4.1561    1.6403 H       1  LIG1        0.0278
     24 C          -1.3251    5.7351   -0.0348 C.ar    1  LIG1        0.0444
     25 C          -0.7689    6.9036   -0.5060 C.ar    1  LIG1        0.0705
     26 C          -1.5567    8.0791   -0.2632 C.ar    1  LIG1       -0.0172
     27 C          -2.7252    7.7647    0.3801 C.ar    1  LIG1        0.0319
     28 S          -2.8495    6.0580    0.7067 S.2     1  LIG1       -0.0856
     29 N           1.4872    6.9948   -1.7629 N.1     1  LIG1       -0.1908
     30 C           0.4750    6.9463   -1.2043 C.1     1  LIG1        0.1006
     31 C          -1.1095    9.4494   -0.6682 C.3     1  LIG1       -0.0374
     32 H          -1.6020   10.2164   -0.0689 H       1  LIG1        0.0278
     33 H          -1.3485    9.6449   -1.7173 H       1  LIG1        0.0278
     34 H          -0.0289    9.5514   -0.5465 H       1  LIG1        0.0278
     35 C          -3.8024    8.6573    0.7930 C.ar    1  LIG1        0.0438
     36 C          -4.4833    9.5838    0.0340 C.ar    1  LIG1        0.0699
     37 C          -5.5013   10.2994    0.7549 C.ar    1  LIG1       -0.0255
     38 C          -5.5661    9.8786    2.0457 C.ar    1  LIG1       -0.0196
     39 S          -4.4132    8.6508    2.4112 S.2     1  LIG1       -0.0945
     40 H          -6.2393   10.2309    2.8143 H       1  LIG1        0.0696
     41 N          -4.0583    9.9640   -2.4863 N.1     1  LIG1       -0.1908
     42 C          -4.2426    9.7853   -1.3577 C.1     1  LIG1        0.1006
     43 C          -6.3683   11.3516    0.1348 C.3     1  LIG1       -0.0380
     44 H          -7.0839   11.7435    0.8590 H       1  LIG1        0.0278
     45 H          -6.9265   10.9502   -0.7156 H       1  LIG1        0.0278
     46 H          -5.7679   12.1859   -0.2389 H       1  LIG1        0.0278
@<TRIPOS>BOND
     1     6     1    1
     2     5     1   ar
     3     5     4   ar
     4    41    42    3
     5     1     2   ar
     6    29    30    3
     7    33    31    1
     8    42    36    1
     9    30    25    1
    10     4    13    1
    11     4     3   ar
    12     2     8    1
    13     2     3   ar
    14    17    13   ar
    15    17    16   ar
    16    45    43    1
    17    31    34    1
    18    31    26    1
    19    31    32    1
    20    13    14   ar
    21    25    26   ar
    22    25    24   ar
    23     8     7    3
    24    26    27   ar
    25    46    43    1
    26     3     9    1
    27    16    24    1
    28    16    15   ar
    29    24    28   ar
    30    14    19    1
    31    14    15   ar
    32    36    37   ar
    33    36    35   ar
    34    43    37    1
    35    43    44    1
    36    22    20    1
    37    19    18    3
    38    15    20    1
    39    27    28   ar
    40    27    35    1
    41    37    38   ar
    42    35    39   ar
    43    20    21    1
    44    20    23    1
    45     9    11    1
    46     9    10    1
    47     9    12    1
    48    38    39   ar
    49    38    40    1
