@<TRIPOS>MOLECULE
mol_data/opt/cam/geoms/mol2/5di5di5di-5di.out
 46 49 0 0 0
SMALL
GASTEIGER

@<TRIPOS>ATOM
      1 C          -1.2458   -1.5100   -2.2243 C.ar    1  LIG1       -0.0061
      2 C          -0.8203   -1.7684   -0.9509 C.ar    1  LIG1        0.0623
      3 C          -0.5145   -0.5877   -0.1897 C.ar    1  LIG1       -0.0178
      4 C          -0.7191    0.5419   -0.9396 C.ar    1  LIG1        0.0313
      5 S          -1.2815    0.1647   -2.5476 S.2     1  LIG1       -0.0945
      6 H          -1.5348   -2.2305   -2.9755 H       1  LIG1        0.0706
      7 N          -0.6330   -4.1526    0.0314 N.1     1  LIG1       -0.1908
      8 C          -0.7149   -3.0895   -0.4172 C.1     1  LIG1        0.1000
      9 C          -0.0669   -0.6383    1.2380 C.3     1  LIG1       -0.0374
     10 H          -0.2830    0.2984    1.7538 H       1  LIG1        0.0278
     11 H           1.0111   -0.8108    1.3036 H       1  LIG1        0.0278
     12 H          -0.5687   -1.4516    1.7668 H       1  LIG1        0.0278
     13 C          -0.5287    1.9343   -0.5499 C.ar    1  LIG1        0.0444
     14 C           0.5833    2.5237    0.0093 C.ar    1  LIG1        0.0705
     15 C           0.4429    3.9271    0.2784 C.ar    1  LIG1       -0.0172
     16 C          -0.7900    4.3815   -0.1111 C.ar    1  LIG1        0.0319
     17 S          -1.7754    3.1060   -0.7732 S.2     1  LIG1       -0.0856
     18 N           2.7725    1.2446    0.5085 N.1     1  LIG1       -0.1908
     19 C           1.7907    1.8114    0.2766 C.1     1  LIG1        0.1006
     20 C           1.5271    4.7385    0.9167 C.3     1  LIG1       -0.0374
     21 H           1.1221    5.6325    1.3930 H       1  LIG1        0.0278
     22 H           2.2613    5.0630    0.1739 H       1  LIG1        0.0278
     23 H           2.0524    4.1488    1.6710 H       1  LIG1        0.0278
     24 C          -1.3256    5.7355   -0.0282 C.ar    1  LIG1        0.0444
     25 C          -0.7658    6.9074   -0.4863 C.ar    1  LIG1        0.0705
     26 C          -1.5570    8.0806   -0.2440 C.ar    1  LIG1       -0.0172
     27 C          -2.7316    7.7611    0.3855 C.ar    1  LIG1        0.0319
     28 S          -2.8576    6.0523    0.7000 S.2     1  LIG1       -0.0856
     29 N           1.5028    7.0086   -1.7199 N.1     1  LIG1       -0.1908
     30 C           0.4851    6.9556   -1.1718 C.1     1  LIG1        0.1006
     31 C          -1.1070    9.4538   -0.6357 C.3     1  LIG1       -0.0374
     32 H          -1.6063   10.2166   -0.0366 H       1  LIG1        0.0278
     33 H          -1.3356    9.6558   -1.6860 H       1  LIG1        0.0278
     34 H          -0.0279    9.5560   -0.5025 H       1  LIG1        0.0278
     35 C          -3.8138    8.6502    0.7931 C.ar    1  LIG1        0.0438
     36 C          -4.4878    9.5809    0.0333 C.ar    1  LIG1        0.0699
     37 C          -5.5137   10.2910    0.7484 C.ar    1  LIG1       -0.0255
     38 C          -5.5911    9.8619    2.0358 C.ar    1  LIG1       -0.0196
     39 S          -4.4408    8.6328    2.4050 S.2     1  LIG1       -0.0945
     40 H          -6.2724   10.2088    2.7998 H       1  LIG1        0.0696
     41 N          -4.0379    9.9774   -2.4802 N.1     1  LIG1       -0.1908
     42 C          -4.2334    9.7914   -1.3547 C.1     1  LIG1        0.1006
     43 C          -6.3755   11.3464    0.1263 C.3     1  LIG1       -0.0380
     44 H          -7.0987   11.7330    0.8457 H       1  LIG1        0.0278
     45 H          -6.9246   10.9499   -0.7323 H       1  LIG1        0.0278
     46 H          -5.7721   12.1836   -0.2359 H       1  LIG1        0.0278
@<TRIPOS>BOND
     1     6     1    1
     2     5     1   ar
     3     5     4   ar
     4    41    42    3
     5     1     2   ar
     6    29    30    3
     7    33    31    1
     8    42    36    1
     9    30    25    1
    10     2     8    1
    11     2     3   ar
    12     4    13    1
    13     4     3   ar
    14    17    13   ar
    15    17    16   ar
    16    45    43    1
    17    31    34    1
    18    31    26    1
    19    31    32    1
    20    13    14   ar
    21    25    26   ar
    22    25    24   ar
    23     8     7    3
    24    26    27   ar
    25    46    43    1
    26     3     9    1
    27    16    24    1
    28    16    15   ar
    29    24    28   ar
    30    14    19    1
    31    14    15   ar
    32    36    37   ar
    33    36    35   ar
    34    43    37    1
    35    43    44    1
    36    22    20    1
    37    19    18    3
    38    15    20    1
    39    27    28   ar
    40    27    35    1
    41    37    38   ar
    42    35    39   ar
    43    20    21    1
    44    20    23    1
    45     9    11    1
    46     9    10    1
    47     9    12    1
    48    38    39   ar
    49    38    40    1
