@<TRIPOS>MOLECULE
mol_data/opt/cam/geoms/mol2/5di5di.out
 24 25 0 0 0
SMALL
GASTEIGER

@<TRIPOS>ATOM
      1 C          -2.0450   -1.7410   -0.7500 C.ar    1  LIG1       -0.0061
      2 C          -0.7883   -1.8308   -0.2192 C.ar    1  LIG1        0.0623
      3 C          -0.2267   -0.5635    0.1632 C.ar    1  LIG1       -0.0178
      4 C          -1.0988    0.4590   -0.1080 C.ar    1  LIG1        0.0313
      5 S          -2.5839   -0.1231   -0.8150 S.2     1  LIG1       -0.0945
      6 H          -2.6659   -2.5526   -1.1001 H       1  LIG1        0.0706
      7 N           0.4524   -4.0731    0.1239 N.1     1  LIG1       -0.1908
      8 C          -0.1072   -3.0734   -0.0369 C.1     1  LIG1        0.1000
      9 C           1.1230   -0.4332    0.7979 C.3     1  LIG1       -0.0374
     10 H           1.1950    0.4832    1.3857 H       1  LIG1        0.0278
     11 H           1.9109   -0.4025    0.0400 H       1  LIG1        0.0278
     12 H           1.3215   -1.2846    1.4527 H       1  LIG1        0.0278
     13 C          -0.9205    1.8882    0.1222 C.ar    1  LIG1        0.0438
     14 C           0.1285    2.6940   -0.2622 C.ar    1  LIG1        0.0699
     15 C          -0.0147    4.0713    0.1275 C.ar    1  LIG1       -0.0255
     16 C          -1.1845    4.2676    0.7904 C.ar    1  LIG1       -0.0196
     17 S          -2.1056    2.8213    0.9692 S.2     1  LIG1       -0.0945
     18 H          -1.5599    5.1988    1.1906 H       1  LIG1        0.0696
     19 N           2.1496    1.8664   -1.6432 N.1     1  LIG1       -0.1908
     20 C           1.2388    2.2258   -1.0260 C.1     1  LIG1        0.1006
     21 C           1.0002    5.1278   -0.1844 C.3     1  LIG1       -0.0380
     22 H           0.6779    6.1005    0.1900 H       1  LIG1        0.0278
     23 H           1.1616    5.2119   -1.2629 H       1  LIG1        0.0278
     24 H           1.9671    4.8902    0.2681 H       1  LIG1        0.0278
@<TRIPOS>BOND
     1    19    20    3
     2    23    21    1
     3     6     1    1
     4    20    14    1
     5     5     1   ar
     6     5     4   ar
     7     1     2   ar
     8    14    13   ar
     9    14    15   ar
    10     2     8    1
    11     2     3   ar
    12    21    15    1
    13    21    22    1
    14    21    24    1
    15     4    13    1
    16     4     3   ar
    17     8     7    3
    18    11     9    1
    19    13    17   ar
    20    15    16   ar
    21     3     9    1
    22    16    17   ar
    23    16    18    1
    24     9    10    1
    25     9    12    1
