@<TRIPOS>MOLECULE
mol_data/opt/cam/geoms/mol2/5di5di-5di-5di-.out
 46 49 0 0 0
SMALL
GASTEIGER

@<TRIPOS>ATOM
      1 C          -1.2706   -1.5015   -2.2380 C.ar    1  LIG1       -0.0061
      2 C          -0.8376   -1.7657   -0.9683 C.ar    1  LIG1        0.0623
      3 C          -0.5251   -0.5887   -0.2042 C.ar    1  LIG1       -0.0178
      4 C          -0.7326    0.5443   -0.9482 C.ar    1  LIG1        0.0313
      5 S          -1.3055    0.1747   -2.5541 S.2     1  LIG1       -0.0945
      6 H          -1.5656   -2.2184   -2.9903 H       1  LIG1        0.0706
      7 N          -0.6481   -4.1543    0.0030 N.1     1  LIG1       -0.1908
      8 C          -0.7311   -3.0892   -0.4407 C.1     1  LIG1        0.1000
      9 C          -0.0687   -0.6459    1.2204 C.3     1  LIG1       -0.0374
     10 H          -0.2801    0.2891    1.7415 H       1  LIG1        0.0278
     11 H           1.0094   -0.8204    1.2786 H       1  LIG1        0.0278
     12 H          -0.5685   -1.4605    1.7490 H       1  LIG1        0.0278
     13 C          -0.5374    1.9348   -0.5540 C.ar    1  LIG1        0.0444
     14 C           0.5790    2.5201    0.0007 C.ar    1  LIG1        0.0705
     15 C           0.4426    3.9226    0.2765 C.ar    1  LIG1       -0.0172
     16 C          -0.7918    4.3806   -0.1035 C.ar    1  LIG1        0.0319
     17 S          -1.7835    3.1094   -0.7646 S.2     1  LIG1       -0.0856
     18 N           2.7692    1.2354    0.4809 N.1     1  LIG1       -0.1908
     19 C           1.7869    1.8047    0.2575 C.1     1  LIG1        0.1006
     20 C           1.5322    4.7296    0.9113 C.3     1  LIG1       -0.0374
     21 H           1.1316    5.6222    1.3938 H       1  LIG1        0.0278
     22 H           2.2623    5.0559    0.1653 H       1  LIG1        0.0278
     23 H           2.0613    4.1359    1.6598 H       1  LIG1        0.0278
     24 C          -1.3247    5.7351   -0.0116 C.ar    1  LIG1        0.0444
     25 C          -0.7658    6.9079   -0.4685 C.ar    1  LIG1        0.0705
     26 C          -1.5536    8.0815   -0.2164 C.ar    1  LIG1       -0.0172
     27 C          -2.7248    7.7613    0.4192 C.ar    1  LIG1        0.0319
     28 S          -2.8516    6.0514    0.7274 S.2     1  LIG1       -0.0856
     29 N           1.4952    7.0105   -1.7158 N.1     1  LIG1       -0.1908
     30 C           0.4808    6.9569   -1.1616 C.1     1  LIG1        0.1006
     31 C          -1.1038    9.4555   -0.6052 C.3     1  LIG1       -0.0374
     32 H          -1.5980   10.2167    0.0002 H       1  LIG1        0.0278
     33 H          -1.3386    9.6623   -1.6532 H       1  LIG1        0.0278
     34 H          -0.0236    9.5554   -0.4784 H       1  LIG1        0.0278
     35 C          -3.8029    8.6504    0.8372 C.ar    1  LIG1        0.0438
     36 C          -4.4801    9.5854    0.0855 C.ar    1  LIG1        0.0699
     37 C          -5.5003   10.2942    0.8099 C.ar    1  LIG1       -0.0255
     38 C          -5.5704    9.8599    2.0960 C.ar    1  LIG1       -0.0196
     39 S          -4.4198    8.6274    2.4529 S.2     1  LIG1       -0.0945
     40 H          -6.2463   10.2048    2.8656 H       1  LIG1        0.0696
     41 N          -4.0453    9.9915   -2.4291 N.1     1  LIG1       -0.1908
     42 C          -4.2340    9.8012   -1.3032 C.1     1  LIG1        0.1006
     43 C          -6.3642   11.3536    0.1976 C.3     1  LIG1       -0.0380
     44 H          -7.0823   11.7384    0.9231 H       1  LIG1        0.0278
     45 H          -6.9193   10.9615   -0.6593 H       1  LIG1        0.0278
     46 H          -5.7617   12.1913   -0.1650 H       1  LIG1        0.0278
@<TRIPOS>BOND
     1     6     1    1
     2     5     1   ar
     3     5     4   ar
     4    41    42    3
     5     1     2   ar
     6    29    30    3
     7    33    31    1
     8    42    36    1
     9    30    25    1
    10     2     8    1
    11     2     3   ar
    12     4    13    1
    13     4     3   ar
    14    17    13   ar
    15    17    16   ar
    16    45    43    1
    17    31    34    1
    18    31    26    1
    19    31    32    1
    20    13    14   ar
    21    25    26   ar
    22    25    24   ar
    23     8     7    3
    24    26    27   ar
    25     3     9    1
    26    46    43    1
    27    16    24    1
    28    16    15   ar
    29    24    28   ar
    30    14    19    1
    31    14    15   ar
    32    36    37   ar
    33    36    35   ar
    34    22    20    1
    35    43    37    1
    36    43    44    1
    37    19    18    3
    38    15    20    1
    39    27    28   ar
    40    27    35    1
    41    37    38   ar
    42    35    39   ar
    43    20    21    1
    44    20    23    1
    45     9    11    1
    46     9    10    1
    47     9    12    1
    48    38    39   ar
    49    38    40    1
