@<TRIPOS>MOLECULE
mol_data/opt/cam/geoms/mol2/5di5di-.out
 24 25 0 0 0
SMALL
GASTEIGER

@<TRIPOS>ATOM
      1 C          -2.0504   -1.7419   -0.7399 C.ar    1  LIG1       -0.0061
      2 C          -0.7902   -1.8310   -0.2174 C.ar    1  LIG1        0.0623
      3 C          -0.2258   -0.5632    0.1591 C.ar    1  LIG1       -0.0178
      4 C          -1.0996    0.4590   -0.1079 C.ar    1  LIG1        0.0313
      5 S          -2.5895   -0.1240   -0.8039 S.2     1  LIG1       -0.0945
      6 H          -2.6738   -2.5539   -1.0846 H       1  LIG1        0.0706
      7 N           0.4524   -4.0730    0.1210 N.1     1  LIG1       -0.1908
      8 C          -0.1082   -3.0735   -0.0377 C.1     1  LIG1        0.1000
      9 C           1.1281   -0.4322    0.7846 C.3     1  LIG1       -0.0374
     10 H           1.2041    0.4852    1.3703 H       1  LIG1        0.0278
     11 H           1.9109   -0.4028    0.0213 H       1  LIG1        0.0278
     12 H           1.3308   -1.2825    1.4393 H       1  LIG1        0.0278
     13 C          -0.9196    1.8885    0.1189 C.ar    1  LIG1        0.0438
     14 C           0.1270    2.6935   -0.2739 C.ar    1  LIG1        0.0699
     15 C          -0.0134    4.0715    0.1145 C.ar    1  LIG1       -0.0255
     16 C          -1.1788    4.2691    0.7850 C.ar    1  LIG1       -0.0196
     17 S          -2.0988    2.8232    0.9723 S.2     1  LIG1       -0.0945
     18 H          -1.5513    5.2009    1.1862 H       1  LIG1        0.0696
     19 N           2.1386    1.8634   -1.6671 N.1     1  LIG1       -0.1908
     20 C           1.2320    2.2239   -1.0443 C.1     1  LIG1        0.1006
     21 C           0.9995    5.1273   -0.2059 C.3     1  LIG1       -0.0380
     22 H           0.6798    6.1007    0.1690 H       1  LIG1        0.0278
     23 H           1.1539    5.2095   -1.2855 H       1  LIG1        0.0278
     24 H           1.9694    4.8903    0.2407 H       1  LIG1        0.0278
@<TRIPOS>BOND
     1    19    20    3
     2    23    21    1
     3     6     1    1
     4    20    14    1
     5     5     1   ar
     6     5     4   ar
     7     1     2   ar
     8    14    15   ar
     9    14    13   ar
    10     2     8    1
    11     2     3   ar
    12    21    15    1
    13    21    22    1
    14    21    24    1
    15     4    13    1
    16     4     3   ar
    17     8     7    3
    18    11     9    1
    19    15    16   ar
    20    13    17   ar
    21     3     9    1
    22     9    10    1
    23     9    12    1
    24    16    17   ar
    25    16    18    1
