@<TRIPOS>MOLECULE
mol_data/opt/cam/geoms/mol2/5di5di-5di-5di.out
 46 49 0 0 0
SMALL
GASTEIGER

@<TRIPOS>ATOM
      1 C          -1.2655   -1.4961   -2.2491 C.ar    1  LIG1       -0.0061
      2 C          -0.8317   -1.7628   -0.9802 C.ar    1  LIG1        0.0623
      3 C          -0.5200   -0.5873   -0.2136 C.ar    1  LIG1       -0.0178
      4 C          -0.7286    0.5472   -0.9550 C.ar    1  LIG1        0.0313
      5 S          -1.3017    0.1807   -2.5615 S.2     1  LIG1       -0.0945
      6 H          -1.5601   -2.2116   -3.0029 H       1  LIG1        0.0706
      7 N          -0.6397   -4.1534   -0.0143 N.1     1  LIG1       -0.1908
      8 C          -0.7238   -3.0874   -0.4556 C.1     1  LIG1        0.1000
      9 C          -0.0630   -0.6473    1.2108 C.3     1  LIG1       -0.0374
     10 H          -0.2761    0.2859    1.7343 H       1  LIG1        0.0278
     11 H           1.0154   -0.8198    1.2683 H       1  LIG1        0.0278
     12 H          -0.5611   -1.4642    1.7374 H       1  LIG1        0.0278
     13 C          -0.5345    1.9370   -0.5577 C.ar    1  LIG1        0.0444
     14 C           0.5815    2.5221   -0.0019 C.ar    1  LIG1        0.0705
     15 C           0.4439    3.9238    0.2771 C.ar    1  LIG1       -0.0172
     16 C          -0.7911    4.3815   -0.1017 C.ar    1  LIG1        0.0319
     17 S          -1.7817    3.1110   -0.7654 S.2     1  LIG1       -0.0856
     18 N           2.7732    1.2385    0.4748 N.1     1  LIG1       -0.1908
     19 C           1.7902    1.8073    0.2529 C.1     1  LIG1        0.1006
     20 C           1.5328    4.7303    0.9137 C.3     1  LIG1       -0.0374
     21 H           1.1312    5.6206    1.3998 H       1  LIG1        0.0278
     22 H           2.2615    5.0606    0.1681 H       1  LIG1        0.0278
     23 H           2.0636    4.1349    1.6596 H       1  LIG1        0.0278
     24 C          -1.3253    5.7353   -0.0064 C.ar    1  LIG1        0.0444
     25 C          -0.7676    6.9099   -0.4603 C.ar    1  LIG1        0.0705
     26 C          -1.5565    8.0820   -0.2051 C.ar    1  LIG1       -0.0172
     27 C          -2.7274    7.7589    0.4296 C.ar    1  LIG1        0.0319
     28 S          -2.8524    6.0482    0.7336 S.2     1  LIG1       -0.0856
     29 N           1.4930    7.0181   -1.7078 N.1     1  LIG1       -0.1908
     30 C           0.4788    6.9620   -1.1535 C.1     1  LIG1        0.1006
     31 C          -1.1081    9.4575   -0.5904 C.3     1  LIG1       -0.0374
     32 H          -1.6017   10.2165    0.0182 H       1  LIG1        0.0278
     33 H          -1.3448    9.6674   -1.6373 H       1  LIG1        0.0278
     34 H          -0.0278    9.5576   -0.4650 H       1  LIG1        0.0278
     35 C          -3.8063    8.6459    0.8503 C.ar    1  LIG1        0.0438
     36 C          -4.4844    9.5825    0.1013 C.ar    1  LIG1        0.0699
     37 C          -5.5051   10.2884    0.8279 C.ar    1  LIG1       -0.0255
     38 C          -5.5746    9.8504    2.1127 C.ar    1  LIG1       -0.0196
     39 S          -4.4230    8.6178    2.4659 S.2     1  LIG1       -0.0945
     40 H          -6.2507   10.1925    2.8834 H       1  LIG1        0.0696
     41 N          -4.0507    9.9963   -2.4123 N.1     1  LIG1       -0.1908
     42 C          -4.2388    9.8025   -1.2869 C.1     1  LIG1        0.1006
     43 C          -6.3697   11.3490    0.2187 C.3     1  LIG1       -0.0380
     44 H          -7.0888   11.7303    0.9450 H       1  LIG1        0.0278
     45 H          -6.9236   10.9595   -0.6400 H       1  LIG1        0.0278
     46 H          -5.7678   12.1888   -0.1402 H       1  LIG1        0.0278
@<TRIPOS>BOND
     1     6     1    1
     2     5     1   ar
     3     5     4   ar
     4    41    42    3
     5     1     2   ar
     6    29    30    3
     7    33    31    1
     8    42    36    1
     9    30    25    1
    10     2     8    1
    11     2     3   ar
    12     4    13    1
    13     4     3   ar
    14    17    13   ar
    15    17    16   ar
    16    45    43    1
    17    31    34    1
    18    31    26    1
    19    31    32    1
    20    13    14   ar
    21    25    26   ar
    22    25    24   ar
    23     8     7    3
    24     3     9    1
    25    26    27   ar
    26    46    43    1
    27    16    24    1
    28    16    15   ar
    29    24    28   ar
    30    14    19    1
    31    14    15   ar
    32    36    37   ar
    33    36    35   ar
    34    22    20    1
    35    43    37    1
    36    43    44    1
    37    19    18    3
    38    15    20    1
    39    27    28   ar
    40    27    35    1
    41    37    38   ar
    42    35    39   ar
    43    20    21    1
    44    20    23    1
    45     9    11    1
    46     9    10    1
    47     9    12    1
    48    38    39   ar
    49    38    40    1
