@<TRIPOS>MOLECULE
mol_data/opt/cam/geoms/mol2/5di5di5di5di.out
 46 49 0 0 0
SMALL
GASTEIGER

@<TRIPOS>ATOM
      1 C          -1.2749   -1.5215   -2.1898 C.ar    1  LIG1       -0.0061
      2 C          -0.8369   -1.7739   -0.9194 C.ar    1  LIG1        0.0623
      3 C          -0.5223   -0.5897   -0.1673 C.ar    1  LIG1       -0.0178
      4 C          -0.7332    0.5364   -0.9208 C.ar    1  LIG1        0.0313
      5 S          -1.3120    0.1517   -2.5211 S.2     1  LIG1       -0.0945
      6 H          -1.5722   -2.2454   -2.9343 H       1  LIG1        0.0706
      7 N          -0.6422   -4.1533    0.0730 N.1     1  LIG1       -0.1908
      8 C          -0.7276   -3.0924   -0.3801 C.1     1  LIG1        0.1000
      9 C          -0.0604   -0.6336    1.2561 C.3     1  LIG1       -0.0374
     10 H          -0.2704    0.3060    1.7693 H       1  LIG1        0.0278
     11 H           1.0180   -0.8069    1.3118 H       1  LIG1        0.0278
     12 H          -0.5577   -1.4436    1.7940 H       1  LIG1        0.0278
     13 C          -0.5375    1.9305   -0.5401 C.ar    1  LIG1        0.0444
     14 C           0.5807    2.5215    0.0050 C.ar    1  LIG1        0.0705
     15 C           0.4445    3.9264    0.2684 C.ar    1  LIG1       -0.0172
     16 C          -0.7917    4.3801   -0.1110 C.ar    1  LIG1        0.0319
     17 S          -1.7851    3.1024   -0.7568 S.2     1  LIG1       -0.0856
     18 N           2.7735    1.2425    0.4887 N.1     1  LIG1       -0.1908
     19 C           1.7900    1.8092    0.2638 C.1     1  LIG1        0.1006
     20 C           1.5359    4.7398    0.8917 C.3     1  LIG1       -0.0374
     21 H           1.1366    5.6365    1.3675 H       1  LIG1        0.0278
     22 H           2.2630    5.0597    0.1400 H       1  LIG1        0.0278
     23 H           2.0682    4.1533    1.6436 H       1  LIG1        0.0278
     24 C          -1.3251    5.7351   -0.0296 C.ar    1  LIG1        0.0444
     25 C          -0.7686    6.9041   -0.4992 C.ar    1  LIG1        0.0705
     26 C          -1.5562    8.0794   -0.2550 C.ar    1  LIG1       -0.0172
     27 C          -2.7248    7.7644    0.3879 C.ar    1  LIG1        0.0319
     28 S          -2.8494    6.0573    0.7123 S.2     1  LIG1       -0.0856
     29 N           1.4876    6.9965   -1.7560 N.1     1  LIG1       -0.1908
     30 C           0.4753    6.9474   -1.1975 C.1     1  LIG1        0.1006
     31 C          -1.1087    9.4501   -0.6581 C.3     1  LIG1       -0.0374
     32 H          -1.6011   10.2164   -0.0578 H       1  LIG1        0.0278
     33 H          -1.3476    9.6471   -1.7070 H       1  LIG1        0.0278
     34 H          -0.0282    9.5518   -0.5362 H       1  LIG1        0.0278
     35 C          -3.8019    8.6566    0.8019 C.ar    1  LIG1        0.0438
     36 C          -4.4825    9.5843    0.0442 C.ar    1  LIG1        0.0699
     37 C          -5.5004   10.2991    0.7659 C.ar    1  LIG1       -0.0255
     38 C          -5.5654    9.8766    2.0562 C.ar    1  LIG1       -0.0196
     39 S          -4.4127    8.6481    2.4201 S.2     1  LIG1       -0.0945
     40 H          -6.2385   10.2281    2.8252 H       1  LIG1        0.0696
     41 N          -4.0574    9.9676   -2.4757 N.1     1  LIG1       -0.1908
     42 C          -4.2417    9.7875   -1.3474 C.1     1  LIG1        0.1006
     43 C          -6.3672   11.3523    0.1472 C.3     1  LIG1       -0.0380
     44 H          -7.0828   11.7433    0.8718 H       1  LIG1        0.0278
     45 H          -6.9253   10.9521   -0.7039 H       1  LIG1        0.0278
     46 H          -5.7666   12.1870   -0.2252 H       1  LIG1        0.0278
@<TRIPOS>BOND
     1     6     1    1
     2     5     1   ar
     3     5     4   ar
     4    41    42    3
     5     1     2   ar
     6    29    30    3
     7    33    31    1
     8    42    36    1
     9    30    25    1
    10     4    13    1
    11     4     3   ar
    12     2     8    1
    13     2     3   ar
    14    17    13   ar
    15    17    16   ar
    16    45    43    1
    17    31    34    1
    18    31    26    1
    19    31    32    1
    20    13    14   ar
    21    25    26   ar
    22    25    24   ar
    23     8     7    3
    24    26    27   ar
    25    46    43    1
    26     3     9    1
    27    16    24    1
    28    16    15   ar
    29    24    28   ar
    30    14    19    1
    31    14    15   ar
    32    36    37   ar
    33    36    35   ar
    34    22    20    1
    35    43    37    1
    36    43    44    1
    37    19    18    3
    38    15    20    1
    39    27    28   ar
    40    27    35    1
    41    37    38   ar
    42    35    39   ar
    43    20    21    1
    44    20    23    1
    45     9    11    1
    46     9    10    1
    47     9    12    1
    48    38    39   ar
    49    38    40    1
