@<TRIPOS>MOLECULE
mol_data/opt/cam/geoms/mol2/5di5di-5di-.out
 35 37 0 0 0
SMALL
GASTEIGER

@<TRIPOS>ATOM
      1 C          -1.8054   -1.6833   -1.4266 C.ar    1  LIG1       -0.0061
      2 C          -0.8516   -1.8547   -0.4622 C.ar    1  LIG1        0.0623
      3 C          -0.3409   -0.6230    0.0756 C.ar    1  LIG1       -0.0178
      4 C          -0.9382    0.4556   -0.5245 C.ar    1  LIG1        0.0313
      5 S          -2.1090   -0.0307   -1.7231 S.2     1  LIG1       -0.0945
      6 H          -2.3332   -2.4548   -1.9680 H       1  LIG1        0.0706
      7 N          -0.0703   -4.1747    0.3694 N.1     1  LIG1       -0.1908
      8 C          -0.4216   -3.1405   -0.0114 C.1     1  LIG1        0.1000
      9 C           0.6827   -0.5784    1.1672 C.3     1  LIG1       -0.0374
     10 H           0.6343    0.3633    1.7159 H       1  LIG1        0.0278
     11 H           1.6932   -0.6719    0.7595 H       1  LIG1        0.0278
     12 H           0.5278   -1.4001    1.8698 H       1  LIG1        0.0278
     13 C          -0.7093    1.8738   -0.2732 C.ar    1  LIG1        0.0444
     14 C           0.4843    2.5605   -0.2605 C.ar    1  LIG1        0.0705
     15 C           0.3633    3.9618    0.0292 C.ar    1  LIG1       -0.0172
     16 C          -0.9479    4.3157    0.2113 C.ar    1  LIG1        0.0319
     17 S          -2.0179    2.9495    0.0561 S.2     1  LIG1       -0.0856
     18 N           2.7670    1.4535   -0.7526 N.1     1  LIG1       -0.1908
     19 C           1.7404    1.9429   -0.5387 C.1     1  LIG1        0.1006
     20 C           1.5480    4.8725    0.1231 C.3     1  LIG1       -0.0374
     21 H           1.3209    5.7517    0.7276 H       1  LIG1        0.0278
     22 H           1.8530    5.2216   -0.8675 H       1  LIG1        0.0278
     23 H           2.3973    4.3513    0.5701 H       1  LIG1        0.0278
     24 C          -1.4997    5.6333    0.5058 C.ar    1  LIG1        0.0438
     25 C          -1.2828    6.8204   -0.1589 C.ar    1  LIG1        0.0699
     26 C          -1.9931    7.9418    0.3945 C.ar    1  LIG1       -0.0255
     27 C          -2.7410    7.5609    1.4636 C.ar    1  LIG1       -0.0196
     28 S          -2.5908    5.8824    1.8248 S.2     1  LIG1       -0.0945
     29 H          -3.3814    8.1870    2.0686 H       1  LIG1        0.0696
     30 N           0.1885    7.0353   -2.2722 N.1     1  LIG1       -0.1908
     31 C          -0.4695    6.9279   -1.3261 C.1     1  LIG1        0.1006
     32 C          -1.9118    9.3290   -0.1647 C.3     1  LIG1       -0.0380
     33 H          -2.5454   10.0145    0.3999 H       1  LIG1        0.0278
     34 H          -2.2306    9.3504   -1.2106 H       1  LIG1        0.0278
     35 H          -0.8858    9.7065   -0.1329 H       1  LIG1        0.0278
@<TRIPOS>BOND
     1    30    31    3
     2     6     1    1
     3     5     1   ar
     4     5     4   ar
     5     1     2   ar
     6    31    25    1
     7    34    32    1
     8    22    20    1
     9    18    19    3
    10    19    14    1
    11     4    13    1
    12     4     3   ar
    13     2     8    1
    14     2     3   ar
    15    13    14   ar
    16    13    17   ar
    17    14    15   ar
    18    32    35    1
    19    32    26    1
    20    32    33    1
    21    25    26   ar
    22    25    24   ar
    23     8     7    3
    24    15    20    1
    25    15    16   ar
    26    17    16   ar
    27     3     9    1
    28    20    23    1
    29    20    21    1
    30    16    24    1
    31    26    27   ar
    32    24    28   ar
    33    11     9    1
    34     9    10    1
    35     9    12    1
    36    27    28   ar
    37    27    29    1
