@<TRIPOS>MOLECULE
mol_data/opt/cam/geoms/mol2/5di5di-5di5di-.out
 46 49 0 0 0
SMALL
GASTEIGER

@<TRIPOS>ATOM
      1 C          -1.2812   -1.5041   -2.2270 C.ar    1  LIG1       -0.0061
      2 C          -0.8377   -1.7662   -0.9605 C.ar    1  LIG1        0.0623
      3 C          -0.5204   -0.5877   -0.2006 C.ar    1  LIG1       -0.0178
      4 C          -0.7351    0.5440   -0.9443 C.ar    1  LIG1        0.0313
      5 S          -1.3206    0.1716   -2.5451 S.2     1  LIG1       -0.0945
      6 H          -1.5814   -2.2224   -2.9759 H       1  LIG1        0.0706
      7 N          -0.6376   -4.1532    0.0124 N.1     1  LIG1       -0.1908
      8 C          -0.7254   -3.0888   -0.4320 C.1     1  LIG1        0.1000
      9 C          -0.0524   -0.6425    1.2204 C.3     1  LIG1       -0.0374
     10 H          -0.2606    0.2929    1.7419 H       1  LIG1        0.0278
     11 H           1.0264   -0.8157    1.2702 H       1  LIG1        0.0278
     12 H          -0.5470   -1.4570    1.7541 H       1  LIG1        0.0278
     13 C          -0.5384    1.9353   -0.5536 C.ar    1  LIG1        0.0444
     14 C           0.5819    2.5226   -0.0087 C.ar    1  LIG1        0.0705
     15 C           0.4461    3.9253    0.2662 C.ar    1  LIG1       -0.0172
     16 C          -0.7919    4.3814   -0.1044 C.ar    1  LIG1        0.0319
     17 S          -1.7875    3.1082   -0.7558 S.2     1  LIG1       -0.0856
     18 N           2.7773    1.2410    0.4555 N.1     1  LIG1       -0.1908
     19 C           1.7926    1.8088    0.2393 C.1     1  LIG1        0.1006
     20 C           1.5398    4.7344    0.8911 C.3     1  LIG1       -0.0374
     21 H           1.1422    5.6272    1.3757 H       1  LIG1        0.0278
     22 H           2.2635    5.0605    0.1388 H       1  LIG1        0.0278
     23 H           2.0756    4.1423    1.6362 H       1  LIG1        0.0278
     24 C          -1.3256    5.7354   -0.0101 C.ar    1  LIG1        0.0444
     25 C          -0.7717    6.9083   -0.4730 C.ar    1  LIG1        0.0705
     26 C          -1.5588    8.0812   -0.2161 C.ar    1  LIG1       -0.0172
     27 C          -2.7244    7.7606    0.4293 C.ar    1  LIG1        0.0319
     28 S          -2.8469    6.0510    0.7408 S.2     1  LIG1       -0.0856
     29 N           1.4791    7.0117   -1.7386 N.1     1  LIG1       -0.1908
     30 C           0.4692    6.9577   -1.1762 C.1     1  LIG1        0.1006
     31 C          -1.1137    9.4553   -0.6105 C.3     1  LIG1       -0.0374
     32 H          -1.6039   10.2167   -0.0021 H       1  LIG1        0.0278
     33 H          -1.3572    9.6603   -1.6568 H       1  LIG1        0.0278
     34 H          -0.0327    9.5566   -0.4924 H       1  LIG1        0.0278
     35 C          -3.8002    8.6491    0.8548 C.ar    1  LIG1        0.0438
     36 C          -4.4845    9.5822    0.1073 C.ar    1  LIG1        0.0699
     37 C          -5.4996   10.2909    0.8389 C.ar    1  LIG1       -0.0255
     38 C          -5.5589    9.8583    2.1261 C.ar    1  LIG1       -0.0196
     39 S          -4.4040    8.6276    2.4755 S.2     1  LIG1       -0.0945
     40 H          -6.2289   10.2034    2.9008 H       1  LIG1        0.0696
     41 N          -4.0704    9.9855   -2.4113 N.1     1  LIG1       -0.1908
     42 C          -4.2498    9.7964   -1.2836 C.1     1  LIG1        0.1006
     43 C          -6.3696   11.3484    0.2322 C.3     1  LIG1       -0.0380
     44 H          -7.0822   11.7335    0.9630 H       1  LIG1        0.0278
     45 H          -6.9314   10.9545   -0.6195 H       1  LIG1        0.0278
     46 H          -5.7710   12.1862   -0.1365 H       1  LIG1        0.0278
@<TRIPOS>BOND
     1     6     1    1
     2     5     1   ar
     3     5     4   ar
     4    41    42    3
     5     1     2   ar
     6    29    30    3
     7    33    31    1
     8    42    36    1
     9    30    25    1
    10     2     8    1
    11     2     3   ar
    12     4    13    1
    13     4     3   ar
    14    17    13   ar
    15    17    16   ar
    16    45    43    1
    17    31    34    1
    18    31    26    1
    19    31    32    1
    20    13    14   ar
    21    25    26   ar
    22    25    24   ar
    23     8     7    3
    24    26    27   ar
    25     3     9    1
    26    46    43    1
    27    16    24    1
    28    16    15   ar
    29    24    28   ar
    30    14    19    1
    31    14    15   ar
    32    36    37   ar
    33    36    35   ar
    34    22    20    1
    35    43    37    1
    36    43    44    1
    37    19    18    3
    38    15    20    1
    39    27    28   ar
    40    27    35    1
    41    37    38   ar
    42    35    39   ar
    43    20    21    1
    44    20    23    1
    45     9    11    1
    46     9    10    1
    47     9    12    1
    48    38    39   ar
    49    38    40    1
