@<TRIPOS>MOLECULE
mol_data/opt/cam/geoms/mol2/5di5di-5di5di.out
 46 49 0 0 0
SMALL
GASTEIGER

@<TRIPOS>ATOM
      1 C          -1.3046   -1.5090   -2.2118 C.ar    1  LIG1       -0.0061
      2 C          -0.8578   -1.7698   -0.9462 C.ar    1  LIG1        0.0623
      3 C          -0.5352   -0.5908   -0.1894 C.ar    1  LIG1       -0.0178
      4 C          -0.7494    0.5401   -0.9345 C.ar    1  LIG1        0.0313
      5 S          -1.3408    0.1662   -2.5328 S.2     1  LIG1       -0.0945
      6 H          -1.6089   -2.2278   -2.9584 H       1  LIG1        0.0706
      7 N          -0.6607   -4.1556    0.0305 N.1     1  LIG1       -0.1908
      8 C          -0.7472   -3.0918   -0.4156 C.1     1  LIG1        0.1000
      9 C          -0.0630   -0.6442    1.2303 C.3     1  LIG1       -0.0374
     10 H          -0.2672    0.2927    1.7507 H       1  LIG1        0.0278
     11 H           1.0155   -0.8200    1.2770 H       1  LIG1        0.0278
     12 H          -0.5580   -1.4564    1.7670 H       1  LIG1        0.0278
     13 C          -0.5480    1.9316   -0.5469 C.ar    1  LIG1        0.0444
     14 C           0.5754    2.5171   -0.0066 C.ar    1  LIG1        0.0705
     15 C           0.4440    3.9206    0.2662 C.ar    1  LIG1       -0.0172
     16 C          -0.7940    4.3791   -0.1013 C.ar    1  LIG1        0.0319
     17 S          -1.7948    3.1073   -0.7473 S.2     1  LIG1       -0.0856
     18 N           2.7691    1.2308    0.4531 N.1     1  LIG1       -0.1908
     19 C           1.7851    1.8008    0.2389 C.1     1  LIG1        0.1006
     20 C           1.5417    4.7281    0.8863 C.3     1  LIG1       -0.0374
     21 H           1.1477    5.6227    1.3704 H       1  LIG1        0.0278
     22 H           2.2638    5.0511    0.1311 H       1  LIG1        0.0278
     23 H           2.0783    4.1360    1.6307 H       1  LIG1        0.0278
     24 C          -1.3240    5.7346   -0.0078 C.ar    1  LIG1        0.0444
     25 C          -0.7687    6.9053   -0.4746 C.ar    1  LIG1        0.0705
     26 C          -1.5520    8.0807   -0.2174 C.ar    1  LIG1       -0.0172
     27 C          -2.7164    7.7641    0.4322 C.ar    1  LIG1        0.0319
     28 S          -2.8421    6.0554    0.7473 S.2     1  LIG1       -0.0856
     29 N           1.4783    7.0008   -1.7474 N.1     1  LIG1       -0.1908
     30 C           0.4702    6.9503   -1.1817 C.1     1  LIG1        0.1006
     31 C          -1.1047    9.4529   -0.6156 C.3     1  LIG1       -0.0374
     32 H          -1.5911   10.2166   -0.0071 H       1  LIG1        0.0278
     33 H          -1.3510    9.6566   -1.6615 H       1  LIG1        0.0278
     34 H          -0.0231    9.5517   -0.5011 H       1  LIG1        0.0278
     35 C          -3.7886    8.6560    0.8595 C.ar    1  LIG1        0.0438
     36 C          -4.4729    9.5896    0.1124 C.ar    1  LIG1        0.0699
     37 C          -5.4840   10.3021    0.8460 C.ar    1  LIG1       -0.0255
     38 C          -5.5403    9.8720    2.1342 C.ar    1  LIG1       -0.0196
     39 S          -4.3874    8.6390    2.4821 S.2     1  LIG1       -0.0945
     40 H          -6.2070   10.2201    2.9103 H       1  LIG1        0.0696
     41 N          -4.0657    9.9872   -2.4081 N.1     1  LIG1       -0.1908
     42 C          -4.2421    9.8007   -1.2796 C.1     1  LIG1        0.1006
     43 C          -6.3532   11.3607    0.2400 C.3     1  LIG1       -0.0380
     44 H          -7.0627   11.7488    0.9723 H       1  LIG1        0.0278
     45 H          -6.9184   10.9668   -0.6093 H       1  LIG1        0.0278
     46 H          -5.7537   12.1965   -0.1318 H       1  LIG1        0.0278
@<TRIPOS>BOND
     1     6     1    1
     2     5     1   ar
     3     5     4   ar
     4    41    42    3
     5     1     2   ar
     6    29    30    3
     7    33    31    1
     8    42    36    1
     9    30    25    1
    10     2     8    1
    11     2     3   ar
    12     4    13    1
    13     4     3   ar
    14    17    13   ar
    15    17    16   ar
    16    31    34    1
    17    31    26    1
    18    31    32    1
    19    45    43    1
    20    13    14   ar
    21    25    26   ar
    22    25    24   ar
    23     8     7    3
    24    26    27   ar
    25     3     9    1
    26    46    43    1
    27    16    24    1
    28    16    15   ar
    29    24    28   ar
    30    14    19    1
    31    14    15   ar
    32    36    37   ar
    33    36    35   ar
    34    22    20    1
    35    19    18    3
    36    43    37    1
    37    43    44    1
    38    15    20    1
    39    27    28   ar
    40    27    35    1
    41    37    38   ar
    42    35    39   ar
    43    20    21    1
    44    20    23    1
    45     9    11    1
    46     9    10    1
    47     9    12    1
    48    38    39   ar
    49    38    40    1
