@<TRIPOS>MOLECULE
mol_data/opt/cam/geoms/mol2/5di5di5di.out
 35 37 0 0 0
SMALL
GASTEIGER

@<TRIPOS>ATOM
      1 C          -1.7881   -1.6956   -1.4102 C.ar    1  LIG1       -0.0061
      2 C          -0.8375   -1.8584   -0.4411 C.ar    1  LIG1        0.0623
      3 C          -0.3317   -0.6220    0.0905 C.ar    1  LIG1       -0.0178
      4 C          -0.9293    0.4511   -0.5189 C.ar    1  LIG1        0.0313
      5 S          -2.0945   -0.0458   -1.7186 S.2     1  LIG1       -0.0945
      6 H          -2.3121   -2.4719   -1.9484 H       1  LIG1        0.0706
      7 N          -0.0539   -4.1712    0.4086 N.1     1  LIG1       -0.1908
      8 C          -0.4062   -3.1402    0.0197 C.1     1  LIG1        0.1000
      9 C           0.6877   -0.5679    1.1855 C.3     1  LIG1       -0.0374
     10 H           0.6351    0.3773    1.7279 H       1  LIG1        0.0278
     11 H           1.6999   -0.6617    0.7822 H       1  LIG1        0.0278
     12 H           0.5322   -1.3853    1.8930 H       1  LIG1        0.0278
     13 C          -0.7047    1.8715   -0.2760 C.ar    1  LIG1        0.0444
     14 C           0.4873    2.5612   -0.2634 C.ar    1  LIG1        0.0705
     15 C           0.3619    3.9640    0.0167 C.ar    1  LIG1       -0.0172
     16 C          -0.9508    4.3160    0.1916 C.ar    1  LIG1        0.0319
     17 S          -2.0170    2.9462    0.0414 S.2     1  LIG1       -0.0856
     18 N           2.7744    1.4564   -0.7398 N.1     1  LIG1       -0.1908
     19 C           1.7459    1.9447   -0.5329 C.1     1  LIG1        0.1006
     20 C           1.5442    4.8780    0.1089 C.3     1  LIG1       -0.0374
     21 H           1.3127    5.7607    0.7069 H       1  LIG1        0.0278
     22 H           1.8520    5.2215   -0.8827 H       1  LIG1        0.0278
     23 H           2.3930    4.3618    0.5625 H       1  LIG1        0.0278
     24 C          -1.5068    5.6342    0.4755 C.ar    1  LIG1        0.0438
     25 C          -1.2901    6.8174   -0.1962 C.ar    1  LIG1        0.0699
     26 C          -2.0051    7.9408    0.3472 C.ar    1  LIG1       -0.0255
     27 C          -2.7561    7.5651    1.4160 C.ar    1  LIG1       -0.0196
     28 S          -2.6033    5.8892    1.7887 S.2     1  LIG1       -0.0945
     29 H          -3.4002    8.1935    2.0145 H       1  LIG1        0.0696
     30 N           0.1884    7.0220   -2.3054 N.1     1  LIG1       -0.1908
     31 C          -0.4728    6.9192   -1.3611 C.1     1  LIG1        0.1006
     32 C          -1.9250    9.3244   -0.2207 C.3     1  LIG1       -0.0380
     33 H          -2.5624   10.0121    0.3370 H       1  LIG1        0.0278
     34 H          -2.2399    9.3382   -1.2680 H       1  LIG1        0.0278
     35 H          -0.9001    9.7046   -0.1875 H       1  LIG1        0.0278
@<TRIPOS>BOND
     1    30    31    3
     2     6     1    1
     3     5     1   ar
     4     5     4   ar
     5     1     2   ar
     6    31    25    1
     7    34    32    1
     8    22    20    1
     9    18    19    3
    10    19    14    1
    11     4    13    1
    12     4     3   ar
    13     2     8    1
    14     2     3   ar
    15    13    14   ar
    16    13    17   ar
    17    14    15   ar
    18    32    35    1
    19    32    33    1
    20    32    26    1
    21    25    26   ar
    22    25    24   ar
    23    15    20    1
    24    15    16   ar
    25     8     7    3
    26    17    16   ar
    27     3     9    1
    28    20    23    1
    29    20    21    1
    30    16    24    1
    31    26    27   ar
    32    24    28   ar
    33    11     9    1
    34     9    10    1
    35     9    12    1
    36    27    28   ar
    37    27    29    1
