@<TRIPOS>MOLECULE
mol_data/opt/cam/geoms/mol2/5di5di5di-5di-.out
 46 49 0 0 0
SMALL
GASTEIGER

@<TRIPOS>ATOM
      1 C          -1.2724   -1.5295   -2.1745 C.ar    1  LIG1       -0.0061
      2 C          -0.8333   -1.7768   -0.9035 C.ar    1  LIG1        0.0623
      3 C          -0.5188   -0.5896   -0.1562 C.ar    1  LIG1       -0.0178
      4 C          -0.7308    0.5334   -0.9139 C.ar    1  LIG1        0.0313
      5 S          -1.3104    0.1423   -2.5122 S.2     1  LIG1       -0.0945
      6 H          -1.5698   -2.2565   -2.9161 H       1  LIG1        0.0706
      7 N          -0.6366   -4.1524    0.0978 N.1     1  LIG1       -0.1908
      8 C          -0.7228   -3.0932   -0.3593 C.1     1  LIG1        0.1000
      9 C          -0.0560   -0.6279    1.2671 C.3     1  LIG1       -0.0374
     10 H          -0.2672    0.3131    1.7772 H       1  LIG1        0.0278
     11 H           1.0227   -0.7993    1.3228 H       1  LIG1        0.0278
     12 H          -0.5517   -1.4368    1.8081 H       1  LIG1        0.0278
     13 C          -0.5356    1.9291   -0.5386 C.ar    1  LIG1        0.0444
     14 C           0.5826    2.5228    0.0036 C.ar    1  LIG1        0.0705
     15 C           0.4456    3.9286    0.2619 C.ar    1  LIG1       -0.0172
     16 C          -0.7911    4.3802   -0.1187 C.ar    1  LIG1        0.0319
     17 S          -1.7840    3.0995   -0.7589 S.2     1  LIG1       -0.0856
     18 N           2.7766    1.2473    0.4908 N.1     1  LIG1       -0.1908
     19 C           1.7925    1.8123    0.2643 C.1     1  LIG1        0.1006
     20 C           1.5368    4.7450    0.8816 C.3     1  LIG1       -0.0374
     21 H           1.1370    5.6424    1.3558 H       1  LIG1        0.0278
     22 H           2.2624    5.0641    0.1281 H       1  LIG1        0.0278
     23 H           2.0709    4.1611    1.6343 H       1  LIG1        0.0278
     24 C          -1.3253    5.7351   -0.0418 C.ar    1  LIG1        0.0444
     25 C          -0.7699    6.9028   -0.5158 C.ar    1  LIG1        0.0705
     26 C          -1.5582    8.0785   -0.2752 C.ar    1  LIG1       -0.0172
     27 C          -2.7263    7.7648    0.3692 C.ar    1  LIG1        0.0319
     28 S          -2.8495    6.0588    0.6997 S.2     1  LIG1       -0.0856
     29 N           1.4855    6.9927   -1.7742 N.1     1  LIG1       -0.1908
     30 C           0.4736    6.9447   -1.2149 C.1     1  LIG1        0.1006
     31 C          -1.1118    9.4481   -0.6832 C.3     1  LIG1       -0.0374
     32 H          -1.6030   10.2161   -0.0840 H       1  LIG1        0.0278
     33 H          -1.3530    9.6421   -1.7322 H       1  LIG1        0.0278
     34 H          -0.0310    9.5503   -0.5640 H       1  LIG1        0.0278
     35 C          -3.8037    8.6578    0.7809 C.ar    1  LIG1        0.0438
     36 C          -4.4852    9.5827    0.0205 C.ar    1  LIG1        0.0699
     37 C          -5.5030   10.2993    0.7406 C.ar    1  LIG1       -0.0255
     38 C          -5.5671    9.8808    2.0322 C.ar    1  LIG1       -0.0196
     39 S          -4.4137    8.6540    2.3993 S.2     1  LIG1       -0.0945
     40 H          -6.2400   10.2345    2.8005 H       1  LIG1        0.0696
     41 N          -4.0621    9.9584   -2.5008 N.1     1  LIG1       -0.1908
     42 C          -4.2455    9.7817   -1.3718 C.1     1  LIG1        0.1006
     43 C          -6.3705   11.3503    0.1190 C.3     1  LIG1       -0.0380
     44 H          -7.0867   11.7425    0.8425 H       1  LIG1        0.0278
     45 H          -6.9280   10.9476   -0.7313 H       1  LIG1        0.0278
     46 H          -5.7705   12.1846   -0.2553 H       1  LIG1        0.0278
@<TRIPOS>BOND
     1     6     1    1
     2     5     1   ar
     3     5     4   ar
     4    41    42    3
     5     1     2   ar
     6    29    30    3
     7    33    31    1
     8    42    36    1
     9    30    25    1
    10     4    13    1
    11     4     3   ar
    12     2     8    1
    13     2     3   ar
    14    17    13   ar
    15    17    16   ar
    16    45    43    1
    17    31    34    1
    18    31    26    1
    19    31    32    1
    20    13    14   ar
    21    25    26   ar
    22    25    24   ar
    23     8     7    3
    24    26    27   ar
    25    46    43    1
    26     3     9    1
    27    16    24    1
    28    16    15   ar
    29    24    28   ar
    30    14    15   ar
    31    14    19    1
    32    36    37   ar
    33    36    35   ar
    34    43    37    1
    35    43    44    1
    36    22    20    1
    37    15    20    1
    38    19    18    3
    39    27    28   ar
    40    27    35    1
    41    37    38   ar
    42    35    39   ar
    43    20    21    1
    44    20    23    1
    45     9    11    1
    46     9    10    1
    47     9    12    1
    48    38    39   ar
    49    38    40    1
