@<TRIPOS>MOLECULE
mol_data/opt/cam/geoms/mol2/5di5di5di-.out
 35 37 0 0 0
SMALL
GASTEIGER

@<TRIPOS>ATOM
      1 C          -1.7796   -1.6881   -1.4389 C.ar    1  LIG1       -0.0061
      2 C          -0.8378   -1.8561   -0.4622 C.ar    1  LIG1        0.0623
      3 C          -0.3358   -0.6225    0.0795 C.ar    1  LIG1       -0.0178
      4 C          -0.9271    0.4539   -0.5302 C.ar    1  LIG1        0.0313
      5 S          -2.0819   -0.0366   -1.7425 S.2     1  LIG1       -0.0945
      6 H          -2.2994   -2.4614   -1.9853 H       1  LIG1        0.0706
      7 N          -0.0636   -4.1733    0.3838 N.1     1  LIG1       -0.1908
      8 C          -0.4116   -3.1403   -0.0035 C.1     1  LIG1        0.1000
      9 C           0.6739   -0.5743    1.1838 C.3     1  LIG1       -0.0374
     10 H           0.6172    0.3685    1.7300 H       1  LIG1        0.0278
     11 H           1.6896   -0.6670    0.7890 H       1  LIG1        0.0278
     12 H           0.5115   -1.3948    1.8861 H       1  LIG1        0.0278
     13 C          -0.7035    1.8730   -0.2788 C.ar    1  LIG1        0.0444
     14 C           0.4889    2.5615   -0.2525 C.ar    1  LIG1        0.0705
     15 C           0.3621    3.9632    0.0329 C.ar    1  LIG1       -0.0172
     16 C          -0.9518    4.3155    0.1977 C.ar    1  LIG1        0.0319
     17 S          -2.0177    2.9473    0.0318 S.2     1  LIG1       -0.0856
     18 N           2.7792    1.4570   -0.7136 N.1     1  LIG1       -0.1908
     19 C           1.7493    1.9453   -0.5137 C.1     1  LIG1        0.1006
     20 C           1.5442    4.8758    0.1398 C.3     1  LIG1       -0.0374
     21 H           1.3082    5.7559    0.7397 H       1  LIG1        0.0278
     22 H           1.8611    5.2235   -0.8475 H       1  LIG1        0.0278
     23 H           2.3886    4.3568    0.5985 H       1  LIG1        0.0278
     24 C          -1.5092    5.6328    0.4827 C.ar    1  LIG1        0.0438
     25 C          -1.2857    6.8189   -0.1816 C.ar    1  LIG1        0.0699
     26 C          -2.0046    7.9404    0.3606 C.ar    1  LIG1       -0.0255
     27 C          -2.7653    7.5604    1.4209 C.ar    1  LIG1       -0.0196
     28 S          -2.6172    5.8828    1.7873 S.2     1  LIG1       -0.0945
     29 H          -3.4143    8.1867    2.0165 H       1  LIG1        0.0696
     30 N           0.2117    7.0319   -2.2767 N.1     1  LIG1       -0.1908
     31 C          -0.4580    6.9253   -1.3387 C.1     1  LIG1        0.1006
     32 C          -1.9184    9.3265   -0.2003 C.3     1  LIG1       -0.0380
     33 H          -2.5600   10.0122    0.3549 H       1  LIG1        0.0278
     34 H          -2.2241    9.3454   -1.2502 H       1  LIG1        0.0278
     35 H          -0.8934    9.7056   -0.1564 H       1  LIG1        0.0278
@<TRIPOS>BOND
     1    30    31    3
     2     6     1    1
     3     5     1   ar
     4     5     4   ar
     5     1     2   ar
     6    31    25    1
     7    34    32    1
     8    22    20    1
     9    18    19    3
    10     4    13    1
    11     4     3   ar
    12    19    14    1
    13     2     8    1
    14     2     3   ar
    15    13    14   ar
    16    13    17   ar
    17    14    15   ar
    18    32    35    1
    19    32    33    1
    20    32    26    1
    21    25    26   ar
    22    25    24   ar
    23     8     7    3
    24    17    16   ar
    25    15    20    1
    26    15    16   ar
    27     3     9    1
    28    20    23    1
    29    20    21    1
    30    16    24    1
    31    26    27   ar
    32    24    28   ar
    33    11     9    1
    34     9    10    1
    35     9    12    1
    36    27    28   ar
    37    27    29    1
