@<TRIPOS>MOLECULE
mol_data/opt/cam/geoms/mol2/5di5di-5di.out
 35 37 0 0 0
SMALL
GASTEIGER

@<TRIPOS>ATOM
      1 C          -1.8035   -1.6818   -1.4393 C.ar    1  LIG1       -0.0061
      2 C          -0.8518   -1.8542   -0.4730 C.ar    1  LIG1        0.0623
      3 C          -0.3420   -0.6230    0.0669 C.ar    1  LIG1       -0.0178
      4 C          -0.9378    0.4561   -0.5336 C.ar    1  LIG1        0.0313
      5 S          -2.1060   -0.0289   -1.7351 S.2     1  LIG1       -0.0945
      6 H          -2.3303   -2.4527   -1.9825 H       1  LIG1        0.0706
      7 N          -0.0729   -4.1751    0.3584 N.1     1  LIG1       -0.1908
      8 C          -0.4232   -3.1405   -0.0224 C.1     1  LIG1        0.1000
      9 C           0.6793   -0.5796    1.1607 C.3     1  LIG1       -0.0374
     10 H           0.6298    0.3616    1.7102 H       1  LIG1        0.0278
     11 H           1.6906   -0.6729    0.7551 H       1  LIG1        0.0278
     12 H           0.5228   -1.4019    1.8623 H       1  LIG1        0.0278
     13 C          -0.7090    1.8741   -0.2805 C.ar    1  LIG1        0.0444
     14 C           0.4847    2.5606   -0.2648 C.ar    1  LIG1        0.0705
     15 C           0.3635    3.9616    0.0259 C.ar    1  LIG1       -0.0172
     16 C          -0.9481    4.3157    0.2055 C.ar    1  LIG1        0.0319
     17 S          -2.0181    2.9498    0.0469 S.2     1  LIG1       -0.0856
     18 N           2.7682    1.4534   -0.7529 N.1     1  LIG1       -0.1908
     19 C           1.7413    1.9429   -0.5409 C.1     1  LIG1        0.1006
     20 C           1.5482    4.8719    0.1230 C.3     1  LIG1       -0.0374
     21 H           1.3200    5.7507    0.7278 H       1  LIG1        0.0278
     22 H           1.8554    5.2218   -0.8666 H       1  LIG1        0.0278
     23 H           2.3964    4.3502    0.5715 H       1  LIG1        0.0278
     24 C          -1.5002    5.6332    0.5000 C.ar    1  LIG1        0.0438
     25 C          -1.2815    6.8207   -0.1633 C.ar    1  LIG1        0.0699
     26 C          -1.9927    7.9419    0.3895 C.ar    1  LIG1       -0.0255
     27 C          -2.7430    7.5603    1.4567 C.ar    1  LIG1       -0.0196
     28 S          -2.5939    5.8814    1.8168 S.2     1  LIG1       -0.0945
     29 H          -3.3845    8.1860    2.0609 H       1  LIG1        0.0696
     30 N           0.1942    7.0370   -2.2733 N.1     1  LIG1       -0.1908
     31 C          -0.4658    6.9290   -1.3287 C.1     1  LIG1        0.1006
     32 C          -1.9100    9.3295   -0.1683 C.3     1  LIG1       -0.0380
     33 H          -2.5446   10.0147    0.3955 H       1  LIG1        0.0278
     34 H          -2.2265    9.3518   -1.2149 H       1  LIG1        0.0278
     35 H          -0.8840    9.7067   -0.1341 H       1  LIG1        0.0278
@<TRIPOS>BOND
     1    30    31    3
     2     6     1    1
     3     5     1   ar
     4     5     4   ar
     5     1     2   ar
     6    31    25    1
     7    34    32    1
     8    22    20    1
     9    18    19    3
    10    19    14    1
    11     4    13    1
    12     4     3   ar
    13     2     8    1
    14     2     3   ar
    15    13    14   ar
    16    13    17   ar
    17    14    15   ar
    18    32    35    1
    19    32    26    1
    20    32    33    1
    21    25    26   ar
    22    25    24   ar
    23     8     7    3
    24    15    20    1
    25    15    16   ar
    26    17    16   ar
    27     3     9    1
    28    20    23    1
    29    20    21    1
    30    16    24    1
    31    26    27   ar
    32    24    28   ar
    33    11     9    1
    34     9    10    1
    35     9    12    1
    36    27    28   ar
    37    27    29    1
