@<TRIPOS>MOLECULE
mol_data/opt/cam/geoms/mol2/5dl.out
 14 14 0 0 0
SMALL
GASTEIGER

@<TRIPOS>ATOM
      1 C          -2.2219   -1.6955    0.0003 C.ar    1  LIG1       -0.0033
      2 C          -0.8511   -1.7746   -0.0003 C.ar    1  LIG1        0.1003
      3 C          -0.2348   -0.4665   -0.0003 C.ar    1  LIG1        0.1444
      4 C          -1.1692    0.5287    0.0003 C.ar    1  LIG1        0.0187
      5 S          -2.7753   -0.0851    0.0008 S.2     1  LIG1       -0.1000
      6 H          -2.9106   -2.5273    0.0004 H       1  LIG1        0.0707
      7 H          -0.9689    1.5887    0.0004 H       1  LIG1        0.0730
      8 N           0.2759   -4.1005   -0.0012 N.1     1  LIG1       -0.1907
      9 C          -0.2057   -3.0480   -0.0008 C.1     1  LIG1        0.1034
     10 O           1.0752   -0.1473   -0.0008 O.3     1  LIG1       -0.4933
     11 C           2.0591   -1.1703   -0.0011 C.3     1  LIG1        0.0789
     12 H           3.0177   -0.6525   -0.0013 H       1  LIG1        0.0660
     13 H           1.9885   -1.7990    0.8907 H       1  LIG1        0.0660
     14 H           1.9881   -1.7989   -0.8929 H       1  LIG1        0.0660
@<TRIPOS>BOND
     1    14    11    1
     2    12    11    1
     3     8     9    3
     4    11    10    1
     5    11    13    1
     6     9     2    1
     7    10     3    1
     8     3     2   ar
     9     3     4   ar
    10     2     1   ar
    11     4     7    1
    12     4     5   ar
    13     1     6    1
    14     1     5   ar
