@<TRIPOS>MOLECULE
mol_data/opt/cam/geoms/mol2/5dl5dl-.out
 26 27 0 0 0
SMALL
GASTEIGER

@<TRIPOS>ATOM
      1 C          -2.2815   -1.8782    0.4185 C.ar    1  LIG1       -0.0027
      2 C          -0.9898   -2.0016   -0.0176 C.ar    1  LIG1        0.1009
      3 C          -0.3533   -0.7232   -0.2151 C.ar    1  LIG1        0.1526
      4 C          -1.1936    0.3235    0.0808 C.ar    1  LIG1        0.0701
      5 S          -2.7548   -0.2498    0.5938 S.2     1  LIG1       -0.0910
      6 H          -2.9693   -2.6833    0.6314 H       1  LIG1        0.0708
      7 N           0.0402   -4.3162   -0.5248 N.1     1  LIG1       -0.1907
      8 C          -0.4086   -3.2747   -0.2959 C.1     1  LIG1        0.1034
      9 O           0.8742   -0.5071   -0.7183 O.3     1  LIG1       -0.4927
     10 C           1.9659   -1.2910   -0.2209 C.3     1  LIG1        0.0789
     11 H           2.8661   -0.8001   -0.5859 H       1  LIG1        0.0660
     12 H           1.9778   -1.2838    0.8712 H       1  LIG1        0.0660
     13 H           1.9232   -2.3132   -0.5993 H       1  LIG1        0.0660
     14 C          -0.9059    1.7446   -0.0165 C.ar    1  LIG1        0.0504
     15 C           0.2188    2.4232    0.3959 C.ar    1  LIG1        0.1086
     16 C           0.1431    3.8386    0.1404 C.ar    1  LIG1        0.1450
     17 C          -1.0287    4.1995   -0.4453 C.ar    1  LIG1        0.0193
     18 S          -2.0530    2.8406   -0.7112 S.2     1  LIG1       -0.0910
     19 H          -1.3353    5.1980   -0.7170 H       1  LIG1        0.0731
     20 N           2.2039    1.3538    1.6520 N.1     1  LIG1       -0.1907
     21 C           1.3094    1.8197    1.0839 C.1     1  LIG1        0.1040
     22 O           1.0949    4.7288    0.5126 O.3     1  LIG1       -0.4933
     23 C           2.3301    4.6425   -0.1964 C.3     1  LIG1        0.0789
     24 H           2.9644    5.4328    0.2035 H       1  LIG1        0.0660
     25 H           2.8183    3.6767   -0.0391 H       1  LIG1        0.0660
     26 H           2.1724    4.8050   -1.2679 H       1  LIG1        0.0660
@<TRIPOS>BOND
     1    26    23    1
     2     9    10    1
     3     9     3    1
     4    19    17    1
     5    18    17   ar
     6    18    14   ar
     7    13    10    1
     8    11    10    1
     9     7     8    3
    10    17    16   ar
    11     8     2    1
    12    10    12    1
    13     3     2   ar
    14     3     4   ar
    15    23    25    1
    16    23    24    1
    17    23    22    1
    18     2     1   ar
    19    14     4    1
    20    14    15   ar
    21     4     5   ar
    22    16    15   ar
    23    16    22    1
    24    15    21    1
    25     1     5   ar
    26     1     6    1
    27    21    20    3
