@<TRIPOS>MOLECULE
mol_data/opt/cam/geoms/mol2/5dl5dl5dl5dl.out
 50 53 0 0 0
SMALL
GASTEIGER

@<TRIPOS>ATOM
      1 C          -2.2547   -2.0890    0.2524 C.ar    1  LIG1       -0.0027
      2 C          -0.9701   -2.1467   -0.2188 C.ar    1  LIG1        0.1009
      3 C          -0.3510   -0.8466   -0.2792 C.ar    1  LIG1        0.1526
      4 C          -1.1969    0.1478    0.1561 C.ar    1  LIG1        0.0702
      5 S          -2.7431   -0.4996    0.6246 S.2     1  LIG1       -0.0910
      6 H          -2.9291   -2.9224    0.3845 H       1  LIG1        0.0708
      7 N           0.0652   -4.3823   -0.9972 N.1     1  LIG1       -0.1907
      8 C          -0.3843   -3.3754   -0.6472 C.1     1  LIG1        0.1034
      9 O           0.8587   -0.5484   -0.7753 O.3     1  LIG1       -0.4927
     10 C           1.9645   -1.4110   -0.4802 C.3     1  LIG1        0.0789
     11 H           2.8536   -0.8455   -0.7526 H       1  LIG1        0.0660
     12 H           2.0016   -1.6378    0.5875 H       1  LIG1        0.0660
     13 H           1.9147   -2.3291   -1.0669 H       1  LIG1        0.0660
     14 C          -0.9209    1.5708    0.2234 C.ar    1  LIG1        0.0511
     15 C           0.2188    2.2000    0.6818 C.ar    1  LIG1        0.1093
     16 C           0.1365    3.6342    0.6086 C.ar    1  LIG1        0.1533
     17 C          -1.0688    4.0658    0.1069 C.ar    1  LIG1        0.0708
     18 S          -2.0960    2.7213   -0.2960 S.2     1  LIG1       -0.0820
     19 N           2.1460    0.9009    1.8055 N.1     1  LIG1       -0.1907
     20 C           1.2905    1.4845    1.2888 C.1     1  LIG1        0.1040
     21 O           1.0450    4.5099    1.0654 O.3     1  LIG1       -0.4926
     22 C           2.4302    4.2919    0.7649 C.3     1  LIG1        0.0789
     23 H           2.9265    5.2349    0.9861 H       1  LIG1        0.0660
     24 H           2.8471    3.4986    1.3862 H       1  LIG1        0.0660
     25 H           2.5615    4.0628   -0.2947 H       1  LIG1        0.0660
     26 C          -1.5193    5.4332   -0.0655 C.ar    1  LIG1        0.0511
     27 C          -0.8194    6.5124   -0.5652 C.ar    1  LIG1        0.1093
     28 C          -1.5978    7.7220   -0.5965 C.ar    1  LIG1        0.1533
     29 C          -2.8786    7.5358   -0.1365 C.ar    1  LIG1        0.0707
     30 S          -3.1284    5.8885    0.3624 S.2     1  LIG1       -0.0820
     31 N           1.5319    6.2805   -1.6049 N.1     1  LIG1       -0.1907
     32 C           0.4844    6.3870   -1.1240 C.1     1  LIG1        0.1040
     33 O          -1.2085    8.9002   -1.1139 O.3     1  LIG1       -0.4926
     34 C           0.0643    9.4316   -0.7206 C.3     1  LIG1        0.0789
     35 H           0.0676   10.4634   -1.0671 H       1  LIG1        0.0660
     36 H           0.1631    9.4241    0.3668 H       1  LIG1        0.0660
     37 H           0.8828    8.8827   -1.1878 H       1  LIG1        0.0660
     38 C          -3.9535    8.5096   -0.0707 C.ar    1  LIG1        0.0505
     39 C          -3.9092    9.8162    0.3622 C.ar    1  LIG1        0.1086
     40 C          -5.1883   10.4740    0.2866 C.ar    1  LIG1        0.1450
     41 C          -6.1663    9.6579   -0.1865 C.ar    1  LIG1        0.0193
     42 S          -5.5615    8.0896   -0.5616 S.2     1  LIG1       -0.0910
     43 H          -7.2087    9.9055   -0.3168 H       1  LIG1        0.0731
     44 N          -1.8365   10.9656    1.3834 N.1     1  LIG1       -0.1907
     45 C          -2.7557   10.4381    0.9178 C.1     1  LIG1        0.1040
     46 O          -5.4169   11.7395    0.7136 O.3     1  LIG1       -0.4933
     47 C          -4.8097   12.7714   -0.0628 C.3     1  LIG1        0.0789
     48 H          -5.1110   13.7124    0.3962 H       1  LIG1        0.0660
     49 H          -3.7188   12.6980   -0.0476 H       1  LIG1        0.0660
     50 H          -5.1667   12.7366   -1.0975 H       1  LIG1        0.0660
@<TRIPOS>BOND
     1    31    32    3
     2    37    34    1
     3    32    27    1
     4    33    34    1
     5    33    28    1
     6    50    47    1
     7    35    34    1
     8    13    10    1
     9     7     8    3
    10     9    10    1
    11     9     3    1
    12    11    10    1
    13    34    36    1
    14     8     2    1
    15    28    27   ar
    16    28    29   ar
    17    27    26   ar
    18    42    41   ar
    19    42    38   ar
    20    10    12    1
    21    43    41    1
    22    18    17   ar
    23    18    14   ar
    24    25    22    1
    25     3     2   ar
    26     3     4   ar
    27     2     1   ar
    28    41    40   ar
    29    29    38    1
    30    29    30   ar
    31    38    39   ar
    32    26    17    1
    33    26    30   ar
    34    47    49    1
    35    47    48    1
    36    47    46    1
    37    17    16   ar
    38     4    14    1
    39     4     5   ar
    40    14    15   ar
    41     1     6    1
    42     1     5   ar
    43    40    39   ar
    44    40    46    1
    45    39    45    1
    46    16    15   ar
    47    16    21    1
    48    15    20    1
    49    22    23    1
    50    22    21    1
    51    22    24    1
    52    45    44    3
    53    20    19    3
