@<TRIPOS>MOLECULE
mol_data/opt/cam/geoms/mol2/5dl5dl5dl5dl-.out
 50 53 0 0 0
SMALL
GASTEIGER

@<TRIPOS>ATOM
      1 C          -2.2258   -2.0881    0.3640 C.ar    1  LIG1       -0.0027
      2 C          -0.9564   -2.1481   -0.1462 C.ar    1  LIG1        0.1009
      3 C          -0.3431   -0.8473   -0.2410 C.ar    1  LIG1        0.1526
      4 C          -1.1779    0.1501    0.2087 C.ar    1  LIG1        0.0702
      5 S          -2.7069   -0.4956    0.7326 S.2     1  LIG1       -0.0910
      6 H          -2.8935   -2.9215    0.5268 H       1  LIG1        0.0708
      7 N           0.0606   -4.3901   -0.9304 N.1     1  LIG1       -0.1907
      8 C          -0.3807   -3.3803   -0.5783 C.1     1  LIG1        0.1034
      9 O           0.8498   -0.5520   -0.7780 O.3     1  LIG1       -0.4927
     10 C           1.9666   -1.4083   -0.5074 C.3     1  LIG1        0.0789
     11 H           2.8452   -0.8439   -0.8139 H       1  LIG1        0.0660
     12 H           2.0375   -1.6224    0.5612 H       1  LIG1        0.0660
     13 H           1.9013   -2.3334   -1.0815 H       1  LIG1        0.0660
     14 C          -0.9039    1.5744    0.2507 C.ar    1  LIG1        0.0511
     15 C           0.2476    2.2118    0.6661 C.ar    1  LIG1        0.1093
     16 C           0.1591    3.6448    0.5787 C.ar    1  LIG1        0.1533
     17 C          -1.0625    4.0676    0.1098 C.ar    1  LIG1        0.0708
     18 S          -2.0979    2.7159   -0.2452 S.2     1  LIG1       -0.0820
     19 N           2.2125    0.9307    1.7444 N.1     1  LIG1       -0.1907
     20 C           1.3397    1.5061    1.2478 C.1     1  LIG1        0.1040
     21 O           1.0788    4.5281    0.9968 O.3     1  LIG1       -0.4926
     22 C           2.4547    4.3100    0.6559 C.3     1  LIG1        0.0789
     23 H           2.9549    5.2567    0.8505 H       1  LIG1        0.0660
     24 H           2.8929    3.5251    1.2731 H       1  LIG1        0.0660
     25 H           2.5536    4.0688   -0.4045 H       1  LIG1        0.0660
     26 C          -1.5220    5.4317   -0.0645 C.ar    1  LIG1        0.0511
     27 C          -0.8410    6.5066   -0.5983 C.ar    1  LIG1        0.1093
     28 C          -1.6234    7.7139   -0.6195 C.ar    1  LIG1        0.1533
     29 C          -2.8888    7.5299   -0.1177 C.ar    1  LIG1        0.0707
     30 S          -3.1183    5.8880    0.4079 S.2     1  LIG1       -0.0820
     31 N           1.4775    6.2683   -1.7079 N.1     1  LIG1       -0.1907
     32 C           0.4451    6.3779   -1.1959 C.1     1  LIG1        0.1040
     33 O          -1.2537    8.8869   -1.1625 O.3     1  LIG1       -0.4926
     34 C           0.0292    9.4260   -0.8152 C.3     1  LIG1        0.0789
     35 H           0.0187   10.4536   -1.1737 H       1  LIG1        0.0660
     36 H           0.1618    9.4315    0.2686 H       1  LIG1        0.0660
     37 H           0.8344    8.8737   -1.3012 H       1  LIG1        0.0660
     38 C          -3.9639    8.5018   -0.0299 C.ar    1  LIG1        0.0505
     39 C          -3.9098    9.8135    0.3861 C.ar    1  LIG1        0.1086
     40 C          -5.1926   10.4672    0.3426 C.ar    1  LIG1        0.1450
     41 C          -6.1825    9.6432   -0.0903 C.ar    1  LIG1        0.0193
     42 S          -5.5851    8.0720   -0.4656 S.2     1  LIG1       -0.0910
     43 H          -7.2291    9.8866   -0.1909 H       1  LIG1        0.0731
     44 N          -1.8097   10.9799    1.3289 N.1     1  LIG1       -0.1907
     45 C          -2.7414   10.4447    0.8982 C.1     1  LIG1        0.1040
     46 O          -5.4113   11.7371    0.7617 O.3     1  LIG1       -0.4933
     47 C          -4.8315   12.7612   -0.0452 C.3     1  LIG1        0.0789
     48 H          -5.1210   13.7068    0.4120 H       1  LIG1        0.0660
     49 H          -3.7404   12.6907   -0.0631 H       1  LIG1        0.0660
     50 H          -5.2204   12.7134   -1.0678 H       1  LIG1        0.0660
@<TRIPOS>BOND
     1    31    32    3
     2    37    34    1
     3    32    27    1
     4    35    34    1
     5    33    34    1
     6    33    28    1
     7    13    10    1
     8    50    47    1
     9     7     8    3
    10    34    36    1
    11    11    10    1
    12     9    10    1
    13     9     3    1
    14    28    27   ar
    15    28    29   ar
    16    27    26   ar
    17     8     2    1
    18    10    12    1
    19    42    41   ar
    20    42    38   ar
    21    25    22    1
    22    18    17   ar
    23    18    14   ar
    24     3     2   ar
    25     3     4   ar
    26    43    41    1
    27     2     1   ar
    28    29    38    1
    29    29    30   ar
    30    41    40   ar
    31    26    17    1
    32    26    30   ar
    33    49    47    1
    34    47    48    1
    35    47    46    1
    36    38    39   ar
    37    17    16   ar
    38     4    14    1
    39     4     5   ar
    40    14    15   ar
    41    40    39   ar
    42    40    46    1
    43     1     6    1
    44     1     5   ar
    45    39    45    1
    46    16    15   ar
    47    16    21    1
    48    22    23    1
    49    22    21    1
    50    22    24    1
    51    15    20    1
    52    45    44    3
    53    20    19    3
