@<TRIPOS>MOLECULE
mol_data/opt/cam/geoms/mol2/5dl5dl-5dl5dl.out
 50 53 0 0 0
SMALL
GASTEIGER

@<TRIPOS>ATOM
      1 C          -2.2713   -2.0879    0.2298 C.ar    1  LIG1       -0.0027
      2 C          -0.9839   -2.1460   -0.2334 C.ar    1  LIG1        0.1009
      3 C          -0.3617   -0.8469   -0.2833 C.ar    1  LIG1        0.1526
      4 C          -1.2083    0.1471    0.1516 C.ar    1  LIG1        0.0702
      5 S          -2.7588   -0.4994    0.6069 S.2     1  LIG1       -0.0910
      6 H          -2.9484   -2.9205    0.3534 H       1  LIG1        0.0708
      7 N           0.0517   -4.3798   -1.0165 N.1     1  LIG1       -0.1907
      8 C          -0.3979   -3.3737   -0.6643 C.1     1  LIG1        0.1034
      9 O           0.8518   -0.5488   -0.7701 O.3     1  LIG1       -0.4927
     10 C           1.9539   -1.4152   -0.4723 C.3     1  LIG1        0.0789
     11 H           2.8459   -0.8502   -0.7361 H       1  LIG1        0.0660
     12 H           1.9836   -1.6475    0.5944 H       1  LIG1        0.0660
     13 H           1.9060   -2.3302   -1.0639 H       1  LIG1        0.0660
     14 C          -0.9297    1.5691    0.2278 C.ar    1  LIG1        0.0511
     15 C           0.2083    2.1936    0.6967 C.ar    1  LIG1        0.1093
     16 C           0.1295    3.6283    0.6302 C.ar    1  LIG1        0.1533
     17 C          -1.0717    4.0650    0.1230 C.ar    1  LIG1        0.0708
     18 S          -2.0991    2.7248   -0.2933 S.2     1  LIG1       -0.0820
     19 N           2.1255    0.8847    1.8261 N.1     1  LIG1       -0.1907
     20 C           1.2746    1.4728    1.3069 C.1     1  LIG1        0.1040
     21 O           1.0369    4.4998    1.0973 O.3     1  LIG1       -0.4926
     22 C           2.4235    4.2803    0.8045 C.3     1  LIG1        0.0789
     23 H           2.9204    5.2211    1.0337 H       1  LIG1        0.0660
     24 H           2.8348    3.4831    1.4245 H       1  LIG1        0.0660
     25 H           2.5612    4.0563   -0.2553 H       1  LIG1        0.0660
     26 C          -1.5182    5.4342   -0.0454 C.ar    1  LIG1        0.0511
     27 C          -0.8128    6.5144   -0.5351 C.ar    1  LIG1        0.1093
     28 C          -1.5885    7.7258   -0.5653 C.ar    1  LIG1        0.1533
     29 C          -2.8726    7.5400   -0.1145 C.ar    1  LIG1        0.0707
     30 S          -3.1290    5.8907    0.3744 S.2     1  LIG1       -0.0820
     31 N           1.5446    6.2828   -1.5609 N.1     1  LIG1       -0.1907
     32 C           0.4943    6.3891   -1.0862 C.1     1  LIG1        0.1040
     33 O          -1.1933    8.9058   -1.0743 O.3     1  LIG1       -0.4926
     34 C           0.0780    9.4325   -0.6701 C.3     1  LIG1        0.0789
     35 H           0.0856   10.4659   -1.0113 H       1  LIG1        0.0660
     36 H           0.1698    9.4193    0.4179 H       1  LIG1        0.0660
     37 H           0.8984    8.8842   -1.1347 H       1  LIG1        0.0660
     38 C          -3.9459    8.5157   -0.0507 C.ar    1  LIG1        0.0505
     39 C          -3.9016    9.8201    0.3891 C.ar    1  LIG1        0.1086
     40 C          -5.1788   10.4809    0.3085 C.ar    1  LIG1        0.1450
     41 C          -6.1555    9.6694   -0.1749 C.ar    1  LIG1        0.0193
     42 S          -5.5515    8.1016   -0.5540 S.2     1  LIG1       -0.0910
     43 H          -7.1965    9.9198   -0.3106 H       1  LIG1        0.0731
     44 N          -1.8332   10.9599    1.4294 N.1     1  LIG1       -0.1907
     45 C          -2.7504   10.4367    0.9552 C.1     1  LIG1        0.1040
     46 O          -5.4075   11.7448    0.7405 O.3     1  LIG1       -0.4933
     47 C          -4.7932   12.7792   -0.0268 C.3     1  LIG1        0.0789
     48 H          -5.0954   13.7185    0.4351 H       1  LIG1        0.0660
     49 H          -3.7025   12.7035   -0.0049 H       1  LIG1        0.0660
     50 H          -5.1436   12.7504   -1.0639 H       1  LIG1        0.0660
@<TRIPOS>BOND
     1    31    32    3
     2    37    34    1
     3    32    27    1
     4    33    34    1
     5    33    28    1
     6    13    10    1
     7    50    47    1
     8     7     8    3
     9    35    34    1
    10     9    10    1
    11     9     3    1
    12    11    10    1
    13    34    36    1
    14     8     2    1
    15    28    27   ar
    16    28    29   ar
    17    42    41   ar
    18    42    38   ar
    19    27    26   ar
    20    10    12    1
    21    43    41    1
    22    18    17   ar
    23    18    14   ar
    24     3     2   ar
    25     3     4   ar
    26    25    22    1
    27     2     1   ar
    28    41    40   ar
    29    29    38    1
    30    29    30   ar
    31    38    39   ar
    32    26    17    1
    33    26    30   ar
    34    47    49    1
    35    47    48    1
    36    47    46    1
    37    17    16   ar
    38     4    14    1
    39     4     5   ar
    40    14    15   ar
    41     1     6    1
    42     1     5   ar
    43    40    39   ar
    44    40    46    1
    45    39    45    1
    46    16    15   ar
    47    16    21    1
    48    15    20    1
    49    22    23    1
    50    22    21    1
    51    22    24    1
    52    45    44    3
    53    20    19    3
