@<TRIPOS>MOLECULE
mol_data/opt/cam/geoms/mol2/5dl5dl5dl-5dl-.out
 50 53 0 0 0
SMALL
GASTEIGER

@<TRIPOS>ATOM
      1 C          -1.4905   -1.9739    1.8098 C.ar    1  LIG1       -0.0027
      2 C          -0.9111   -2.1146    0.5770 C.ar    1  LIG1        0.1009
      3 C          -0.5424   -0.8467   -0.0017 C.ar    1  LIG1        0.1526
      4 C          -0.8551    0.2070    0.8248 C.ar    1  LIG1        0.0702
      5 S          -1.6082   -0.3445    2.2937 S.2     1  LIG1       -0.0910
      6 H          -1.8585   -2.7690    2.4417 H       1  LIG1        0.0708
      7 N          -0.6818   -4.4370   -0.5319 N.1     1  LIG1       -0.1907
      8 C          -0.7735   -3.3917   -0.0445 C.1     1  LIG1        0.1034
      9 O          -0.0432   -0.6317   -1.2279 O.3     1  LIG1       -0.4927
     10 C           0.9731   -1.5092   -1.7289 C.3     1  LIG1        0.0789
     11 H           1.3897   -1.0032   -2.5977 H       1  LIG1        0.0660
     12 H           1.7622   -1.6470   -0.9867 H       1  LIG1        0.0660
     13 H           0.5518   -2.4703   -2.0264 H       1  LIG1        0.0660
     14 C          -0.6386    1.6212    0.5698 C.ar    1  LIG1        0.0511
     15 C           0.5073    2.2411    0.1143 C.ar    1  LIG1        0.1093
     16 C           0.3574    3.6657   -0.0235 C.ar    1  LIG1        0.1533
     17 C          -0.8945    4.0983    0.3478 C.ar    1  LIG1        0.0708
     18 S          -1.9014    2.7652    0.8283 S.2     1  LIG1       -0.0820
     19 N           2.6606    0.9121   -0.3995 N.1     1  LIG1       -0.1907
     20 C           1.6967    1.5124   -0.1763 C.1     1  LIG1        0.1040
     21 O           1.2541    4.5281   -0.5249 O.3     1  LIG1       -0.4926
     22 C           2.6349    4.4003   -0.1634 C.3     1  LIG1        0.0789
     23 H           3.0898    5.3569   -0.4132 H       1  LIG1        0.0660
     24 H           2.7395    4.2289    0.9100 H       1  LIG1        0.0660
     25 H           3.1154    3.6005   -0.7277 H       1  LIG1        0.0660
     26 C          -1.3983    5.4584    0.3370 C.ar    1  LIG1        0.0511
     27 C          -0.7644    6.6111    0.7536 C.ar    1  LIG1        0.1093
     28 C          -1.5795    7.7871    0.6043 C.ar    1  LIG1        0.1533
     29 C          -2.8228    7.5040    0.0938 C.ar    1  LIG1        0.0707
     30 S          -2.9899    5.8042   -0.2337 S.2     1  LIG1       -0.0820
     31 N           1.5237    6.5808    1.9484 N.1     1  LIG1       -0.1907
     32 C           0.5052    6.5962    1.3987 C.1     1  LIG1        0.1040
     33 O          -1.2585    9.0282    1.0101 O.3     1  LIG1       -0.4926
     34 C           0.0171    9.5614    0.6286 C.3     1  LIG1        0.0789
     35 H          -0.0290   10.6225    0.8666 H       1  LIG1        0.0660
     36 H           0.8255    9.0922    1.1906 H       1  LIG1        0.0660
     37 H           0.1741    9.4469   -0.4458 H       1  LIG1        0.0660
     38 C          -3.9214    8.4243   -0.1403 C.ar    1  LIG1        0.0505
     39 C          -3.8913    9.6762   -0.7131 C.ar    1  LIG1        0.1086
     40 C          -5.1918   10.2918   -0.7802 C.ar    1  LIG1        0.1450
     41 C          -6.1705    9.4978   -0.2722 C.ar    1  LIG1        0.0193
     42 S          -5.5415    8.0028    0.3071 S.2     1  LIG1       -0.0910
     43 H          -7.2256    9.7201   -0.2271 H       1  LIG1        0.0731
     44 N          -1.7981   10.7815   -1.7410 N.1     1  LIG1       -0.1907
     45 C          -2.7267   10.2752   -1.2707 C.1     1  LIG1        0.1040
     46 O          -5.4329   11.4935   -1.3580 O.3     1  LIG1       -0.4933
     47 C          -4.9049   12.6260   -0.6691 C.3     1  LIG1        0.0789
     48 H          -5.2021   13.4988   -1.2495 H       1  LIG1        0.0660
     49 H          -5.3258   12.6950    0.3395 H       1  LIG1        0.0660
     50 H          -3.8136   12.5891   -0.6103 H       1  LIG1        0.0660
@<TRIPOS>BOND
     1    11    10    1
     2    13    10    1
     3    44    45    3
     4    10     9    1
     5    10    12    1
     6    46    40    1
     7    46    47    1
     8    45    39    1
     9    48    47    1
    10     9     3    1
    11    40    39   ar
    12    40    41   ar
    13    25    22    1
    14    39    38   ar
    15    47    50    1
    16    47    49    1
    17     7     8    3
    18    21    22    1
    19    21    16    1
    20    37    34    1
    21    23    22    1
    22    19    20    3
    23    41    43    1
    24    41    42   ar
    25    30    29   ar
    26    30    26   ar
    27    20    15    1
    28    22    24    1
    29    38    29    1
    30    38    42   ar
    31     8     2    1
    32    16    15   ar
    33    16    17   ar
    34     3     2   ar
    35     3     4   ar
    36    29    28   ar
    37    15    14   ar
    38    26    17    1
    39    26    27   ar
    40    17    18   ar
    41    14     4    1
    42    14    18   ar
    43     2     1   ar
    44    28    27   ar
    45    28    33    1
    46    34    35    1
    47    34    33    1
    48    34    36    1
    49    27    32    1
    50     4     5   ar
    51    32    31    3
    52     1     5   ar
    53     1     6    1
