@<TRIPOS>MOLECULE
mol_data/opt/cam/geoms/mol2/5dl5dl-5dl-.out
 38 40 0 0 0
SMALL
GASTEIGER

@<TRIPOS>ATOM
      1 C          -2.2507   -2.0195   -0.3942 C.ar    1  LIG1       -0.0027
      2 C          -1.0106   -2.0713    0.1844 C.ar    1  LIG1        0.1009
      3 C          -0.3981   -0.7704    0.2828 C.ar    1  LIG1        0.1526
      4 C          -1.2034    0.2191   -0.2326 C.ar    1  LIG1        0.0702
      5 S          -2.7047   -0.4341   -0.8232 S.2     1  LIG1       -0.0910
      6 H          -2.9122   -2.8544   -0.5732 H       1  LIG1        0.0708
      7 N          -0.0460   -4.2976    1.0727 N.1     1  LIG1       -0.1907
      8 C          -0.4638   -3.2949    0.6747 C.1     1  LIG1        0.1034
      9 O           0.7667   -0.4676    0.8757 O.3     1  LIG1       -0.4927
     10 C           1.8943   -1.3283    0.6727 C.3     1  LIG1        0.0789
     11 H           2.7568   -0.7626    1.0199 H       1  LIG1        0.0660
     12 H           1.7971   -2.2477    1.2514 H       1  LIG1        0.0660
     13 H           2.0211   -1.5527   -0.3886 H       1  LIG1        0.0660
     14 C          -0.9214    1.6416   -0.2927 C.ar    1  LIG1        0.0511
     15 C           0.2524    2.2653   -0.6615 C.ar    1  LIG1        0.1093
     16 C           0.1666    3.7007   -0.6117 C.ar    1  LIG1        0.1533
     17 C          -1.0752    4.1395   -0.2217 C.ar    1  LIG1        0.0707
     18 S          -2.1335    2.8004    0.1123 S.2     1  LIG1       -0.0820
     19 N           2.2688    0.9614   -1.6094 N.1     1  LIG1       -0.1907
     20 C           1.3714    1.5461   -1.1706 C.1     1  LIG1        0.1040
     21 O           1.1196    4.5648   -1.0023 O.3     1  LIG1       -0.4926
     22 C           2.4541    4.3764   -0.5120 C.3     1  LIG1        0.0789
     23 H           2.9878    5.2906   -0.7649 H       1  LIG1        0.0660
     24 H           2.4504    4.2582    0.5734 H       1  LIG1        0.0660
     25 H           2.9347    3.5235   -0.9929 H       1  LIG1        0.0660
     26 C          -1.5410    5.5102   -0.1078 C.ar    1  LIG1        0.0505
     27 C          -0.9024    6.5945    0.4517 C.ar    1  LIG1        0.1086
     28 C          -1.6867    7.8008    0.3852 C.ar    1  LIG1        0.1450
     29 C          -2.8936    7.6050   -0.2075 C.ar    1  LIG1        0.0193
     30 S          -3.1006    5.9697   -0.7067 S.2     1  LIG1       -0.0910
     31 H          -3.6675    8.3420   -0.3579 H       1  LIG1        0.0731
     32 N           1.3731    6.5027    1.6657 N.1     1  LIG1       -0.1907
     33 C           0.3562    6.5292    1.1133 C.1     1  LIG1        0.1040
     34 O          -1.3059    8.9843    0.9240 O.3     1  LIG1       -0.4933
     35 C          -0.2068    9.6294    0.2821 C.3     1  LIG1        0.0789
     36 H          -0.0517   10.5660    0.8166 H       1  LIG1        0.0660
     37 H           0.7043    9.0276    0.3413 H       1  LIG1        0.0660
     38 H          -0.4416    9.8397   -0.7666 H       1  LIG1        0.0660
@<TRIPOS>BOND
     1    19    20    3
     2    20    15    1
     3    21    16    1
     4    21    22    1
     5    25    22    1
     6     5     1   ar
     7     5     4   ar
     8    38    35    1
     9    23    22    1
    10    30    29   ar
    11    30    26   ar
    12    15    16   ar
    13    15    14   ar
    14    16    17   ar
    15     6     1    1
    16    22    24    1
    17     1     2   ar
    18    13    10    1
    19    31    29    1
    20    14     4    1
    21    14    18   ar
    22     4     3   ar
    23    17    26    1
    24    17    18   ar
    25    29    28   ar
    26    26    27   ar
    27     2     3   ar
    28     2     8    1
    29    35    37    1
    30    35    36    1
    31    35    34    1
    32     3     9    1
    33    28    27   ar
    34    28    34    1
    35    27    33    1
    36    10     9    1
    37    10    11    1
    38    10    12    1
    39     8     7    3
    40    33    32    3
