@<TRIPOS>MOLECULE
mol_data/opt/cam/geoms/mol2/5dl5dl5dl.out
 38 40 0 0 0
SMALL
GASTEIGER

@<TRIPOS>ATOM
      1 C          -2.2253   -2.0247    0.4604 C.ar    1  LIG1       -0.0027
      2 C          -0.9965   -2.0750   -0.1418 C.ar    1  LIG1        0.1009
      3 C          -0.3903   -0.7725   -0.2572 C.ar    1  LIG1        0.1526
      4 C          -1.1888    0.2165    0.2696 C.ar    1  LIG1        0.0702
      5 S          -2.6762   -0.4390    0.8917 S.2     1  LIG1       -0.0910
      6 H          -2.8806   -2.8610    0.6555 H       1  LIG1        0.0708
      7 N          -0.0419   -4.3018   -1.0395 N.1     1  LIG1       -0.1907
      8 C          -0.4553   -3.2987   -0.6376 C.1     1  LIG1        0.1034
      9 O           0.7618   -0.4684   -0.8738 O.3     1  LIG1       -0.4927
     10 C           1.8959   -1.3247   -0.6891 C.3     1  LIG1        0.0789
     11 H           2.7497   -0.7576   -1.0551 H       1  LIG1        0.0660
     12 H           2.0440   -1.5442    0.3705 H       1  LIG1        0.0660
     13 H           1.7907   -2.2467   -1.2620 H       1  LIG1        0.0660
     14 C          -0.9103    1.6401    0.3185 C.ar    1  LIG1        0.0511
     15 C           0.2683    2.2691    0.6620 C.ar    1  LIG1        0.1093
     16 C           0.1768    3.7040    0.6081 C.ar    1  LIG1        0.1533
     17 C          -1.0737    4.1373    0.2403 C.ar    1  LIG1        0.0707
     18 S          -2.1338    2.7934   -0.0677 S.2     1  LIG1       -0.0820
     19 N           2.3069    0.9756    1.5761 N.1     1  LIG1       -0.1907
     20 C           1.3993    1.5556    1.1524 C.1     1  LIG1        0.1040
     21 O           1.1344    4.5728    0.9768 O.3     1  LIG1       -0.4926
     22 C           2.4597    4.3866    0.4616 C.3     1  LIG1        0.0789
     23 H           2.9953    5.3036    0.7004 H       1  LIG1        0.0660
     24 H           2.9523    3.5373    0.9365 H       1  LIG1        0.0660
     25 H           2.4355    4.2640   -0.6231 H       1  LIG1        0.0660
     26 C          -1.5461    5.5060    0.1299 C.ar    1  LIG1        0.0505
     27 C          -0.9220    6.5900   -0.4462 C.ar    1  LIG1        0.1086
     28 C          -1.7088    7.7940   -0.3694 C.ar    1  LIG1        0.1450
     29 C          -2.9035    7.5967    0.2473 C.ar    1  LIG1        0.0193
     30 S          -3.0954    5.9628    0.7570 S.2     1  LIG1       -0.0910
     31 H          -3.6767    8.3319    0.4096 H       1  LIG1        0.0731
     32 N           1.3299    6.5005   -1.7035 N.1     1  LIG1       -0.1907
     33 C           0.3239    6.5261   -1.1316 C.1     1  LIG1        0.1040
     34 O          -1.3424    8.9765   -0.9202 O.3     1  LIG1       -0.4933
     35 C          -0.2333    9.6278   -0.3022 C.3     1  LIG1        0.0789
     36 H          -0.0915   10.5626   -0.8435 H       1  LIG1        0.0660
     37 H          -0.4485    9.8417    0.7500 H       1  LIG1        0.0660
     38 H           0.6785    9.0286   -0.3766 H       1  LIG1        0.0660
@<TRIPOS>BOND
     1    32    33    3
     2    13    10    1
     3    33    27    1
     4    11    10    1
     5     7     8    3
     6    34    28    1
     7    34    35    1
     8     9    10    1
     9     9     3    1
    10    36    35    1
    11    10    12    1
    12     8     2    1
    13    25    22    1
    14    27    28   ar
    15    27    26   ar
    16    38    35    1
    17    28    29   ar
    18    35    37    1
    19     3     2   ar
    20     3     4   ar
    21     2     1   ar
    22    18    17   ar
    23    18    14   ar
    24    26    17    1
    25    26    30   ar
    26    17    16   ar
    27    29    31    1
    28    29    30   ar
    29     4    14    1
    30     4     5   ar
    31    14    15   ar
    32     1     6    1
    33     1     5   ar
    34    22    23    1
    35    22    24    1
    36    22    21    1
    37    16    15   ar
    38    16    21    1
    39    15    20    1
    40    20    19    3
