@<TRIPOS>MOLECULE
mol_data/opt/cam/geoms/mol2/5dl5dl-5dl-5dl-.out
 50 53 0 0 0
SMALL
GASTEIGER

@<TRIPOS>ATOM
      1 C          -2.2637   -2.0903   -0.1796 C.ar    1  LIG1       -0.0027
      2 C          -0.9755   -2.1442    0.2819 C.ar    1  LIG1        0.1009
      3 C          -0.3547   -0.8441    0.3230 C.ar    1  LIG1        0.1526
      4 C          -1.2031    0.1463   -0.1165 C.ar    1  LIG1        0.0702
      5 S          -2.7535   -0.5047   -0.5655 S.2     1  LIG1       -0.0910
      6 H          -2.9400   -2.9244   -0.2972 H       1  LIG1        0.0708
      7 N           0.0638   -4.3721    1.0768 N.1     1  LIG1       -0.1907
      8 C          -0.3875   -3.3687    0.7192 C.1     1  LIG1        0.1034
      9 O           0.8592   -0.5418    0.8062 O.3     1  LIG1       -0.4927
     10 C           1.9618   -1.4088    0.5119 C.3     1  LIG1        0.0789
     11 H           2.8536   -0.8412    0.7711 H       1  LIG1        0.0660
     12 H           1.9158   -2.3203    1.1090 H       1  LIG1        0.0660
     13 H           1.9902   -1.6472   -0.5535 H       1  LIG1        0.0660
     14 C          -0.9262    1.5681   -0.2017 C.ar    1  LIG1        0.0511
     15 C           0.2104    2.1911   -0.6760 C.ar    1  LIG1        0.1093
     16 C           0.1301    3.6260   -0.6180 C.ar    1  LIG1        0.1533
     17 C          -1.0707    4.0645   -0.1115 C.ar    1  LIG1        0.0708
     18 S          -2.0960    2.7256    0.3143 S.2     1  LIG1       -0.0820
     19 N           2.1274    0.8776   -1.8006 N.1     1  LIG1       -0.1907
     20 C           1.2766    1.4678   -1.2836 C.1     1  LIG1        0.1040
     21 O           1.0358    4.4957   -1.0917 O.3     1  LIG1       -0.4926
     22 C           2.4232    4.2796   -0.7997 C.3     1  LIG1        0.0789
     23 H           2.9186    5.2195   -1.0353 H       1  LIG1        0.0660
     24 H           2.5627    4.0621    0.2612 H       1  LIG1        0.0660
     25 H           2.8344    3.4791   -1.4155 H       1  LIG1        0.0660
     26 C          -1.5185    5.4342    0.0493 C.ar    1  LIG1        0.0511
     27 C          -0.8136    6.5180    0.5315 C.ar    1  LIG1        0.1093
     28 C          -1.5906    7.7288    0.5556 C.ar    1  LIG1        0.1533
     29 C          -2.8751    7.5388    0.1079 C.ar    1  LIG1        0.0707
     30 S          -3.1305    5.8864   -0.3708 S.2     1  LIG1       -0.0820
     31 N           1.5456    6.2952    1.5550 N.1     1  LIG1       -0.1907
     32 C           0.4945    6.3975    1.0813 C.1     1  LIG1        0.1040
     33 O          -1.1960    8.9122    1.0569 O.3     1  LIG1       -0.4926
     34 C           0.0742    9.4378    0.6476 C.3     1  LIG1        0.0789
     35 H           0.0811   10.4734    0.9826 H       1  LIG1        0.0660
     36 H           0.8958    8.8933    1.1144 H       1  LIG1        0.0660
     37 H           0.1644    9.4181   -0.4403 H       1  LIG1        0.0660
     38 C          -3.9496    8.5130    0.0399 C.ar    1  LIG1        0.0505
     39 C          -3.9074    9.8147   -0.4077 C.ar    1  LIG1        0.1086
     40 C          -5.1853   10.4746   -0.3292 C.ar    1  LIG1        0.1450
     41 C          -6.1603    9.6649    0.1606 C.ar    1  LIG1        0.0193
     42 S          -5.5540    8.1001    0.5481 S.2     1  LIG1       -0.0910
     43 H          -7.2014    9.9149    0.2963 H       1  LIG1        0.0731
     44 N          -1.8419   10.9505   -1.4580 N.1     1  LIG1       -0.1907
     45 C          -2.7578   10.4292   -0.9793 C.1     1  LIG1        0.1040
     46 O          -5.4161   11.7356   -0.7684 O.3     1  LIG1       -0.4933
     47 C          -4.8017   12.7753   -0.0082 C.3     1  LIG1        0.0789
     48 H          -5.1057   13.7115   -0.4752 H       1  LIG1        0.0660
     49 H          -5.1506   12.7523    1.0296 H       1  LIG1        0.0660
     50 H          -3.7110   12.7006   -0.0312 H       1  LIG1        0.0660
@<TRIPOS>BOND
     1    19    20    3
     2    44    45    3
     3    25    22    1
     4    20    15    1
     5    21    22    1
     6    21    16    1
     7    23    22    1
     8    45    39    1
     9    22    24    1
    10    46    40    1
    11    46    47    1
    12    15    16   ar
    13    15    14   ar
    14    16    17   ar
    15     5     1   ar
    16     5     4   ar
    17    13    10    1
    18    48    47    1
    19    37    34    1
    20    39    40   ar
    21    39    38   ar
    22    30    26   ar
    23    30    29   ar
    24    40    41   ar
    25     6     1    1
    26    14     4    1
    27    14    18   ar
    28     1     2   ar
    29     4     3   ar
    30    17    26    1
    31    17    18   ar
    32    50    47    1
    33    47    49    1
    34    38    29    1
    35    38    42   ar
    36    26    27   ar
    37    29    28   ar
    38    41    43    1
    39    41    42   ar
    40     2     3   ar
    41     2     8    1
    42     3     9    1
    43    10    11    1
    44    10     9    1
    45    10    12    1
    46    27    28   ar
    47    27    32    1
    48    28    33    1
    49    34    35    1
    50    34    33    1
    51    34    36    1
    52     8     7    3
    53    32    31    3
