@<TRIPOS>MOLECULE
mol_data/opt/cam/geoms/mol2/5dl5dl.out
 26 27 0 0 0
SMALL
GASTEIGER

@<TRIPOS>ATOM
      1 C          -2.2785   -1.8807    0.4295 C.ar    1  LIG1       -0.0027
      2 C          -0.9890   -2.0019   -0.0138 C.ar    1  LIG1        0.1009
      3 C          -0.3540   -0.7225   -0.2093 C.ar    1  LIG1        0.1526
      4 C          -1.1930    0.3227    0.0953 C.ar    1  LIG1        0.0701
      5 S          -2.7513   -0.2532    0.6139 S.2     1  LIG1       -0.0910
      6 H          -2.9649   -2.6870    0.6427 H       1  LIG1        0.0708
      7 N           0.0390   -4.3141   -0.5358 N.1     1  LIG1       -0.1907
      8 C          -0.4089   -3.2736   -0.3003 C.1     1  LIG1        0.1034
      9 O           0.8708   -0.5039   -0.7180 O.3     1  LIG1       -0.4927
     10 C           1.9653   -1.2895   -0.2295 C.3     1  LIG1        0.0789
     11 H           2.8635   -0.7968   -0.5972 H       1  LIG1        0.0660
     12 H           1.9829   -1.2869    0.8625 H       1  LIG1        0.0660
     13 H           1.9211   -2.3102   -0.6119 H       1  LIG1        0.0660
     14 C          -0.9062    1.7443    0.0023 C.ar    1  LIG1        0.0504
     15 C           0.2204    2.4216    0.4117 C.ar    1  LIG1        0.1086
     16 C           0.1430    3.8379    0.1624 C.ar    1  LIG1        0.1450
     17 C          -1.0320    4.2009   -0.4157 C.ar    1  LIG1        0.0193
     18 S          -2.0572    2.8428   -0.6819 S.2     1  LIG1       -0.0910
     19 H          -1.3404    5.2004   -0.6818 H       1  LIG1        0.0731
     20 N           2.2122    1.3476    1.6530 N.1     1  LIG1       -0.1907
     21 C           1.3147    1.8156    1.0915 C.1     1  LIG1        0.1040
     22 O           1.0963    4.7269    0.5333 O.3     1  LIG1       -0.4933
     23 C           2.3279    4.6439   -0.1824 C.3     1  LIG1        0.0789
     24 H           2.9641    5.4328    0.2174 H       1  LIG1        0.0660
     25 H           2.8172    3.6777   -0.0316 H       1  LIG1        0.0660
     26 H           2.1646    4.8108   -1.2524 H       1  LIG1        0.0660
@<TRIPOS>BOND
     1    26    23    1
     2     9    10    1
     3     9     3    1
     4    18    17   ar
     5    18    14   ar
     6    19    17    1
     7    13    10    1
     8    11    10    1
     9     7     8    3
    10    17    16   ar
    11     8     2    1
    12    10    12    1
    13     3     2   ar
    14     3     4   ar
    15    23    25    1
    16    23    24    1
    17    23    22    1
    18     2     1   ar
    19    14     4    1
    20    14    15   ar
    21     4     5   ar
    22    16    15   ar
    23    16    22    1
    24    15    21    1
    25     1     5   ar
    26     1     6    1
    27    21    20    3
