@<TRIPOS>MOLECULE
mol_data/opt/cam/geoms/mol2/5dl5dl5dl-.out
 38 40 0 0 0
SMALL
GASTEIGER

@<TRIPOS>ATOM
      1 C          -1.9359   -1.8985    1.3746 C.ar    1  LIG1       -0.0027
      2 C          -1.0021   -2.0801    0.3896 C.ar    1  LIG1        0.1009
      3 C          -0.4777   -0.8312   -0.1041 C.ar    1  LIG1        0.1526
      4 C          -1.0363    0.2506    0.5348 C.ar    1  LIG1        0.0702
      5 S          -2.2050   -0.2522    1.7223 S.2     1  LIG1       -0.0910
      6 H          -2.4782   -2.6728    1.8972 H       1  LIG1        0.0708
      7 N          -0.4293   -4.4414   -0.4889 N.1     1  LIG1       -0.1907
      8 C          -0.6728   -3.3791   -0.1008 C.1     1  LIG1        0.1034
      9 O           0.3770   -0.6608   -1.1246 O.3     1  LIG1       -0.4927
     10 C           1.5115   -1.5298   -1.2311 C.3     1  LIG1        0.0789
     11 H           2.1698   -1.0585   -1.9585 H       1  LIG1        0.0660
     12 H           2.0333   -1.5998   -0.2743 H       1  LIG1        0.0660
     13 H           1.2183   -2.5195   -1.5836 H       1  LIG1        0.0660
     14 C          -0.7598    1.6572    0.2935 C.ar    1  LIG1        0.0511
     15 C           0.4657    2.2823    0.1925 C.ar    1  LIG1        0.1093
     16 C           0.3567    3.6962   -0.0544 C.ar    1  LIG1        0.1533
     17 C          -0.9497    4.1164   -0.1236 C.ar    1  LIG1        0.0707
     18 S          -2.0470    2.7845    0.0831 S.2     1  LIG1       -0.0820
     19 N           2.6860    0.9862    0.4322 N.1     1  LIG1       -0.1907
     20 C           1.6932    1.5701    0.3191 C.1     1  LIG1        0.1040
     21 O           1.3677    4.5508   -0.2864 O.3     1  LIG1       -0.4926
     22 C           2.5183    4.5132    0.5676 C.3     1  LIG1        0.0789
     23 H           3.0527    5.4419    0.3763 H       1  LIG1        0.0660
     24 H           2.2186    4.4896    1.6175 H       1  LIG1        0.0660
     25 H           3.1573    3.6619    0.3309 H       1  LIG1        0.0660
     26 C          -1.4374    5.4628   -0.3677 C.ar    1  LIG1        0.0505
     27 C          -1.0015    6.6485    0.1806 C.ar    1  LIG1        0.1086
     28 C          -1.7377    7.7899   -0.2982 C.ar    1  LIG1        0.1450
     29 C          -2.7115    7.4475   -1.1820 C.ar    1  LIG1        0.0193
     30 S          -2.7488    5.7489   -1.4625 S.2     1  LIG1       -0.0910
     31 H          -3.4095    8.1138   -1.6654 H       1  LIG1        0.0731
     32 N           0.8107    6.8492    2.0072 N.1     1  LIG1       -0.1907
     33 C           0.0038    6.7445    1.1840 C.1     1  LIG1        0.1040
     34 O          -1.5414    9.0575    0.1391 O.3     1  LIG1       -0.4933
     35 C          -0.3061    9.6584   -0.2472 C.3     1  LIG1        0.0789
     36 H          -0.3212   10.6691    0.1592 H       1  LIG1        0.0660
     37 H           0.5508    9.1187    0.1654 H       1  LIG1        0.0660
     38 H          -0.2229    9.7025   -1.3382 H       1  LIG1        0.0660
@<TRIPOS>BOND
     1    11    10    1
     2    31    29    1
     3    13    10    1
     4    30    29   ar
     5    30    26   ar
     6    38    35    1
     7    10     9    1
     8    10    12    1
     9    29    28   ar
    10     9     3    1
    11     7     8    3
    12    26    17    1
    13    26    27   ar
    14    28    34    1
    15    28    27   ar
    16    21    16    1
    17    21    22    1
    18    35    34    1
    19    35    36    1
    20    35    37    1
    21    17    16   ar
    22    17    18   ar
    23     3     2   ar
    24     3     4   ar
    25     8     2    1
    26    16    15   ar
    27    18    14   ar
    28    27    33    1
    29    15    14   ar
    30    15    20    1
    31    14     4    1
    32    20    19    3
    33    25    22    1
    34    23    22    1
    35     2     1   ar
    36     4     5   ar
    37    22    24    1
    38    33    32    3
    39     1     5   ar
    40     1     6    1
