@<TRIPOS>MOLECULE
mol_data/opt/cam/geoms/mol2/5dl5dl5dl-5dl.out
 50 53 0 0 0
SMALL
GASTEIGER

@<TRIPOS>ATOM
      1 C          -1.3890   -1.6808    2.3048 C.ar    1  LIG1       -0.0027
      2 C          -0.9122   -1.9872    1.0582 C.ar    1  LIG1        0.1009
      3 C          -0.5607   -0.8108    0.3028 C.ar    1  LIG1        0.1526
      4 C          -0.7828    0.3442    1.0153 C.ar    1  LIG1        0.0702
      5 S          -1.4301   -0.0020    2.5932 S.2     1  LIG1       -0.0910
      6 H          -1.7245   -2.3817    3.0551 H       1  LIG1        0.0708
      7 N          -0.8258   -4.4311    0.2243 N.1     1  LIG1       -0.1907
      8 C          -0.8543   -3.3331    0.5876 C.1     1  LIG1        0.1034
      9 O          -0.1546   -0.7621   -0.9751 O.3     1  LIG1       -0.4927
     10 C           0.8077   -1.7195   -1.4347 C.3     1  LIG1        0.0789
     11 H           1.1631   -1.3370   -2.3897 H       1  LIG1        0.0660
     12 H           1.6498   -1.7809   -0.7422 H       1  LIG1        0.0660
     13 H           0.3517   -2.7004   -1.5751 H       1  LIG1        0.0660
     14 C          -0.5551    1.7103    0.5740 C.ar    1  LIG1        0.0511
     15 C           0.5656    2.2349   -0.0371 C.ar    1  LIG1        0.1093
     16 C           0.4364    3.6371   -0.3363 C.ar    1  LIG1        0.1533
     17 C          -0.7721    4.1492    0.0714 C.ar    1  LIG1        0.0708
     18 S          -1.7689    2.9157    0.7826 S.2     1  LIG1       -0.0820
     19 N           2.6432    0.7891   -0.5467 N.1     1  LIG1       -0.1907
     20 C           1.7125    1.4404   -0.3254 C.1     1  LIG1        0.1040
     21 O           1.3087    4.4045   -1.0071 O.3     1  LIG1       -0.4926
     22 C           2.7102    4.2832   -0.7340 C.3     1  LIG1        0.0789
     23 H           3.1632    5.1871   -1.1368 H       1  LIG1        0.0660
     24 H           2.8933    4.2461    0.3419 H       1  LIG1        0.0660
     25 H           3.1309    3.4050   -1.2249 H       1  LIG1        0.0660
     26 C          -1.2441    5.5165   -0.0651 C.ar    1  LIG1        0.0511
     27 C          -0.5813    6.6857    0.2474 C.ar    1  LIG1        0.1093
     28 C          -1.3632    7.8637   -0.0216 C.ar    1  LIG1        0.1533
     29 C          -2.6080    7.5636   -0.5204 C.ar    1  LIG1        0.0707
     30 S          -2.8164    5.8469   -0.6909 S.2     1  LIG1       -0.0820
     31 N           1.8115    6.6858    1.2177 N.1     1  LIG1       -0.1907
     32 C           0.7408    6.6903    0.7781 C.1     1  LIG1        0.1040
     33 O          -0.9595    9.1400    0.0959 O.3     1  LIG1       -0.4926
     34 C          -0.2530    9.5408    1.2767 C.3     1  LIG1        0.0789
     35 H          -0.2976   10.6282    1.2875 H       1  LIG1        0.0660
     36 H          -0.7489    9.1597    2.1719 H       1  LIG1        0.0660
     37 H           0.7862    9.2118    1.2443 H       1  LIG1        0.0660
     38 C          -3.6548    8.4921   -0.9103 C.ar    1  LIG1        0.0505
     39 C          -4.0998    9.6141   -0.2472 C.ar    1  LIG1        0.1086
     40 C          -5.1686   10.2859   -0.9400 C.ar    1  LIG1        0.1450
     41 C          -5.5137    9.6600   -2.0959 C.ar    1  LIG1        0.0193
     42 S          -4.5490    8.2613   -2.3757 S.2     1  LIG1       -0.0910
     43 H          -6.2948    9.9520   -2.7811 H       1  LIG1        0.0731
     44 N          -3.2715   10.3784    2.0747 N.1     1  LIG1       -0.1907
     45 C          -3.6297   10.0271    1.0316 C.1     1  LIG1        0.1040
     46 O          -5.8183   11.3741   -0.4602 O.3     1  LIG1       -0.4933
     47 C          -5.0545   12.5785   -0.4156 C.3     1  LIG1        0.0789
     48 H          -5.7243   13.3475   -0.0323 H       1  LIG1        0.0660
     49 H          -4.1947   12.4858    0.2537 H       1  LIG1        0.0660
     50 H          -4.7124   12.8560   -1.4181 H       1  LIG1        0.0660
@<TRIPOS>BOND
     1    43    41    1
     2    11    10    1
     3    42    41   ar
     4    42    38   ar
     5    41    40   ar
     6    13    10    1
     7    10     9    1
     8    10    12    1
     9    50    47    1
    10    25    22    1
    11    23    22    1
    12    21    22    1
    13    21    16    1
    14     9     3    1
    15    40    46    1
    16    40    39   ar
    17    38    29    1
    18    38    39   ar
    19    22    24    1
    20    30    29   ar
    21    30    26   ar
    22    19    20    3
    23    29    28   ar
    24    46    47    1
    25    47    48    1
    26    47    49    1
    27    16    15   ar
    28    16    17   ar
    29    20    15    1
    30    39    45    1
    31    26    17    1
    32    26    27   ar
    33    15    14   ar
    34    28    33    1
    35    28    27   ar
    36    17    18   ar
    37    33    34    1
    38     7     8    3
    39    27    32    1
    40     3     4   ar
    41     3     2   ar
    42    14    18   ar
    43    14     4    1
    44     8     2    1
    45    32    31    3
    46     4     5   ar
    47    45    44    3
    48     2     1   ar
    49    37    34    1
    50    34    35    1
    51    34    36    1
    52     1     5   ar
    53     1     6    1
