@<TRIPOS>MOLECULE
mol_data/opt/cam/geoms/mol2/5dl5dl-5dl-5dl.out
 50 53 0 0 0
SMALL
GASTEIGER

@<TRIPOS>ATOM
      1 C          -2.3012   -1.9865    0.4825 C.ar    1  LIG1       -0.0027
      2 C          -0.9719   -2.0176    0.8096 C.ar    1  LIG1        0.1009
      3 C          -0.3314   -0.7408    0.6178 C.ar    1  LIG1        0.1526
      4 C          -1.2076    0.2098    0.1465 C.ar    1  LIG1        0.0702
      5 S          -2.8067   -0.4488   -0.0500 S.2     1  LIG1       -0.0910
      6 H          -2.9984   -2.8093    0.5450 H       1  LIG1        0.0708
      7 N           0.1150   -4.1552    1.7714 N.1     1  LIG1       -0.1907
      8 C          -0.3579   -3.1929    1.3370 C.1     1  LIG1        0.1034
      9 O           0.9323   -0.4153    0.9286 O.3     1  LIG1       -0.4927
     10 C           1.9837   -1.3398    0.6220 C.3     1  LIG1        0.0789
     11 H           2.9069   -0.7726    0.7249 H       1  LIG1        0.0660
     12 H           1.9854   -2.1793    1.3182 H       1  LIG1        0.0660
     13 H           1.8968   -1.6927   -0.4078 H       1  LIG1        0.0660
     14 C          -0.9213    1.6013   -0.1503 C.ar    1  LIG1        0.0511
     15 C           0.1642    2.1259   -0.8219 C.ar    1  LIG1        0.1093
     16 C           0.1110    3.5586   -0.9428 C.ar    1  LIG1        0.1533
     17 C          -1.0184    4.0914   -0.3698 C.ar    1  LIG1        0.0708
     18 S          -2.0101    2.8479    0.3337 S.2     1  LIG1       -0.0820
     19 N           1.9243    0.6263   -1.9699 N.1     1  LIG1       -0.1907
     20 C           1.1454    1.3013   -1.4432 C.1     1  LIG1        0.1040
     21 O           0.9686    4.3344   -1.6240 O.3     1  LIG1       -0.4926
     22 C           2.3772    4.1206   -1.4605 C.3     1  LIG1        0.0789
     23 H           2.8542    5.0080   -1.8720 H       1  LIG1        0.0660
     24 H           2.6331    4.0404   -0.4020 H       1  LIG1        0.0660
     25 H           2.7065    3.2355   -2.0059 H       1  LIG1        0.0660
     26 C          -1.4238    5.4857   -0.3366 C.ar    1  LIG1        0.0511
     27 C          -0.6708    6.5899    0.0065 C.ar    1  LIG1        0.1093
     28 C          -1.4097    7.8223   -0.0792 C.ar    1  LIG1        0.1533
     29 C          -2.7116    7.6267   -0.4725 C.ar    1  LIG1        0.0707
     30 S          -3.0299    5.9436   -0.7671 S.2     1  LIG1       -0.0820
     31 N           1.8008    6.3973    0.7277 N.1     1  LIG1       -0.1907
     32 C           0.6946    6.4872    0.3992 C.1     1  LIG1        0.1040
     33 O          -0.9264    9.0624    0.1059 O.3     1  LIG1       -0.4926
     34 C          -0.0915    9.3216    1.2419 C.3     1  LIG1        0.0789
     35 H          -0.0755   10.4045    1.3501 H       1  LIG1        0.0660
     36 H          -0.5218    8.8844    2.1454 H       1  LIG1        0.0660
     37 H           0.9204    8.9491    1.0797 H       1  LIG1        0.0660
     38 C          -3.7387    8.6340   -0.6736 C.ar    1  LIG1        0.0505
     39 C          -4.0557    9.7106    0.1245 C.ar    1  LIG1        0.1086
     40 C          -5.1473   10.4914   -0.3977 C.ar    1  LIG1        0.1450
     41 C          -5.6354    9.9896   -1.5625 C.ar    1  LIG1        0.0193
     42 S          -4.7805    8.5787   -2.0564 S.2     1  LIG1       -0.0910
     43 H          -6.4613   10.3784   -2.1384 H       1  LIG1        0.0731
     44 N          -2.9686   10.2219    2.4088 N.1     1  LIG1       -0.1907
     45 C          -3.4433    9.9834    1.3803 C.1     1  LIG1        0.1040
     46 O          -5.6872   11.5607    0.2359 O.3     1  LIG1       -0.4933
     47 C          -4.8562   12.7183    0.3097 C.3     1  LIG1        0.0789
     48 H          -5.4442   13.4807    0.8195 H       1  LIG1        0.0660
     49 H          -3.9455   12.5246    0.8832 H       1  LIG1        0.0660
     50 H          -4.5919   13.0684   -0.6937 H       1  LIG1        0.0660
@<TRIPOS>BOND
     1    43    41    1
     2    42    41   ar
     3    42    38   ar
     4    25    22    1
     5    19    20    3
     6    23    22    1
     7    21    22    1
     8    21    16    1
     9    41    40   ar
    10    22    24    1
    11    20    15    1
    12    16    15   ar
    13    16    17   ar
    14    15    14   ar
    15    30    29   ar
    16    30    26   ar
    17    50    47    1
    18    38    29    1
    19    38    39   ar
    20    29    28   ar
    21    13    10    1
    22    40    39   ar
    23    40    46    1
    24    17    26    1
    25    17    18   ar
    26    26    27   ar
    27    14     4    1
    28    14    18   ar
    29    28    27   ar
    30    28    33    1
    31     5     4   ar
    32     5     1   ar
    33    27    32    1
    34    33    34    1
    35    39    45    1
    36     4     3   ar
    37    46    47    1
    38    47    48    1
    39    47    49    1
    40    32    31    3
    41     1     6    1
    42     1     2   ar
    43     3     2   ar
    44     3     9    1
    45    10    11    1
    46    10     9    1
    47    10    12    1
    48     2     8    1
    49    37    34    1
    50    34    35    1
    51    34    36    1
    52     8     7    3
    53    45    44    3
