@<TRIPOS>MOLECULE
mol_data/opt/cam/geoms/mol2/5dl5dl-5dl5dl-.out
 50 53 0 0 0
SMALL
GASTEIGER

@<TRIPOS>ATOM
      1 C          -1.3582   -1.6844    2.3169 C.ar    1  LIG1       -0.0027
      2 C          -0.9010   -1.9891    1.0626 C.ar    1  LIG1        0.1009
      3 C          -0.5603   -0.8117    0.3038 C.ar    1  LIG1        0.1526
      4 C          -0.7706    0.3422    1.0215 C.ar    1  LIG1        0.0702
      5 S          -1.3936   -0.0061    2.6087 S.2     1  LIG1       -0.0910
      6 H          -1.6827   -2.3864    3.0712 H       1  LIG1        0.0708
      7 N          -0.8293   -4.4317    0.2235 N.1     1  LIG1       -0.1907
      8 C          -0.8514   -3.3343    0.5891 C.1     1  LIG1        0.1034
      9 O          -0.1740   -0.7612   -0.9801 O.3     1  LIG1       -0.4927
     10 C           0.7804   -1.7186   -1.4561 C.3     1  LIG1        0.0789
     11 H           1.1212   -1.3348   -2.4158 H       1  LIG1        0.0660
     12 H           1.6331   -1.7817   -0.7768 H       1  LIG1        0.0660
     13 H           0.3215   -2.6989   -1.5910 H       1  LIG1        0.0660
     14 C          -0.5486    1.7089    0.5790 C.ar    1  LIG1        0.0511
     15 C           0.5628    2.2337   -0.0485 C.ar    1  LIG1        0.1093
     16 C           0.4301    3.6364   -0.3434 C.ar    1  LIG1        0.1533
     17 C          -0.7716    4.1487    0.0838 C.ar    1  LIG1        0.0708
     18 S          -1.7582    2.9148    0.8083 S.2     1  LIG1       -0.0820
     19 N           2.6313    0.7872   -0.5924 N.1     1  LIG1       -0.1907
     20 C           1.7046    1.4388   -0.3558 C.1     1  LIG1        0.1040
     21 O           1.2925    4.4043   -1.0263 O.3     1  LIG1       -0.4926
     22 C           2.6980    4.2816   -0.7751 C.3     1  LIG1        0.0789
     23 H           3.1454    5.1858   -1.1834 H       1  LIG1        0.0660
     24 H           2.8976    4.2426    0.2978 H       1  LIG1        0.0660
     25 H           3.1104    3.4039   -1.2738 H       1  LIG1        0.0660
     26 C          -1.2446    5.5166   -0.0432 C.ar    1  LIG1        0.0511
     27 C          -0.5762    6.6848    0.2609 C.ar    1  LIG1        0.1093
     28 C          -1.3613    7.8638    0.0060 C.ar    1  LIG1        0.1533
     29 C          -2.6139    7.5655   -0.4741 C.ar    1  LIG1        0.0707
     30 S          -2.8262    5.8492   -0.6441 S.2     1  LIG1       -0.0820
     31 N           1.8313    6.6816    1.1941 N.1     1  LIG1       -0.1907
     32 C           0.7540    6.6876    0.7712 C.1     1  LIG1        0.1040
     33 O          -0.9548    9.1396    0.1193 O.3     1  LIG1       -0.4926
     34 C          -0.2299    9.5380    1.2897 C.3     1  LIG1        0.0789
     35 H          -0.2736   10.6254    1.3029 H       1  LIG1        0.0660
     36 H          -0.7122    9.1558    2.1918 H       1  LIG1        0.0660
     37 H           0.8084    9.2083    1.2407 H       1  LIG1        0.0660
     38 C          -3.6658    8.4954   -0.8463 C.ar    1  LIG1        0.0505
     39 C          -4.0997    9.6166   -0.1745 C.ar    1  LIG1        0.1086
     40 C          -5.1786   10.2903   -0.8497 C.ar    1  LIG1        0.1450
     41 C          -5.5419    9.6666   -2.0012 C.ar    1  LIG1        0.0193
     42 S          -4.5827    8.2676   -2.2981 S.2     1  LIG1       -0.0910
     43 H          -6.3332    9.9602   -2.6738 H       1  LIG1        0.0731
     44 N          -3.2351   10.3764    2.1355 N.1     1  LIG1       -0.1907
     45 C          -3.6097   10.0272    1.0974 C.1     1  LIG1        0.1040
     46 O          -5.8200   11.3782   -0.3582 O.3     1  LIG1       -0.4933
     47 C          -5.0547   12.5819   -0.3234 C.3     1  LIG1        0.0789
     48 H          -5.7179   13.3508    0.0714 H       1  LIG1        0.0660
     49 H          -4.1848   12.4875    0.3324 H       1  LIG1        0.0660
     50 H          -4.7278   12.8608   -1.3307 H       1  LIG1        0.0660
@<TRIPOS>BOND
     1    43    41    1
     2    11    10    1
     3    42    41   ar
     4    42    38   ar
     5    41    40   ar
     6    13    10    1
     7    10     9    1
     8    10    12    1
     9    50    47    1
    10    25    22    1
    11    23    22    1
    12    21    22    1
    13    21    16    1
    14     9     3    1
    15    40    46    1
    16    40    39   ar
    17    38    29    1
    18    38    39   ar
    19    22    24    1
    20    30    29   ar
    21    30    26   ar
    22    19    20    3
    23    29    28   ar
    24    46    47    1
    25    20    15    1
    26    16    15   ar
    27    16    17   ar
    28    47    48    1
    29    47    49    1
    30    39    45    1
    31    15    14   ar
    32    26    17    1
    33    26    27   ar
    34    28    33    1
    35    28    27   ar
    36    17    18   ar
    37    33    34    1
    38     7     8    3
    39    27    32    1
    40     3     4   ar
    41     3     2   ar
    42    14    18   ar
    43    14     4    1
    44     8     2    1
    45    32    31    3
    46     4     5   ar
    47     2     1   ar
    48    45    44    3
    49    37    34    1
    50    34    35    1
    51    34    36    1
    52     1     5   ar
    53     1     6    1
