@<TRIPOS>MOLECULE
mol_data/opt/cam/geoms/mol2/5dl5dl-5dl.out
 38 40 0 0 0
SMALL
GASTEIGER

@<TRIPOS>ATOM
      1 C          -1.9237   -1.9025    1.3757 C.ar    1  LIG1       -0.0027
      2 C          -0.9953   -2.0816    0.3852 C.ar    1  LIG1        0.1009
      3 C          -0.4748   -0.8314   -0.1092 C.ar    1  LIG1        0.1526
      4 C          -1.0307    0.2489    0.5346 C.ar    1  LIG1        0.0702
      5 S          -2.1923   -0.2571    1.7278 S.2     1  LIG1       -0.0910
      6 H          -2.4625   -2.6782    1.9000 H       1  LIG1        0.0708
      7 N          -0.4253   -4.4409   -0.5006 N.1     1  LIG1       -0.1907
      8 C          -0.6676   -3.3794   -0.1093 C.1     1  LIG1        0.1034
      9 O           0.3740   -0.6584   -1.1342 O.3     1  LIG1       -0.4927
     10 C           1.5087   -1.5262   -1.2485 C.3     1  LIG1        0.0789
     11 H           2.1626   -1.0531   -1.9788 H       1  LIG1        0.0660
     12 H           2.0359   -1.5974   -0.2948 H       1  LIG1        0.0660
     13 H           1.2145   -2.5155   -1.6011 H       1  LIG1        0.0660
     14 C          -0.7568    1.6561    0.2943 C.ar    1  LIG1        0.0511
     15 C           0.4676    2.2825    0.1876 C.ar    1  LIG1        0.1093
     16 C           0.3559    3.6967   -0.0563 C.ar    1  LIG1        0.1533
     17 C          -0.9513    4.1158   -0.1175 C.ar    1  LIG1        0.0707
     18 S          -2.0462    2.7826    0.0930 S.2     1  LIG1       -0.0820
     19 N           2.6903    0.9879    0.4126 N.1     1  LIG1       -0.1907
     20 C           1.6963    1.5711    0.3060 C.1     1  LIG1        0.1040
     21 O           1.3649    4.5526   -0.2925 O.3     1  LIG1       -0.4926
     22 C           2.5202    4.5145    0.5551 C.3     1  LIG1        0.0789
     23 H           3.0527    5.4440    0.3625 H       1  LIG1        0.0660
     24 H           2.2264    4.4889    1.6066 H       1  LIG1        0.0660
     25 H           3.1586    3.6642    0.3133 H       1  LIG1        0.0660
     26 C          -1.4415    5.4622   -0.3565 C.ar    1  LIG1        0.0505
     27 C          -1.0036    6.6474    0.1914 C.ar    1  LIG1        0.1086
     28 C          -1.7434    7.7889   -0.2813 C.ar    1  LIG1        0.1450
     29 C          -2.7219    7.4472   -1.1603 C.ar    1  LIG1        0.0193
     30 S          -2.7592    5.7490   -1.4435 S.2     1  LIG1       -0.0910
     31 H          -3.4231    8.1137   -1.6386 H       1  LIG1        0.0731
     32 N           0.8186    6.8465    2.0083 N.1     1  LIG1       -0.1907
     33 C           0.0072    6.7426    1.1893 C.1     1  LIG1        0.1040
     34 O          -1.5458    9.0559    0.1571 O.3     1  LIG1       -0.4933
     35 C          -0.3133    9.6586   -0.2350 C.3     1  LIG1        0.0789
     36 H          -0.3269   10.6686    0.1733 H       1  LIG1        0.0660
     37 H           0.5464    9.1189    0.1719 H       1  LIG1        0.0660
     38 H          -0.2361    9.7046   -1.3264 H       1  LIG1        0.0660
@<TRIPOS>BOND
     1    11    10    1
     2    31    29    1
     3    13    10    1
     4    30    29   ar
     5    30    26   ar
     6    38    35    1
     7    10     9    1
     8    10    12    1
     9    29    28   ar
    10     9     3    1
    11     7     8    3
    12    26    17    1
    13    26    27   ar
    14    21    16    1
    15    21    22    1
    16    28    34    1
    17    28    27   ar
    18    35    34    1
    19    35    37    1
    20    35    36    1
    21    17    16   ar
    22    17    18   ar
    23     8     2    1
    24     3     2   ar
    25     3     4   ar
    26    16    15   ar
    27    18    14   ar
    28    15    14   ar
    29    15    20    1
    30    27    33    1
    31    14     4    1
    32    20    19    3
    33    25    22    1
    34    23    22    1
    35     2     1   ar
    36     4     5   ar
    37    22    24    1
    38    33    32    3
    39     1     5   ar
    40     1     6    1
