@<TRIPOS>MOLECULE
mol_data/opt/cam/geoms/mol2/5ea.out
 11 11 0 0 0
SMALL
GASTEIGER

@<TRIPOS>ATOM
      1 C          -2.0755   -1.6854   -0.0001 C.ar    1  LIG1       -0.0089
      2 C          -0.7062   -1.6715   -0.0000 C.ar    1  LIG1        0.0317
      3 C          -0.1830   -0.3344    0.0002 C.ar    1  LIG1       -0.0393
      4 C          -1.1585    0.6085    0.0003 C.ar    1  LIG1       -0.0231
      5 S          -2.7324   -0.0992    0.0002 S.2     1  LIG1       -0.1038
      6 H          -2.7193   -2.5523   -0.0002 H       1  LIG1        0.0706
      7 H          -1.0457    1.6828    0.0004 H       1  LIG1        0.0694
      8 C           0.1047   -2.8453   -0.0001 C.1     1  LIG1       -0.0691
      9 C           0.7987   -3.8288   -0.0004 C.1     1  LIG1       -0.1139
     10 H           1.4094   -4.7020   -0.0019 H       1  LIG1        0.1232
     11 H           0.8765   -0.1138    0.0002 H       1  LIG1        0.0635
@<TRIPOS>BOND
     1    10     9    1
     2     9     8    3
     3     6     1    1
     4     8     2    1
     5     1     2   ar
     6     1     5   ar
     7     2     3   ar
     8     5     4   ar
     9     3    11    1
    10     3     4   ar
    11     4     7    1
