@<TRIPOS>MOLECULE
mol_data/opt/cam/geoms/mol2/5ea5ea5ea-5ea-.out
 38 41 0 0 0
SMALL
GASTEIGER

@<TRIPOS>ATOM
      1 C          -2.0952   -1.8951   -0.2281 C.ar    1  LIG1       -0.0083
      2 C          -0.7409   -1.9130   -0.4321 C.ar    1  LIG1        0.0323
      3 C          -0.1606   -0.6107   -0.3206 C.ar    1  LIG1       -0.0310
      4 C          -1.0746    0.3636   -0.0327 C.ar    1  LIG1        0.0283
      5 S          -2.6742   -0.3183    0.1138 S.2     1  LIG1       -0.0949
      6 H          -2.7719   -2.7361   -0.2587 H       1  LIG1        0.0706
      7 C           0.0038   -3.0927   -0.7317 C.1     1  LIG1       -0.0691
      8 C           0.6384   -4.0835   -0.9845 C.1     1  LIG1       -0.1139
      9 H           1.1979   -4.9621   -1.2093 H       1  LIG1        0.1232
     10 H           0.8928   -0.4149   -0.4602 H       1  LIG1        0.0641
     11 C          -0.8446    1.7861    0.1494 C.ar    1  LIG1        0.0419
     12 C           0.3013    2.4282    0.5798 C.ar    1  LIG1        0.0405
     13 C           0.1503    3.8457    0.6426 C.ar    1  LIG1       -0.0304
     14 C          -1.0883    4.2822    0.2674 C.ar    1  LIG1        0.0289
     15 S          -2.0918    2.9376   -0.2039 S.2     1  LIG1       -0.0859
     16 C           1.5089    1.7763    0.9640 C.1     1  LIG1       -0.0685
     17 C           2.5451    1.2600    1.2952 C.1     1  LIG1       -0.1139
     18 H           3.4562    0.7955    1.5950 H       1  LIG1        0.1232
     19 H           0.9375    4.5061    0.9763 H       1  LIG1        0.0641
     20 C          -1.5897    5.6430    0.2246 C.ar    1  LIG1        0.0419
     21 C          -0.8807    6.8221    0.0861 C.ar    1  LIG1        0.0405
     22 C          -1.7206    7.9758    0.0925 C.ar    1  LIG1       -0.0304
     23 C          -3.0483    7.6872    0.2238 C.ar    1  LIG1        0.0289
     24 S          -3.2891    5.9665    0.3539 S.2     1  LIG1       -0.0859
     25 C           0.5331    6.9162   -0.0636 C.1     1  LIG1       -0.0685
     26 C           1.7245    7.0359   -0.1918 C.1     1  LIG1       -0.1139
     27 H           2.7789    7.1346   -0.3116 H       1  LIG1        0.1232
     28 H          -1.3374    8.9820    0.0020 H       1  LIG1        0.0641
     29 C          -4.1718    8.6075    0.2632 C.ar    1  LIG1        0.0413
     30 C          -4.2718    9.8682   -0.2942 C.ar    1  LIG1        0.0399
     31 C          -5.5438   10.4786   -0.0438 C.ar    1  LIG1       -0.0387
     32 C          -6.3769    9.6914    0.6797 C.ar    1  LIG1       -0.0225
     33 S          -5.6376    8.1920    1.0960 S.2     1  LIG1       -0.0949
     34 H          -7.3862    9.9048    0.9997 H       1  LIG1        0.0694
     35 C          -3.2566   10.5105   -1.0594 C.1     1  LIG1       -0.0685
     36 C          -2.4232   11.0868   -1.7106 C.1     1  LIG1       -0.1139
     37 H          -1.6835   11.5865   -2.2928 H       1  LIG1        0.1232
     38 H          -5.8012   11.4641   -0.4091 H       1  LIG1        0.0635
@<TRIPOS>BOND
     1    37    36    1
     2    36    35    3
     3     9     8    1
     4    35    30    1
     5     8     7    3
     6     7     2    1
     7    10     3    1
     8     2     3   ar
     9     2     1   ar
    10    38    31    1
    11     3     4   ar
    12    27    26    1
    13    30    31   ar
    14    30    29   ar
    15     6     1    1
    16     1     5   ar
    17    15    11   ar
    18    15    14   ar
    19    26    25    3
    20    25    21    1
    21    31    32   ar
    22     4     5   ar
    23     4    11    1
    24    28    22    1
    25    21    22   ar
    26    21    20   ar
    27    22    23   ar
    28    11    12   ar
    29    23    29    1
    30    23    24   ar
    31    20    14    1
    32    20    24   ar
    33    29    33   ar
    34    14    13   ar
    35    12    13   ar
    36    12    16    1
    37    13    19    1
    38    32    34    1
    39    32    33   ar
    40    16    17    3
    41    17    18    1
