@<TRIPOS>MOLECULE
mol_data/opt/cam/geoms/mol2/5ea5ea-5ea5ea.out
 38 41 0 0 0
SMALL
GASTEIGER

@<TRIPOS>ATOM
      1 C          -2.0874   -1.9240    0.2269 C.ar    1  LIG1       -0.0083
      2 C          -0.7593   -1.9594   -0.1064 C.ar    1  LIG1        0.0323
      3 C          -0.1842   -0.6517   -0.1733 C.ar    1  LIG1       -0.0310
      4 C          -1.0757    0.3442    0.1114 C.ar    1  LIG1        0.0283
      5 S          -2.6463   -0.3228    0.4767 S.2     1  LIG1       -0.0949
      6 H          -2.7551   -2.7650    0.3409 H       1  LIG1        0.0706
      7 C          -0.0355   -3.1610   -0.3674 C.1     1  LIG1       -0.0691
      8 C           0.5814   -4.1704   -0.5887 C.1     1  LIG1       -0.1139
      9 H           1.1251   -5.0655   -0.7853 H       1  LIG1        0.1232
     10 H           0.8485   -0.4686   -0.4333 H       1  LIG1        0.0641
     11 C          -0.8441    1.7779    0.1358 C.ar    1  LIG1        0.0419
     12 C           0.3319    2.4595    0.3869 C.ar    1  LIG1        0.0405
     13 C           0.1727    3.8763    0.3306 C.ar    1  LIG1       -0.0304
     14 C          -1.1017    4.2734    0.0416 C.ar    1  LIG1        0.0289
     15 S          -2.1329    2.8889   -0.1975 S.2     1  LIG1       -0.0859
     16 C           1.5787    1.8485    0.7082 C.1     1  LIG1       -0.0685
     17 C           2.6480    1.3671    0.9817 C.1     1  LIG1       -0.1139
     18 H           3.5892    0.9341    1.2317 H       1  LIG1        0.1232
     19 H           0.9819    4.5666    0.5200 H       1  LIG1        0.0641
     20 C          -1.6199    5.6229   -0.0800 C.ar    1  LIG1        0.0419
     21 C          -0.9435    6.7829   -0.4101 C.ar    1  LIG1        0.0405
     22 C          -1.7937    7.9286   -0.4395 C.ar    1  LIG1       -0.0304
     23 C          -3.0963    7.6526   -0.1386 C.ar    1  LIG1        0.0289
     24 S          -3.2949    5.9593    0.2198 S.2     1  LIG1       -0.0859
     25 C           0.4428    6.8595   -0.7302 C.1     1  LIG1       -0.0685
     26 C           1.6105    6.9633   -1.0058 C.1     1  LIG1       -0.1139
     27 H           2.6428    7.0470   -1.2572 H       1  LIG1        0.1232
     28 H          -1.4395    8.9168   -0.6957 H       1  LIG1        0.0641
     29 C          -4.2237    8.5671   -0.0867 C.ar    1  LIG1        0.0413
     30 C          -4.2204    9.9239    0.1758 C.ar    1  LIG1        0.0399
     31 C          -5.5353   10.4923    0.1383 C.ar    1  LIG1       -0.0387
     32 C          -6.4992    9.5812   -0.1408 C.ar    1  LIG1       -0.0225
     33 S          -5.8402    8.0083   -0.3852 S.2     1  LIG1       -0.0949
     34 H          -7.5644    9.7408   -0.2227 H       1  LIG1        0.0694
     35 C          -3.0638   10.6984    0.4783 C.1     1  LIG1       -0.0685
     36 C          -2.1100   11.3868    0.7369 C.1     1  LIG1       -0.1139
     37 H          -1.2619   11.9877    0.9725 H       1  LIG1        0.1232
     38 H          -5.7241   11.5414    0.3244 H       1  LIG1        0.0635
@<TRIPOS>BOND
     1    27    26    1
     2    26    25    3
     3     9     8    1
     4    25    21    1
     5    28    22    1
     6     8     7    3
     7    22    21   ar
     8    22    23   ar
     9    10     3    1
    10    21    20   ar
    11    33    32   ar
    12    33    29   ar
    13     7     2    1
    14    34    32    1
    15    15    14   ar
    16    15    11   ar
    17     3     2   ar
    18     3     4   ar
    19    32    31   ar
    20    23    29    1
    21    23    24   ar
    22     2     1   ar
    23    29    30   ar
    24    20    14    1
    25    20    24   ar
    26    14    13   ar
    27     4    11    1
    28     4     5   ar
    29    11    12   ar
    30    31    30   ar
    31    31    38    1
    32    30    35    1
    33     1     6    1
    34     1     5   ar
    35    13    12   ar
    36    13    19    1
    37    12    16    1
    38    35    36    3
    39    16    17    3
    40    36    37    1
    41    17    18    1
