@<TRIPOS>MOLECULE
mol_data/opt/cam/geoms/mol2/5ea5ea5ea5ea.out
 38 41 0 0 0
SMALL
GASTEIGER

@<TRIPOS>ATOM
      1 C          -2.0902   -1.9229    0.2335 C.ar    1  LIG1       -0.0083
      2 C          -0.7600   -1.9599   -0.0911 C.ar    1  LIG1        0.0323
      3 C          -0.1841   -0.6526   -0.1598 C.ar    1  LIG1       -0.0310
      4 C          -1.0773    0.3446    0.1147 C.ar    1  LIG1        0.0283
      5 S          -2.6504   -0.3205    0.4724 S.2     1  LIG1       -0.0949
      6 H          -2.7589   -2.7632    0.3468 H       1  LIG1        0.0706
      7 C          -0.0348   -3.1628   -0.3421 C.1     1  LIG1       -0.0691
      8 C           0.5833   -4.1733   -0.5550 C.1     1  LIG1       -0.1139
      9 H           1.1282   -5.0693   -0.7439 H       1  LIG1        0.1232
     10 H           0.8502   -0.4709   -0.4139 H       1  LIG1        0.0641
     11 C          -0.8455    1.7783    0.1345 C.ar    1  LIG1        0.0419
     12 C           0.3290    2.4607    0.3907 C.ar    1  LIG1        0.0405
     13 C           0.1705    3.8774    0.3272 C.ar    1  LIG1       -0.0304
     14 C          -1.1019    4.2735    0.0280 C.ar    1  LIG1        0.0289
     15 S          -2.1317    2.8882   -0.2124 S.2     1  LIG1       -0.0859
     16 C           1.5733    1.8508    0.7231 C.1     1  LIG1       -0.0685
     17 C           2.6407    1.3704    1.0059 C.1     1  LIG1       -0.1139
     18 H           3.5801    0.9384    1.2643 H       1  LIG1        0.1232
     19 H           0.9786    4.5683    0.5192 H       1  LIG1        0.0641
     20 C          -1.6189    5.6226   -0.1027 C.ar    1  LIG1        0.0419
     21 C          -0.9399    6.7810   -0.4332 C.ar    1  LIG1        0.0405
     22 C          -1.7896    7.9268   -0.4732 C.ar    1  LIG1       -0.0304
     23 C          -3.0943    7.6524   -0.1801 C.ar    1  LIG1        0.0289
     24 S          -3.2958    5.9607    0.1844 S.2     1  LIG1       -0.0859
     25 C           0.4485    6.8560   -0.7443 C.1     1  LIG1       -0.0685
     26 C           1.6181    6.9583   -1.0123 C.1     1  LIG1       -0.1139
     27 H           2.6519    7.0404   -1.2580 H       1  LIG1        0.1232
     28 H          -1.4335    8.9138   -0.7312 H       1  LIG1        0.0641
     29 C          -4.2218    8.5672   -0.1398 C.ar    1  LIG1        0.0413
     30 C          -4.2201    9.9252    0.1171 C.ar    1  LIG1        0.0399
     31 C          -5.5345   10.4936    0.0679 C.ar    1  LIG1       -0.0387
     32 C          -6.4967    9.5816   -0.2141 C.ar    1  LIG1       -0.0225
     33 S          -5.8365    8.0075   -0.4470 S.2     1  LIG1       -0.0949
     34 H          -7.5612    9.7411   -0.3041 H       1  LIG1        0.0694
     35 C          -3.0655   10.7006    0.4244 C.1     1  LIG1       -0.0685
     36 C          -2.1133   11.3899    0.6866 C.1     1  LIG1       -0.1139
     37 H          -1.2666   11.9919    0.9247 H       1  LIG1        0.1232
     38 H          -5.7244   11.5436    0.2482 H       1  LIG1        0.0635
@<TRIPOS>BOND
     1    27    26    1
     2    26    25    3
     3    25    21    1
     4     9     8    1
     5    28    22    1
     6     8     7    3
     7    22    21   ar
     8    22    23   ar
     9    33    32   ar
    10    33    29   ar
    11    21    20   ar
    12    10     3    1
    13     7     2    1
    14    34    32    1
    15    32    31   ar
    16    15    14   ar
    17    15    11   ar
    18    23    29    1
    19    23    24   ar
    20     3     2   ar
    21     3     4   ar
    22    29    30   ar
    23    20    14    1
    24    20    24   ar
    25     2     1   ar
    26    14    13   ar
    27    31    30   ar
    28    31    38    1
    29     4    11    1
    30     4     5   ar
    31    30    35    1
    32    11    12   ar
    33     1     6    1
    34     1     5   ar
    35    13    12   ar
    36    13    19    1
    37    12    16    1
    38    35    36    3
    39    36    37    1
    40    16    17    3
    41    17    18    1
