@<TRIPOS>MOLECULE
mol_data/opt/cam/geoms/mol2/5ea5ea-5ea-.out
 29 31 0 0 0
SMALL
GASTEIGER

@<TRIPOS>ATOM
      1 C          -2.0437   -1.8873   -0.3063 C.ar    1  LIG1       -0.0083
      2 C          -0.7251   -1.8927    0.0643 C.ar    1  LIG1        0.0323
      3 C          -0.1800   -0.5726    0.1406 C.ar    1  LIG1       -0.0310
      4 C          -1.0840    0.4026   -0.1741 C.ar    1  LIG1        0.0283
      5 S          -2.6292   -0.2995   -0.5800 S.2     1  LIG1       -0.0949
      6 H          -2.6900   -2.7429   -0.4344 H       1  LIG1        0.0706
      7 C           0.0164   -3.0774    0.3517 C.1     1  LIG1       -0.0691
      8 C           0.6480   -4.0724    0.5955 C.1     1  LIG1       -0.1139
      9 H           1.2049   -4.9548    0.8119 H       1  LIG1        0.1232
     10 H           0.8408   -0.3662    0.4284 H       1  LIG1        0.0641
     11 C          -0.8819    1.8409   -0.2005 C.ar    1  LIG1        0.0419
     12 C           0.2858    2.5457   -0.4230 C.ar    1  LIG1        0.0405
     13 C           0.0946    3.9597   -0.3806 C.ar    1  LIG1       -0.0304
     14 C          -1.1948    4.3309   -0.1303 C.ar    1  LIG1        0.0289
     15 S          -2.2025    2.9267    0.0898 S.2     1  LIG1       -0.0859
     16 C           1.5539    1.9598   -0.7049 C.1     1  LIG1       -0.0685
     17 C           2.6410    1.5006   -0.9447 C.1     1  LIG1       -0.1139
     18 H           3.5982    1.0868   -1.1646 H       1  LIG1        0.1232
     19 H           0.8942    4.6663   -0.5508 H       1  LIG1        0.0641
     20 C          -1.7447    5.6718   -0.0309 C.ar    1  LIG1        0.0413
     21 C          -1.1052    6.8399    0.3383 C.ar    1  LIG1        0.0399
     22 C          -1.9807    7.9742    0.3167 C.ar    1  LIG1       -0.0387
     23 C          -3.2458    7.6609   -0.0551 C.ar    1  LIG1       -0.0225
     24 S          -3.4106    5.9827   -0.4088 S.2     1  LIG1       -0.0949
     25 H          -4.0965    8.3200   -0.1478 H       1  LIG1        0.0694
     26 C           0.2616    6.9395    0.7270 C.1     1  LIG1       -0.0685
     27 C           1.4120    7.0647    1.0609 C.1     1  LIG1       -0.1139
     28 H           2.4293    7.1656    1.3622 H       1  LIG1        0.1232
     29 H          -1.6525    8.9708    0.5811 H       1  LIG1        0.0635
@<TRIPOS>BOND
     1    18    17    1
     2    17    16    3
     3    16    12    1
     4     5     1   ar
     5     5     4   ar
     6    19    13    1
     7     6     1    1
     8    12    13   ar
     9    12    11   ar
    10    24    23   ar
    11    24    20   ar
    12    13    14   ar
    13     1     2   ar
    14    11     4    1
    15    11    15   ar
    16     4     3   ar
    17    25    23    1
    18    14    20    1
    19    14    15   ar
    20    23    22   ar
    21    20    21   ar
    22     2     3   ar
    23     2     7    1
    24     3    10    1
    25    22    21   ar
    26    22    29    1
    27    21    26    1
    28     7     8    3
    29     8     9    1
    30    26    27    3
    31    27    28    1
