@<TRIPOS>MOLECULE
mol_data/opt/cam/geoms/mol2/5ea5ea5ea-5ea.out
 38 41 0 0 0
SMALL
GASTEIGER

@<TRIPOS>ATOM
      1 C          -2.1113   -1.9248    0.0652 C.ar    1  LIG1       -0.0083
      2 C          -0.7667   -1.9586   -0.1935 C.ar    1  LIG1        0.0323
      3 C          -0.1860   -0.6516   -0.2062 C.ar    1  LIG1       -0.0310
      4 C          -1.0901    0.3420    0.0444 C.ar    1  LIG1        0.0283
      5 S          -2.6802   -0.3263    0.3095 S.2     1  LIG1       -0.0949
      6 H          -2.7861   -2.7655    0.1276 H       1  LIG1        0.0706
      7 C          -0.0318   -3.1579   -0.4332 C.1     1  LIG1       -0.0691
      8 C           0.5945   -4.1654   -0.6362 C.1     1  LIG1       -0.1139
      9 H           1.1467   -5.0587   -0.8165 H       1  LIG1        0.1232
     10 H           0.8600   -0.4674   -0.4047 H       1  LIG1        0.0641
     11 C          -0.8574    1.7744    0.1056 C.ar    1  LIG1        0.0419
     12 C           0.3040    2.4483    0.4339 C.ar    1  LIG1        0.0405
     13 C           0.1510    3.8663    0.3923 C.ar    1  LIG1       -0.0304
     14 C          -1.1043    4.2720    0.0387 C.ar    1  LIG1        0.0289
     15 S          -2.1231    2.8946   -0.2813 S.2     1  LIG1       -0.0859
     16 C           1.5294    1.8284    0.8147 C.1     1  LIG1       -0.0685
     17 C           2.5806    1.3395    1.1399 C.1     1  LIG1       -0.1139
     18 H           3.5054    0.8997    1.4354 H       1  LIG1        0.1232
     19 H           0.9497    4.5511    0.6385 H       1  LIG1        0.0641
     20 C          -1.6121    5.6247   -0.0893 C.ar    1  LIG1        0.0419
     21 C          -0.9158    6.7881   -0.3613 C.ar    1  LIG1        0.0405
     22 C          -1.7608    7.9366   -0.4195 C.ar    1  LIG1       -0.0304
     23 C          -3.0789    7.6594   -0.1974 C.ar    1  LIG1        0.0289
     24 S          -3.3007    5.9610    0.1211 S.2     1  LIG1       -0.0859
     25 C           0.4864    6.8660   -0.6014 C.1     1  LIG1       -0.0685
     26 C           1.6681    6.9709   -0.8087 C.1     1  LIG1       -0.1139
     27 H           2.7130    7.0556   -1.0005 H       1  LIG1        0.1232
     28 H          -1.3908    8.9278   -0.6388 H       1  LIG1        0.0641
     29 C          -4.2057    8.5761   -0.1940 C.ar    1  LIG1        0.0413
     30 C          -4.2147    9.9284    0.0909 C.ar    1  LIG1        0.0399
     31 C          -5.5242   10.5010   -0.0115 C.ar    1  LIG1       -0.0387
     32 C          -6.4726    9.5974   -0.3598 C.ar    1  LIG1       -0.0225
     33 S          -5.8038    8.0268   -0.5925 S.2     1  LIG1       -0.0949
     34 H          -7.5310    9.7614   -0.4991 H       1  LIG1        0.0694
     35 C          -3.0755   10.6944    0.4712 C.1     1  LIG1       -0.0685
     36 C          -2.1365   11.3758    0.7946 C.1     1  LIG1       -0.1139
     37 H          -1.3019   11.9704    1.0871 H       1  LIG1        0.1232
     38 H          -5.7212   11.5475    0.1811 H       1  LIG1        0.0635
@<TRIPOS>BOND
     1    27    26    1
     2     9     8    1
     3    26    25    3
     4    28    22    1
     5     8     7    3
     6    25    21    1
     7    33    32   ar
     8    33    29   ar
     9    34    32    1
    10     7     2    1
    11    22    21   ar
    12    22    23   ar
    13    10     3    1
    14    21    20   ar
    15    32    31   ar
    16    15    14   ar
    17    15    11   ar
    18     3     2   ar
    19     3     4   ar
    20    23    29    1
    21    23    24   ar
    22    29    30   ar
    23     2     1   ar
    24    20    14    1
    25    20    24   ar
    26    31    30   ar
    27    31    38    1
    28    14    13   ar
    29     4    11    1
    30     4     5   ar
    31     1     6    1
    32     1     5   ar
    33    30    35    1
    34    11    12   ar
    35    13    12   ar
    36    13    19    1
    37    12    16    1
    38    35    36    3
    39    36    37    1
    40    16    17    3
    41    17    18    1
