@<TRIPOS>MOLECULE
mol_data/opt/cam/geoms/mol2/5ea5ea5ea-.out
 29 31 0 0 0
SMALL
GASTEIGER

@<TRIPOS>ATOM
      1 C          -2.0815   -1.8848    0.0752 C.ar    1  LIG1       -0.0083
      2 C          -0.7460   -1.8861   -0.2289 C.ar    1  LIG1        0.0323
      3 C          -0.1908   -0.5679   -0.2298 C.ar    1  LIG1       -0.0310
      4 C          -1.1043    0.4016    0.0746 C.ar    1  LIG1        0.0283
      5 S          -2.6716   -0.3037    0.3768 S.2     1  LIG1       -0.0949
      6 H          -2.7378   -2.7398    0.1396 H       1  LIG1        0.0706
      7 C           0.0028   -3.0648   -0.5218 C.1     1  LIG1       -0.0691
      8 C           0.6406   -4.0548   -0.7698 C.1     1  LIG1       -0.1139
      9 H           1.2030   -4.9327   -0.9901 H       1  LIG1        0.1232
     10 H           0.8442   -0.3586   -0.4584 H       1  LIG1        0.0641
     11 C          -0.8963    1.8366    0.1633 C.ar    1  LIG1        0.0419
     12 C           0.2624    2.5246    0.4696 C.ar    1  LIG1        0.0405
     13 C           0.0810    3.9406    0.4691 C.ar    1  LIG1       -0.0304
     14 C          -1.1921    4.3296    0.1680 C.ar    1  LIG1        0.0289
     15 S          -2.1949    2.9415   -0.1532 S.2     1  LIG1       -0.0859
     16 C           1.5115    1.9200    0.7934 C.1     1  LIG1       -0.0685
     17 C           2.5826    1.4446    1.0707 C.1     1  LIG1       -0.1139
     18 H           3.5252    1.0164    1.3234 H       1  LIG1        0.1232
     19 H           0.8747    4.6349    0.7048 H       1  LIG1        0.0641
     20 C          -1.7293    5.6771    0.0902 C.ar    1  LIG1        0.0413
     21 C          -1.0660    6.8532   -0.2041 C.ar    1  LIG1        0.0399
     22 C          -1.9354    7.9922   -0.1850 C.ar    1  LIG1       -0.0387
     23 C          -3.2193    7.6747    0.1116 C.ar    1  LIG1       -0.0225
     24 S          -3.4104    5.9861    0.3954 S.2     1  LIG1       -0.0949
     25 H          -4.0701    8.3361    0.1855 H       1  LIG1        0.0694
     26 C           0.3190    6.9571   -0.5204 C.1     1  LIG1       -0.0685
     27 C           1.4853    7.0858   -0.7918 C.1     1  LIG1       -0.1139
     28 H           2.5169    7.1901   -1.0384 H       1  LIG1        0.1232
     29 H          -1.5892    8.9954   -0.3964 H       1  LIG1        0.0635
@<TRIPOS>BOND
     1    28    27    1
     2     9     8    1
     3    27    26    3
     4     8     7    3
     5     7     2    1
     6    26    21    1
     7    10     3    1
     8    29    22    1
     9     3     2   ar
    10     3     4   ar
    11     2     1   ar
    12    21    22   ar
    13    21    20   ar
    14    22    23   ar
    15    15    11   ar
    16    15    14   ar
    17     4    11    1
    18     4     5   ar
    19     1     6    1
    20     1     5   ar
    21    20    14    1
    22    20    24   ar
    23    23    25    1
    24    23    24   ar
    25    11    12   ar
    26    14    13   ar
    27    13    12   ar
    28    13    19    1
    29    12    16    1
    30    16    17    3
    31    17    18    1
