@<TRIPOS>MOLECULE
mol_data/opt/cam/geoms/mol2/5ea5ea-5ea-5ea-.out
 38 41 0 0 0
SMALL
GASTEIGER

@<TRIPOS>ATOM
      1 C          -2.0891   -1.9218   -0.2692 C.ar    1  LIG1       -0.0083
      2 C          -0.7641   -1.9604    0.0759 C.ar    1  LIG1        0.0323
      3 C          -0.1888   -0.6536    0.1571 C.ar    1  LIG1       -0.0310
      4 C          -1.0771    0.3448   -0.1287 C.ar    1  LIG1        0.0283
      5 S          -2.6448   -0.3186   -0.5126 S.2     1  LIG1       -0.0949
      6 H          -2.7563   -2.7615   -0.3952 H       1  LIG1        0.0706
      7 C          -0.0434   -3.1643    0.3349 C.1     1  LIG1       -0.0691
      8 C           0.5708   -4.1757    0.5547 C.1     1  LIG1       -0.1139
      9 H           1.1123   -5.0725    0.7498 H       1  LIG1        0.1232
     10 H           0.8416   -0.4730    0.4277 H       1  LIG1        0.0641
     11 C          -0.8444    1.7785   -0.1411 C.ar    1  LIG1        0.0419
     12 C           0.3342    2.4611   -0.3770 C.ar    1  LIG1        0.0405
     13 C           0.1753    3.8776   -0.3123 C.ar    1  LIG1       -0.0304
     14 C          -1.1014    4.2735   -0.0319 C.ar    1  LIG1        0.0289
     15 S          -2.1354    2.8881    0.1886 S.2     1  LIG1       -0.0859
     16 C           1.5834    1.8514   -0.6915 C.1     1  LIG1       -0.0685
     17 C           2.6548    1.3713   -0.9588 C.1     1  LIG1       -0.1139
     18 H           3.5980    0.9395   -1.2035 H       1  LIG1        0.1232
     19 H           0.9866    4.5687   -0.4897 H       1  LIG1        0.0641
     20 C          -1.6198    5.6224    0.0943 C.ar    1  LIG1        0.0419
     21 C          -0.9457    6.7797    0.4384 C.ar    1  LIG1        0.0405
     22 C          -1.7955    7.9257    0.4682 C.ar    1  LIG1       -0.0304
     23 C          -3.0955    7.6526    0.1541 C.ar    1  LIG1        0.0289
     24 S          -3.2919    5.9620   -0.2179 S.2     1  LIG1       -0.0859
     25 C           0.4378    6.8533    0.7712 C.1     1  LIG1       -0.0685
     26 C           1.6031    6.9544    1.0577 C.1     1  LIG1       -0.1139
     27 H           2.6331    7.0355    1.3192 H       1  LIG1        0.1232
     28 H          -1.4430    8.9119    0.7343 H       1  LIG1        0.0641
     29 C          -4.2220    8.5681    0.0986 C.ar    1  LIG1        0.0413
     30 C          -4.2157    9.9267   -0.1545 C.ar    1  LIG1        0.0399
     31 C          -5.5305   10.4955   -0.1244 C.ar    1  LIG1       -0.0387
     32 C          -6.4974    9.5831    0.1400 C.ar    1  LIG1       -0.0225
     33 S          -5.8414    8.0081    0.3791 S.2     1  LIG1       -0.0949
     34 H          -7.5631    9.7427    0.2138 H       1  LIG1        0.0694
     35 C          -3.0561   10.7025   -0.4416 C.1     1  LIG1       -0.0685
     36 C          -2.0997   11.3921   -0.6870 C.1     1  LIG1       -0.1139
     37 H          -1.2492   11.9943   -0.9105 H       1  LIG1        0.1232
     38 H          -5.7172   11.5460   -0.3049 H       1  LIG1        0.0635
@<TRIPOS>BOND
     1    18    17    1
     2    17    16    3
     3    37    36    1
     4    16    12    1
     5    36    35    3
     6     5     1   ar
     7     5     4   ar
     8    19    13    1
     9    35    30    1
    10     6     1    1
    11    12    13   ar
    12    12    11   ar
    13    13    14   ar
    14    38    31    1
    15     1     2   ar
    16    24    20   ar
    17    24    23   ar
    18    30    31   ar
    19    30    29   ar
    20    11     4    1
    21    11    15   ar
    22     4     3   ar
    23    31    32   ar
    24    14    20    1
    25    14    15   ar
    26     2     3   ar
    27     2     7    1
    28    20    21   ar
    29    29    23    1
    30    29    33   ar
    31    32    34    1
    32    32    33   ar
    33    23    22   ar
    34     3    10    1
    35     7     8    3
    36    21    22   ar
    37    21    25    1
    38    22    28    1
    39     8     9    1
    40    25    26    3
    41    26    27    1
