@<TRIPOS>MOLECULE
mol_data/opt/cam/geoms/mol2/5ea5ea5ea5ea-.out
 38 41 0 0 0
SMALL
GASTEIGER

@<TRIPOS>ATOM
      1 C          -2.1070   -1.9240    0.1203 C.ar    1  LIG1       -0.0083
      2 C          -0.7646   -1.9594   -0.1500 C.ar    1  LIG1        0.0323
      3 C          -0.1847   -0.6524   -0.1783 C.ar    1  LIG1       -0.0310
      4 C          -1.0870    0.3429    0.0722 C.ar    1  LIG1        0.0283
      5 S          -2.6745   -0.3239    0.3566 S.2     1  LIG1       -0.0949
      6 H          -2.7808   -2.7645    0.1953 H       1  LIG1        0.0706
      7 C          -0.0313   -3.1604   -0.3864 C.1     1  LIG1       -0.0691
      8 C           0.5936   -4.1692   -0.5867 C.1     1  LIG1       -0.1139
      9 H           1.1447   -5.0637   -0.7646 H       1  LIG1        0.1232
     10 H           0.8594   -0.4693   -0.3874 H       1  LIG1        0.0641
     11 C          -0.8546    1.7759    0.1199 C.ar    1  LIG1        0.0419
     12 C           0.3094    2.4530    0.4323 C.ar    1  LIG1        0.0405
     13 C           0.1552    3.8705    0.3807 C.ar    1  LIG1       -0.0304
     14 C          -1.1034    4.2727    0.0352 C.ar    1  LIG1        0.0289
     15 S          -2.1242    2.8923   -0.2647 S.2     1  LIG1       -0.0859
     16 C           1.5385    1.8366    0.8070 C.1     1  LIG1       -0.0685
     17 C           2.5929    1.3508    1.1267 C.1     1  LIG1       -0.1139
     18 H           3.5204    0.9139    1.4175 H       1  LIG1        0.1232
     19 H           0.9557    4.5576    0.6142 H       1  LIG1        0.0641
     20 C          -1.6132    5.6241   -0.0991 C.ar    1  LIG1        0.0419
     21 C          -0.9202    6.7856   -0.3866 C.ar    1  LIG1        0.0405
     22 C          -1.7664    7.9331   -0.4464 C.ar    1  LIG1       -0.0304
     23 C          -3.0822    7.6570   -0.2103 C.ar    1  LIG1        0.0289
     24 S          -3.3001    5.9611    0.1238 S.2     1  LIG1       -0.0859
     25 C           0.4799    6.8624   -0.6398 C.1     1  LIG1       -0.0685
     26 C           1.6595    6.9662   -0.8586 C.1     1  LIG1       -0.1139
     27 H           2.7027    7.0499   -1.0604 H       1  LIG1        0.1232
     28 H          -1.3990    8.9228   -0.6770 H       1  LIG1        0.0641
     29 C          -4.2096    8.5730   -0.2041 C.ar    1  LIG1        0.0413
     30 C          -4.2170    9.9275    0.0698 C.ar    1  LIG1        0.0399
     31 C          -5.5278   10.4984   -0.0254 C.ar    1  LIG1       -0.0387
     32 C          -6.4786    9.5914   -0.3578 C.ar    1  LIG1       -0.0225
     33 S          -5.8109    8.0195   -0.5838 S.2     1  LIG1       -0.0949
     34 H          -7.5384    9.7535   -0.4889 H       1  LIG1        0.0694
     35 C          -3.0750   10.6973    0.4335 C.1     1  LIG1       -0.0685
     36 C          -2.1336   11.3819    0.7429 C.1     1  LIG1       -0.1139
     37 H          -1.2967   11.9794    1.0229 H       1  LIG1        0.1232
     38 H          -5.7239   11.5463    0.1604 H       1  LIG1        0.0635
@<TRIPOS>BOND
     1    27    26    1
     2    26    25    3
     3     9     8    1
     4    28    22    1
     5    25    21    1
     6     8     7    3
     7    33    32   ar
     8    33    29   ar
     9    34    32    1
    10    22    21   ar
    11    22    23   ar
    12    10     3    1
    13    21    20   ar
    14     7     2    1
    15    32    31   ar
    16    15    14   ar
    17    15    11   ar
    18    23    29    1
    19    23    24   ar
    20    29    30   ar
    21     3     2   ar
    22     3     4   ar
    23     2     1   ar
    24    20    14    1
    25    20    24   ar
    26    31    30   ar
    27    31    38    1
    28    14    13   ar
    29    30    35    1
    30     4    11    1
    31     4     5   ar
    32    11    12   ar
    33     1     6    1
    34     1     5   ar
    35    13    12   ar
    36    13    19    1
    37    12    16    1
    38    35    36    3
    39    36    37    1
    40    16    17    3
    41    17    18    1
