@<TRIPOS>MOLECULE
mol_data/opt/cam/geoms/mol2/5ea5ea-5ea-5ea.out
 38 41 0 0 0
SMALL
GASTEIGER

@<TRIPOS>ATOM
      1 C          -2.0795   -1.9216   -0.2902 C.ar    1  LIG1       -0.0083
      2 C          -0.7510   -1.9593    0.0414 C.ar    1  LIG1        0.0323
      3 C          -0.1774   -0.6518    0.1233 C.ar    1  LIG1       -0.0310
      4 C          -1.0704    0.3463   -0.1484 C.ar    1  LIG1        0.0283
      5 S          -2.6407   -0.3182   -0.5198 S.2     1  LIG1       -0.0949
      6 H          -2.7463   -2.7619   -0.4136 H       1  LIG1        0.0706
      7 C          -0.0254   -3.1631    0.2870 C.1     1  LIG1       -0.0691
      8 C           0.5929   -4.1743    0.4955 C.1     1  LIG1       -0.1139
      9 H           1.1380   -5.0711    0.6805 H       1  LIG1        0.1232
     10 H           0.8553   -0.4706    0.3844 H       1  LIG1        0.0641
     11 C          -0.8407    1.7805   -0.1559 C.ar    1  LIG1        0.0419
     12 C           0.3343    2.4666   -0.4002 C.ar    1  LIG1        0.0405
     13 C           0.1733    3.8824   -0.3268 C.ar    1  LIG1       -0.0304
     14 C          -1.1013    4.2744   -0.0316 C.ar    1  LIG1        0.0289
     15 S          -2.1304    2.8858    0.1922 S.2     1  LIG1       -0.0859
     16 C           1.5814    1.8610   -0.7302 C.1     1  LIG1       -0.0685
     17 C           2.6510    1.3843   -1.0106 C.1     1  LIG1       -0.1139
     18 H           3.5925    0.9556   -1.2670 H       1  LIG1        0.1232
     19 H           0.9814    4.5760   -0.5088 H       1  LIG1        0.0641
     20 C          -1.6211    5.6216    0.1066 C.ar    1  LIG1        0.0419
     21 C          -0.9458    6.7785    0.4496 C.ar    1  LIG1        0.0405
     22 C          -1.7975    7.9227    0.4937 C.ar    1  LIG1       -0.0304
     23 C          -3.1001    7.6485    0.1913 C.ar    1  LIG1        0.0289
     24 S          -3.2969    5.9594   -0.1872 S.2     1  LIG1       -0.0859
     25 C           0.4408    6.8532    0.7689 C.1     1  LIG1       -0.0685
     26 C           1.6087    6.9552    1.0441 C.1     1  LIG1       -0.1139
     27 H           2.6412    7.0371    1.2957 H       1  LIG1        0.1232
     28 H          -1.4443    8.9082    0.7612 H       1  LIG1        0.0641
     29 C          -4.2289    8.5619    0.1517 C.ar    1  LIG1        0.0413
     30 C          -4.2278    9.9218   -0.0946 C.ar    1  LIG1        0.0399
     31 C          -5.5434   10.4878   -0.0485 C.ar    1  LIG1       -0.0387
     32 C          -6.5057    9.5721    0.2210 C.ar    1  LIG1       -0.0225
     33 S          -5.8443    7.9973    0.4455 S.2     1  LIG1       -0.0949
     34 H          -7.5710    9.7292    0.3063 H       1  LIG1        0.0694
     35 C          -3.0727   10.7015   -0.3893 C.1     1  LIG1       -0.0685
     36 C          -2.1202   11.3943   -0.6408 C.1     1  LIG1       -0.1139
     37 H          -1.2731   11.9992   -0.8698 H       1  LIG1        0.1232
     38 H          -5.7340   11.5389   -0.2217 H       1  LIG1        0.0635
@<TRIPOS>BOND
     1    18    17    1
     2    17    16    3
     3    37    36    1
     4    16    12    1
     5    36    35    3
     6     5     1   ar
     7     5     4   ar
     8    19    13    1
     9     6     1    1
    10    12    13   ar
    11    12    11   ar
    12    35    30    1
    13    13    14   ar
    14     1     2   ar
    15    38    31    1
    16    24    20   ar
    17    24    23   ar
    18    11     4    1
    19    11    15   ar
    20     4     3   ar
    21    30    31   ar
    22    30    29   ar
    23    31    32   ar
    24    14    20    1
    25    14    15   ar
    26     2     3   ar
    27     2     7    1
    28    20    21   ar
    29     3    10    1
    30    29    23    1
    31    29    33   ar
    32    23    22   ar
    33    32    34    1
    34    32    33   ar
    35     7     8    3
    36    21    22   ar
    37    21    25    1
    38    22    28    1
    39     8     9    1
    40    25    26    3
    41    26    27    1
