@<TRIPOS>MOLECULE
mol_data/opt/cam/geoms/mol2/5ea5ea-5ea.out
 29 31 0 0 0
SMALL
GASTEIGER

@<TRIPOS>ATOM
      1 C          -2.1716   -1.8764    0.0005 C.ar    1  LIG1       -0.0083
      2 C          -0.8038   -1.9329   -0.0003 C.ar    1  LIG1        0.0323
      3 C          -0.2078   -0.6334    0.0000 C.ar    1  LIG1       -0.0310
      4 C          -1.1239    0.3834    0.0010 C.ar    1  LIG1        0.0283
      5 S          -2.7473   -0.2621    0.0016 S.2     1  LIG1       -0.0949
      6 H          -2.8620   -2.7067    0.0005 H       1  LIG1        0.0706
      7 C          -0.0572   -3.1490   -0.0013 C.1     1  LIG1       -0.0691
      8 C           0.5784   -4.1709   -0.0021 C.1     1  LIG1       -0.1139
      9 H           1.1391   -5.0771   -0.0028 H       1  LIG1        0.1232
     10 H           0.8596   -0.4729   -0.0005 H       1  LIG1        0.0641
     11 C          -0.8891    1.8169    0.0016 C.ar    1  LIG1        0.0419
     12 C           0.3074    2.5116    0.0017 C.ar    1  LIG1        0.0405
     13 C           0.1299    3.9275    0.0023 C.ar    1  LIG1       -0.0304
     14 C          -1.1780    4.3212    0.0026 C.ar    1  LIG1        0.0289
     15 S          -2.2244    2.9263    0.0022 S.2     1  LIG1       -0.0859
     16 C           1.6093    1.9329    0.0013 C.1     1  LIG1       -0.0685
     17 C           2.7317    1.4957    0.0011 C.1     1  LIG1       -0.1139
     18 H           3.7220    1.1018    0.0008 H       1  LIG1        0.1232
     19 H           0.9597    4.6179    0.0025 H       1  LIG1        0.0641
     20 C          -1.7272    5.6659    0.0032 C.ar    1  LIG1        0.0413
     21 C          -1.0643    6.8810    0.0037 C.ar    1  LIG1        0.0399
     22 C          -1.9622    7.9981    0.0043 C.ar    1  LIG1       -0.0387
     23 C          -3.2664    7.6329    0.0042 C.ar    1  LIG1       -0.0225
     24 S          -3.4468    5.9200    0.0035 S.2     1  LIG1       -0.0949
     25 H          -4.1394    8.2688    0.0046 H       1  LIG1        0.0694
     26 C           0.3477    7.0645    0.0036 C.1     1  LIG1       -0.0685
     27 C           1.5334    7.2779    0.0036 C.1     1  LIG1       -0.1139
     28 H           2.5838    7.4586    0.0035 H       1  LIG1        0.1232
     29 H          -1.6161    9.0233    0.0047 H       1  LIG1        0.0635
@<TRIPOS>BOND
     1     9     8    1
     2     8     7    3
     3     7     2    1
     4    10     3    1
     5     2     3   ar
     6     2     1   ar
     7     3     4   ar
     8     6     1    1
     9     1     5   ar
    10    18    17    1
    11     4    11    1
    12     4     5   ar
    13    17    16    3
    14    16    12    1
    15    11    12   ar
    16    11    15   ar
    17    12    13   ar
    18    15    14   ar
    19    13    19    1
    20    13    14   ar
    21    14    20    1
    22    20    24   ar
    23    20    21   ar
    24    28    27    1
    25    24    23   ar
    26    27    26    3
    27    26    21    1
    28    21    22   ar
    29    23    22   ar
    30    23    25    1
    31    22    29    1
