@<TRIPOS>MOLECULE
mol_data/opt/cam/geoms/mol2/5ea5ea5ea.out
 29 31 0 0 0
SMALL
GASTEIGER

@<TRIPOS>ATOM
      1 C          -2.0856   -1.8822    0.1189 C.ar    1  LIG1       -0.0083
      2 C          -0.7515   -1.8878   -0.1914 C.ar    1  LIG1        0.0323
      3 C          -0.1950   -0.5704   -0.2072 C.ar    1  LIG1       -0.0310
      4 C          -1.1060    0.4030    0.0924 C.ar    1  LIG1        0.0283
      5 S          -2.6727   -0.2978    0.4086 S.2     1  LIG1       -0.0949
      6 H          -2.7426   -2.7359    0.1944 H       1  LIG1        0.0706
      7 C          -0.0054   -3.0702   -0.4767 C.1     1  LIG1       -0.0691
      8 C           0.6302   -4.0632   -0.7183 C.1     1  LIG1       -0.1139
      9 H           1.1907   -4.9437   -0.9327 H       1  LIG1        0.1232
     10 H           0.8392   -0.3643   -0.4426 H       1  LIG1        0.0641
     11 C          -0.8962    1.8385    0.1668 C.ar    1  LIG1        0.0419
     12 C           0.2647    2.5282    0.4608 C.ar    1  LIG1        0.0405
     13 C           0.0846    3.9442    0.4481 C.ar    1  LIG1       -0.0304
     14 C          -1.1896    4.3317    0.1498 C.ar    1  LIG1        0.0289
     15 S          -2.1953    2.9416   -0.1535 S.2     1  LIG1       -0.0859
     16 C           1.5150    1.9253    0.7837 C.1     1  LIG1       -0.0685
     17 C           2.5871    1.4516    1.0598 C.1     1  LIG1       -0.1139
     18 H           3.5306    1.0247    1.3113 H       1  LIG1        0.1232
     19 H           0.8801    4.6399    0.6732 H       1  LIG1        0.0641
     20 C          -1.7260    5.6789    0.0618 C.ar    1  LIG1        0.0413
     21 C          -1.0630    6.8516   -0.2461 C.ar    1  LIG1        0.0399
     22 C          -1.9315    7.9915   -0.2337 C.ar    1  LIG1       -0.0387
     23 C          -3.2142    7.6779    0.0718 C.ar    1  LIG1       -0.0225
     24 S          -3.4054    5.9921    0.3721 S.2     1  LIG1       -0.0949
     25 H          -4.0641    8.3406    0.1436 H       1  LIG1        0.0694
     26 C           0.3207    6.9514   -0.5695 C.1     1  LIG1       -0.0685
     27 C           1.4858    7.0767   -0.8475 C.1     1  LIG1       -0.1139
     28 H           2.5164    7.1781   -1.0992 H       1  LIG1        0.1232
     29 H          -1.5854    8.9924   -0.4559 H       1  LIG1        0.0635
@<TRIPOS>BOND
     1    28    27    1
     2     9     8    1
     3    27    26    3
     4     8     7    3
     5    26    21    1
     6     7     2    1
     7    29    22    1
     8    10     3    1
     9    21    22   ar
    10    21    20   ar
    11    22    23   ar
    12     3     2   ar
    13     3     4   ar
    14     2     1   ar
    15    15    14   ar
    16    15    11   ar
    17    20    14    1
    18    20    24   ar
    19    23    25    1
    20    23    24   ar
    21     4    11    1
    22     4     5   ar
    23     1     6    1
    24     1     5   ar
    25    14    13   ar
    26    11    12   ar
    27    13    12   ar
    28    13    19    1
    29    12    16    1
    30    16    17    3
    31    17    18    1
