@<TRIPOS>MOLECULE
mol_data/opt/cam/geoms/mol2/5ea5ea-.out
 20 21 0 0 0
SMALL
GASTEIGER

@<TRIPOS>ATOM
      1 C          -2.1389   -1.7982    0.0003 C.ar    1  LIG1       -0.0083
      2 C          -0.7704   -1.8203   -0.0001 C.ar    1  LIG1        0.0323
      3 C          -0.2071   -0.5056    0.0002 C.ar    1  LIG1       -0.0310
      4 C          -1.1474    0.4876    0.0008 C.ar    1  LIG1        0.0282
      5 S          -2.7541   -0.1981    0.0011 S.2     1  LIG1       -0.0949
      6 H          -2.8085   -2.6452    0.0003 H       1  LIG1        0.0706
      7 C           0.0066   -3.0171   -0.0007 C.1     1  LIG1       -0.0691
      8 C           0.6679   -4.0226   -0.0013 C.1     1  LIG1       -0.1139
      9 H           1.2515   -4.9141   -0.0026 H       1  LIG1        0.1232
     10 H           0.8560   -0.3186   -0.0001 H       1  LIG1        0.0641
     11 C          -0.9491    1.9291    0.0012 C.ar    1  LIG1        0.0413
     12 C           0.2315    2.6502    0.0016 C.ar    1  LIG1        0.0399
     13 C           0.0125    4.0671    0.0020 C.ar    1  LIG1       -0.0387
     14 C          -1.2993    4.4029    0.0019 C.ar    1  LIG1       -0.0225
     15 S          -2.3113    3.0089    0.0013 S.2     1  LIG1       -0.0949
     16 H          -1.7375    5.3900    0.0021 H       1  LIG1        0.0694
     17 C           1.5470    2.1048    0.0017 C.1     1  LIG1       -0.0685
     18 C           2.6813    1.6989    0.0018 C.1     1  LIG1       -0.1139
     19 H           3.6817    1.3314    0.0007 H       1  LIG1        0.1232
     20 H           0.8251    4.7818    0.0023 H       1  LIG1        0.0635
@<TRIPOS>BOND
     1     9     8    1
     2     8     7    3
     3     7     2    1
     4    10     3    1
     5     2     3   ar
     6     2     1   ar
     7     3     4   ar
     8     6     1    1
     9     1     5   ar
    10    19    18    1
    11     4     5   ar
    12     4    11    1
    13    11    15   ar
    14    11    12   ar
    15    15    14   ar
    16    12    17    1
    17    12    13   ar
    18    17    18    3
    19    14    13   ar
    20    14    16    1
    21    13    20    1
