@<TRIPOS>MOLECULE
mol_data/opt/cam/geoms/mol2/5ea5ea-5ea5ea-.out
 38 41 0 0 0
SMALL
GASTEIGER

@<TRIPOS>ATOM
      1 C          -2.2088   -1.9055    0.0011 C.ar    1  LIG1       -0.0083
      2 C          -0.8426   -1.9962   -0.0001 C.ar    1  LIG1        0.0323
      3 C          -0.2145   -0.7121   -0.0000 C.ar    1  LIG1       -0.0310
      4 C          -1.1051    0.3274    0.0013 C.ar    1  LIG1        0.0283
      5 S          -2.7442   -0.2775    0.0024 S.2     1  LIG1       -0.0949
      6 H          -2.9196   -2.7183    0.0013 H       1  LIG1        0.0706
      7 C          -0.1266   -3.2305   -0.0014 C.1     1  LIG1       -0.0691
      8 C           0.4833   -4.2680   -0.0025 C.1     1  LIG1       -0.1139
      9 H           1.0209   -5.1880   -0.0032 H       1  LIG1        0.1232
     10 H           0.8565   -0.5781   -0.0010 H       1  LIG1        0.0641
     11 C          -0.8343    1.7542    0.0018 C.ar    1  LIG1        0.0419
     12 C           0.3800    2.4183    0.0016 C.ar    1  LIG1        0.0405
     13 C           0.2391    3.8374    0.0022 C.ar    1  LIG1       -0.0304
     14 C          -1.0594    4.2647    0.0029 C.ar    1  LIG1        0.0289
     15 S          -2.1410    2.8968    0.0027 S.2     1  LIG1       -0.0859
     16 C           1.6667    1.8064    0.0009 C.1     1  LIG1       -0.0685
     17 C           2.7774    1.3405    0.0003 C.1     1  LIG1       -0.1139
     18 H           3.7574    0.9213   -0.0007 H       1  LIG1        0.1232
     19 H           1.0859    4.5067    0.0022 H       1  LIG1        0.0641
     20 C          -1.5716    5.6210    0.0036 C.ar    1  LIG1        0.0419
     21 C          -0.8804    6.8205    0.0039 C.ar    1  LIG1        0.0405
     22 C          -1.7405    7.9582    0.0047 C.ar    1  LIG1       -0.0304
     23 C          -3.0709    7.6470    0.0050 C.ar    1  LIG1        0.0289
     24 S          -3.2825    5.9162    0.0044 S.2     1  LIG1       -0.0859
     25 C           0.5365    6.9670    0.0035 C.1     1  LIG1       -0.0685
     26 C           1.7277    7.1458    0.0032 C.1     1  LIG1       -0.1139
     27 H           2.7827    7.2979    0.0036 H       1  LIG1        0.1232
     28 H          -1.3662    8.9707    0.0050 H       1  LIG1        0.0641
     29 C          -4.2175    8.5384    0.0058 C.ar    1  LIG1        0.0413
     30 C          -4.2487    9.9224    0.0062 C.ar    1  LIG1        0.0399
     31 C          -5.5839   10.4428    0.0069 C.ar    1  LIG1       -0.0387
     32 C          -6.5323    9.4758    0.0072 C.ar    1  LIG1       -0.0225
     33 S          -5.8348    7.9012    0.0065 S.2     1  LIG1       -0.0949
     34 H          -7.6061    9.5918    0.0077 H       1  LIG1        0.0694
     35 C          -3.1162   10.7855    0.0058 C.1     1  LIG1       -0.0685
     36 C          -2.1949   11.5617    0.0056 C.1     1  LIG1       -0.1139
     37 H          -1.3747   12.2424    0.0062 H       1  LIG1        0.1232
     38 H          -5.7951   11.5041    0.0073 H       1  LIG1        0.0635
@<TRIPOS>BOND
     1     9     8    1
     2     8     7    3
     3     7     2    1
     4    10     3    1
     5    18    17    1
     6     2     3   ar
     7     2     1   ar
     8     3     4   ar
     9    17    16    3
    10    16    12    1
    11     1     6    1
    12     1     5   ar
    13     4    11    1
    14     4     5   ar
    15    12    11   ar
    16    12    13   ar
    17    11    15   ar
    18    19    13    1
    19    13    14   ar
    20    15    14   ar
    21    14    20    1
    22    26    25    3
    23    26    27    1
    24    25    21    1
    25    20    21   ar
    26    20    24   ar
    27    21    22   ar
    28    24    23   ar
    29    22    28    1
    30    22    23   ar
    31    23    29    1
    32    36    35    3
    33    36    37    1
    34    35    30    1
    35    29    30   ar
    36    29    33   ar
    37    30    31   ar
    38    33    32   ar
    39    31    32   ar
    40    31    38    1
    41    32    34    1
