@<TRIPOS>MOLECULE
mol_data/opt/cam/geoms/mol2/5ea5ea.out
 20 21 0 0 0
SMALL
GASTEIGER

@<TRIPOS>ATOM
      1 C          -2.0386   -1.7873    0.4591 C.ar    1  LIG1       -0.0083
      2 C          -0.7495   -1.8117   -0.0024 C.ar    1  LIG1        0.0323
      3 C          -0.2309   -0.4971   -0.2264 C.ar    1  LIG1       -0.0310
      4 C          -1.1245    0.4922    0.0695 C.ar    1  LIG1        0.0282
      5 S          -2.6264   -0.1869    0.6413 S.2     1  LIG1       -0.0949
      6 H          -2.6618   -2.6348    0.7027 H       1  LIG1        0.0706
      7 C          -0.0122   -3.0095   -0.2429 C.1     1  LIG1       -0.0691
      8 C           0.6160   -4.0153   -0.4479 C.1     1  LIG1       -0.1139
      9 H           1.1698   -4.9074   -0.6295 H       1  LIG1        0.1232
     10 H           0.7645   -0.3062   -0.6011 H       1  LIG1        0.0641
     11 C          -0.9414    1.9313   -0.0375 C.ar    1  LIG1        0.0413
     12 C           0.2260    2.6608    0.0742 C.ar    1  LIG1        0.0399
     13 C           0.0118    4.0680   -0.0942 C.ar    1  LIG1       -0.0387
     14 C          -1.2865    4.3831   -0.3223 C.ar    1  LIG1       -0.0225
     15 S          -2.2867    2.9804   -0.3581 S.2     1  LIG1       -0.0949
     16 H          -1.7185    5.3609   -0.4767 H       1  LIG1        0.0694
     17 C           1.5119    2.1124    0.3496 C.1     1  LIG1       -0.0685
     18 C           2.6145    1.6864    0.5800 C.1     1  LIG1       -0.1139
     19 H           3.5853    1.3009    0.7914 H       1  LIG1        0.1232
     20 H           0.8131    4.7927   -0.0341 H       1  LIG1        0.0635
@<TRIPOS>BOND
     1     9     8    1
     2    10     3    1
     3    16    14    1
     4     8     7    3
     5    15    14   ar
     6    15    11   ar
     7    14    13   ar
     8     7     2    1
     9     3     2   ar
    10     3     4   ar
    11    13    20    1
    12    13    12   ar
    13    11     4    1
    14    11    12   ar
    15     2     1   ar
    16     4     5   ar
    17    12    17    1
    18    17    18    3
    19     1     5   ar
    20     1     6    1
    21    18    19    1
