@<TRIPOS>MOLECULE
mol_data/opt/cam/geoms/mol2/5ed.out
 12 12 0 0 0
SMALL
GASTEIGER

@<TRIPOS>ATOM
      1 C          -2.1114   -1.7022    0.0001 C.ar    1  LIG1       -0.0077
      2 C          -0.7450   -1.6996   -0.0002 C.ar    1  LIG1        0.0490
      3 C          -0.2235   -0.3535   -0.0002 C.ar    1  LIG1        0.0741
      4 C          -1.2074    0.5937    0.0003 C.ar    1  LIG1       -0.0057
      5 S          -2.7677   -0.1142    0.0006 S.2     1  LIG1       -0.1025
      6 H          -2.7576   -2.5672    0.0001 H       1  LIG1        0.0706
      7 H          -1.0804    1.6661    0.0005 H       1  LIG1        0.0707
      8 C           0.0674   -2.8692   -0.0006 C.1     1  LIG1       -0.0678
      9 C           0.7633   -3.8501   -0.0010 C.1     1  LIG1       -0.1139
     10 H           1.3864   -4.7150   -0.0012 H       1  LIG1        0.1232
     11 N           2.2952    0.2247   -0.0008 N.1     1  LIG1       -0.1908
     12 C           1.1692   -0.0388   -0.0006 C.1     1  LIG1        0.1009
@<TRIPOS>BOND
     1    10     9    1
     2     9     8    3
     3    11    12    3
     4     8     2    1
     5    12     3    1
     6     3     2   ar
     7     3     4   ar
     8     2     1   ar
     9     1     6    1
    10     1     5   ar
    11     4     7    1
    12     4     5   ar
