@<TRIPOS>MOLECULE
mol_data/opt/cam/geoms/mol2/5ed5ed5ed-5ed.out
 42 45 0 0 0
SMALL
GASTEIGER

@<TRIPOS>ATOM
      1 C          -1.8994   -1.9289   -0.4238 C.ar    1  LIG1       -0.0070
      2 C          -0.6672   -1.9199    0.1660 C.ar    1  LIG1        0.0496
      3 C          -0.1444   -0.5819    0.2812 C.ar    1  LIG1        0.0824
      4 C          -0.9885    0.3740   -0.2331 C.ar    1  LIG1        0.0457
      5 S          -2.4307   -0.3574   -0.8560 S.2     1  LIG1       -0.0935
      6 H          -2.5147   -2.7934   -0.6245 H       1  LIG1        0.0706
      7 C           0.0163   -3.0808    0.6265 C.1     1  LIG1       -0.0678
      8 C           0.6007   -4.0561    1.0182 C.1     1  LIG1       -0.1139
      9 H           1.1248   -4.9158    1.3688 H       1  LIG1        0.1232
     10 N           2.0943   -0.0722    1.4637 N.1     1  LIG1       -0.1908
     11 C           1.0956   -0.2923    0.9241 C.1     1  LIG1        0.1015
     12 C          -0.7956    1.8162   -0.2938 C.ar    1  LIG1        0.0444
     13 C           0.2805    2.5099   -0.7982 C.ar    1  LIG1        0.0579
     14 C           0.0966    3.9335   -0.7013 C.ar    1  LIG1        0.0830
     15 C          -1.1011    4.2928   -0.1301 C.ar    1  LIG1        0.0463
     16 S          -2.0165    2.8913    0.3051 S.2     1  LIG1       -0.0846
     17 C           1.4212    1.9175   -1.4038 C.1     1  LIG1       -0.0672
     18 C           2.3927    1.4373   -1.9245 C.1     1  LIG1       -0.1138
     19 H           3.2613    1.0113   -2.3732 H       1  LIG1        0.1232
     20 N           1.8018    5.6076   -1.6806 N.1     1  LIG1       -0.1908
     21 C           1.0401    4.8642   -1.2293 C.1     1  LIG1        0.1016
     22 C          -1.6198    5.6285    0.1250 C.ar    1  LIG1        0.0444
     23 C          -0.9987    6.6692    0.7774 C.ar    1  LIG1        0.0579
     24 C          -1.8423    7.8317    0.8583 C.ar    1  LIG1        0.0830
     25 C          -3.0739    7.6567    0.2737 C.ar    1  LIG1        0.0463
     26 S          -3.2148    6.0676   -0.3938 S.2     1  LIG1       -0.0846
     27 C           0.2928    6.6067    1.3655 C.1     1  LIG1       -0.0672
     28 C           1.3816    6.5688    1.8741 C.1     1  LIG1       -0.1138
     29 H           2.3530    6.5373    2.3135 H       1  LIG1        0.1232
     30 N          -1.1295    9.9574    2.1402 N.1     1  LIG1       -0.1908
     31 C          -1.4506    9.0138    1.5546 C.1     1  LIG1        0.1016
     32 C          -4.1708    8.6080    0.1642 C.ar    1  LIG1        0.0438
     33 C          -4.1297    9.8959   -0.3208 C.ar    1  LIG1        0.0573
     34 C          -5.4286   10.5177   -0.2822 C.ar    1  LIG1        0.0747
     35 C          -6.3997    9.6950    0.2113 C.ar    1  LIG1       -0.0051
     36 S          -5.7782    8.1647    0.6518 S.2     1  LIG1       -0.0935
     37 H          -7.4470    9.9270    0.3381 H       1  LIG1        0.0707
     38 C          -2.9739   10.5363   -0.8423 C.1     1  LIG1       -0.0672
     39 C          -2.0073   11.0921   -1.2922 C.1     1  LIG1       -0.1138
     40 H          -1.1453   11.5879   -1.6776 H       1  LIG1        0.1232
     41 N          -5.9037   12.9246   -1.0935 N.1     1  LIG1       -0.1908
     42 C          -5.6832   11.8495   -0.7301 C.1     1  LIG1        0.1009
@<TRIPOS>BOND
     1    19    18    1
     2    18    17    3
     3    20    21    3
     4    40    39    1
     5    17    13    1
     6    39    38    3
     7    21    14    1
     8    41    42    3
     9     5     1   ar
    10     5     4   ar
    11    38    33    1
    12    13    14   ar
    13    13    12   ar
    14    42    34    1
    15    14    15   ar
    16     6     1    1
    17     1     2   ar
    18    26    22   ar
    19    26    25   ar
    20    33    34   ar
    21    33    32   ar
    22    12     4    1
    23    12    16   ar
    24    34    35   ar
    25     4     3   ar
    26    15    22    1
    27    15    16   ar
    28    22    23   ar
    29    32    25    1
    30    32    36   ar
    31     2     3   ar
    32     2     7    1
    33    35    37    1
    34    35    36   ar
    35    25    24   ar
    36     3    11    1
    37     7     8    3
    38    23    24   ar
    39    23    27    1
    40    24    31    1
    41    11    10    3
    42     8     9    1
    43    27    28    3
    44    31    30    3
    45    28    29    1
