@<TRIPOS>MOLECULE
mol_data/opt/cam/geoms/mol2/5ed5ed5ed.out
 32 34 0 0 0
SMALL
GASTEIGER

@<TRIPOS>ATOM
      1 C          -1.8598   -1.8935   -0.5515 C.ar    1  LIG1       -0.0070
      2 C          -0.7329   -1.8506    0.2195 C.ar    1  LIG1        0.0496
      3 C          -0.2280   -0.5068    0.3463 C.ar    1  LIG1        0.0824
      4 C          -0.9785    0.4192   -0.3393 C.ar    1  LIG1        0.0457
      5 S          -2.3113   -0.3474   -1.1386 S.2     1  LIG1       -0.0935
      6 H          -2.4408   -2.7691   -0.8003 H       1  LIG1        0.0706
      7 C          -0.1336   -2.9846    0.8377 C.1     1  LIG1       -0.0678
      8 C           0.3792   -3.9369    1.3632 C.1     1  LIG1       -0.1139
      9 H           0.8395   -4.7759    1.8333 H       1  LIG1        0.1232
     10 N           1.8057    0.0677    1.8308 N.1     1  LIG1       -0.1908
     11 C           0.9002   -0.1814    1.1562 C.1     1  LIG1        0.1015
     12 C          -0.7711    1.8570   -0.4436 C.ar    1  LIG1        0.0444
     13 C           0.3727    2.5257   -0.8147 C.ar    1  LIG1        0.0579
     14 C           0.1841    3.9521   -0.8212 C.ar    1  LIG1        0.0830
     15 C          -1.0840    4.3382   -0.4583 C.ar    1  LIG1        0.0463
     16 S          -2.0621    2.9595   -0.0932 S.2     1  LIG1       -0.0846
     17 C           1.5887    1.9048   -1.2086 C.1     1  LIG1       -0.0672
     18 C           2.6250    1.3997   -1.5499 C.1     1  LIG1       -0.1138
     19 H           3.5492    0.9526   -1.8382 H       1  LIG1        0.1232
     20 N           2.0292    5.5764   -1.6130 N.1     1  LIG1       -0.1908
     21 C           1.2026    4.8565   -1.2457 C.1     1  LIG1        0.1016
     22 C          -1.6270    5.6852   -0.3518 C.ar    1  LIG1        0.0438
     23 C          -1.1087    6.7542    0.3439 C.ar    1  LIG1        0.0573
     24 C          -1.9439    7.9215    0.2201 C.ar    1  LIG1        0.0747
     25 C          -3.0552    7.7043   -0.5422 C.ar    1  LIG1       -0.0051
     26 S          -3.1187    6.1032   -1.1380 S.2     1  LIG1       -0.0935
     27 H          -3.8309    8.4172   -0.7804 H       1  LIG1        0.0707
     28 C           0.0744    6.7215    1.1294 C.1     1  LIG1       -0.0672
     29 C           1.0702    6.7104    1.8032 C.1     1  LIG1       -0.1138
     30 H           1.9613    6.7018    2.3891 H       1  LIG1        0.1232
     31 N          -1.4330   10.1905    1.3461 N.1     1  LIG1       -0.1908
     32 C          -1.6539    9.1731    0.8435 C.1     1  LIG1        0.1009
@<TRIPOS>BOND
     1    19    18    1
     2    20    21    3
     3    18    17    3
     4    21    14    1
     5    17    13    1
     6     5     1   ar
     7     5     4   ar
     8    26    25   ar
     9    26    22   ar
    10    14    13   ar
    11    14    15   ar
    12    13    12   ar
    13     6     1    1
    14    27    25    1
    15     1     2   ar
    16    25    24   ar
    17    15    22    1
    18    15    16   ar
    19    12     4    1
    20    12    16   ar
    21    22    23   ar
    22     4     3   ar
    23     2     3   ar
    24     2     7    1
    25    24    23   ar
    26    24    32    1
    27    23    28    1
    28     3    11    1
    29     7     8    3
    30    32    31    3
    31    28    29    3
    32    11    10    3
    33     8     9    1
    34    29    30    1
