@<TRIPOS>MOLECULE
mol_data/opt/cam/geoms/mol2/5ed5ed-5ed-5ed-.out
 42 45 0 0 0
SMALL
GASTEIGER

@<TRIPOS>ATOM
      1 C          -1.9152   -1.9296    0.3785 C.ar    1  LIG1       -0.0070
      2 C          -0.6634   -1.9197   -0.1686 C.ar    1  LIG1        0.0496
      3 C          -0.1366   -0.5817   -0.2629 C.ar    1  LIG1        0.0824
      4 C          -0.9976    0.3734    0.2244 C.ar    1  LIG1        0.0457
      5 S          -2.4605   -0.3589    0.7957 S.2     1  LIG1       -0.0935
      6 H          -2.5371   -2.7944    0.5560 H       1  LIG1        0.0706
      7 C           0.0352   -3.0798   -0.6081 C.1     1  LIG1       -0.0678
      8 C           0.6324   -4.0544   -0.9817 C.1     1  LIG1       -0.1139
      9 H           1.1680   -4.9136   -1.3160 H       1  LIG1        0.1232
     10 N           2.1415   -0.0702   -1.3667 N.1     1  LIG1       -0.1908
     11 C           1.1248   -0.2911   -0.8622 C.1     1  LIG1        0.1015
     12 C          -0.8065    1.8154    0.2949 C.ar    1  LIG1        0.0444
     13 C           0.2519    2.5075    0.8375 C.ar    1  LIG1        0.0579
     14 C           0.0718    3.9314    0.7376 C.ar    1  LIG1        0.0830
     15 C          -1.1055    4.2924    0.1266 C.ar    1  LIG1        0.0463
     16 S          -2.0058    2.8923   -0.3430 S.2     1  LIG1       -0.0846
     17 C           1.3710    1.9133    1.4805 C.1     1  LIG1       -0.0672
     18 C           2.3240    1.4316    2.0330 C.1     1  LIG1       -0.1138
     19 H           3.1766    1.0044    2.5102 H       1  LIG1        0.1232
     20 N           1.7429    5.6026    1.7788 N.1     1  LIG1       -0.1908
     21 C           0.9969    4.8606    1.2998 C.1     1  LIG1        0.1016
     22 C          -1.6148    5.6289   -0.1431 C.ar    1  LIG1        0.0444
     23 C          -0.9714    6.6709   -0.7714 C.ar    1  LIG1        0.0579
     24 C          -1.8114    7.8339   -0.8786 C.ar    1  LIG1        0.0830
     25 C          -3.0624    7.6580   -0.3370 C.ar    1  LIG1        0.0463
     26 S          -3.2265    6.0674    0.3217 S.2     1  LIG1       -0.0846
     27 C           0.3395    6.6093   -1.3152 C.1     1  LIG1       -0.0672
     28 C           1.4451    6.5722   -1.7862 C.1     1  LIG1       -0.1138
     29 H           2.4309    6.5413   -2.1922 H       1  LIG1        0.1232
     30 N          -1.0545    9.9622   -2.1304 N.1     1  LIG1       -0.1908
     31 C          -1.3958    9.0173   -1.5584 C.1     1  LIG1        0.1016
     32 C          -4.1622    8.6093   -0.2630 C.ar    1  LIG1        0.0438
     33 C          -4.1373    9.8962    0.2259 C.ar    1  LIG1        0.0573
     34 C          -5.4340   10.5185    0.1443 C.ar    1  LIG1        0.0747
     35 C          -6.3879    9.6972   -0.3839 C.ar    1  LIG1       -0.0051
     36 S          -5.7520    8.1677   -0.8063 S.2     1  LIG1       -0.0935
     37 H          -7.4302    9.9298   -0.5460 H       1  LIG1        0.0707
     38 C          -2.9999   10.5351    0.7880 C.1     1  LIG1       -0.0672
     39 C          -2.0491   11.0896    1.2719 C.1     1  LIG1       -0.1138
     40 H          -1.2007   11.5843    1.6878 H       1  LIG1        0.1232
     41 N          -5.9360   12.9238    0.9441 N.1     1  LIG1       -0.1908
     42 C          -5.7034   11.8494    0.5862 C.1     1  LIG1        0.1009
@<TRIPOS>BOND
     1    29    28    1
     2    30    31    3
     3    28    27    3
     4    31    24    1
     5    10    11    3
     6     9     8    1
     7    27    23    1
     8     8     7    3
     9    24    23   ar
    10    24    25   ar
    11    11     3    1
    12    36    35   ar
    13    36    32   ar
    14    23    22   ar
    15     7     2    1
    16    37    35    1
    17    35    34   ar
    18    16    15   ar
    19    16    12   ar
    20    25    32    1
    21    25    26   ar
    22    32    33   ar
    23     3     2   ar
    24     3     4   ar
    25     2     1   ar
    26    22    15    1
    27    22    26   ar
    28    15    14   ar
    29    34    33   ar
    30    34    42    1
    31     4    12    1
    32     4     5   ar
    33    33    38    1
    34    12    13   ar
    35     1     6    1
    36     1     5   ar
    37    42    41    3
    38    14    13   ar
    39    14    21    1
    40    38    39    3
    41    13    17    1
    42    39    40    1
    43    21    20    3
    44    17    18    3
    45    18    19    1
