@<TRIPOS>MOLECULE
mol_data/opt/cam/geoms/mol2/5ed5ed-5ed.out
 32 34 0 0 0
SMALL
GASTEIGER

@<TRIPOS>ATOM
      1 C          -1.8688   -1.8923   -0.5337 C.ar    1  LIG1       -0.0070
      2 C          -0.7358   -1.8502    0.2283 C.ar    1  LIG1        0.0496
      3 C          -0.2285   -0.5068    0.3504 C.ar    1  LIG1        0.0824
      4 C          -0.9836    0.4197   -0.3295 C.ar    1  LIG1        0.0457
      5 S          -2.3234   -0.3460   -1.1178 S.2     1  LIG1       -0.0935
      6 H          -2.4527   -2.7674   -0.7774 H       1  LIG1        0.0706
      7 C          -0.1326   -2.9845    0.8420 C.1     1  LIG1       -0.0678
      8 C           0.3834   -3.9371    1.3639 C.1     1  LIG1       -0.1139
      9 H           0.8465   -4.7765    1.8305 H       1  LIG1        0.1232
     10 N           1.8176    0.0662    1.8183 N.1     1  LIG1       -0.1908
     11 C           0.9065   -0.1822    1.1511 C.1     1  LIG1        0.1015
     12 C          -0.7756    1.8572   -0.4361 C.ar    1  LIG1        0.0444
     13 C           0.3659    2.5247   -0.8165 C.ar    1  LIG1        0.0579
     14 C           0.1785    3.9512   -0.8221 C.ar    1  LIG1        0.0830
     15 C          -1.0863    4.3387   -0.4495 C.ar    1  LIG1        0.0463
     16 S          -2.0628    2.9611   -0.0762 S.2     1  LIG1       -0.0846
     17 C           1.5782    1.9025   -1.2196 C.1     1  LIG1       -0.0672
     18 C           2.6113    1.3963   -1.5687 C.1     1  LIG1       -0.1138
     19 H           3.5329    0.9484   -1.8642 H       1  LIG1        0.1232
     20 N           2.0190    5.5734   -1.6291 N.1     1  LIG1       -0.1908
     21 C           1.1945    4.8544   -1.2551 C.1     1  LIG1        0.1016
     22 C          -1.6272    5.6862   -0.3393 C.ar    1  LIG1        0.0438
     23 C          -1.1024    6.7551    0.3516 C.ar    1  LIG1        0.0573
     24 C          -1.9375    7.9231    0.2341 C.ar    1  LIG1        0.0747
     25 C          -3.0551    7.7064   -0.5192 C.ar    1  LIG1       -0.0051
     26 S          -3.1248    6.1052   -1.1136 S.2     1  LIG1       -0.0935
     27 H          -3.8322    8.4199   -0.7514 H       1  LIG1        0.0707
     28 C           0.0870    6.7218    1.1277 C.1     1  LIG1       -0.0672
     29 C           1.0881    6.7102    1.7934 C.1     1  LIG1       -0.1138
     30 H           1.9840    6.7012    2.3721 H       1  LIG1        0.1232
     31 N          -1.4157   10.1922    1.3548 N.1     1  LIG1       -0.1908
     32 C          -1.6414    9.1747    0.8545 C.1     1  LIG1        0.1009
@<TRIPOS>BOND
     1    19    18    1
     2    20    21    3
     3    18    17    3
     4    21    14    1
     5    17    13    1
     6     5     1   ar
     7     5     4   ar
     8    26    25   ar
     9    26    22   ar
    10    14    13   ar
    11    14    15   ar
    12    13    12   ar
    13     6     1    1
    14    27    25    1
    15     1     2   ar
    16    25    24   ar
    17    15    22    1
    18    15    16   ar
    19    12     4    1
    20    12    16   ar
    21    22    23   ar
    22     4     3   ar
    23     2     3   ar
    24     2     7    1
    25    24    23   ar
    26    24    32    1
    27     3    11    1
    28    23    28    1
    29     7     8    3
    30    32    31    3
    31    28    29    3
    32    11    10    3
    33     8     9    1
    34    29    30    1
