@<TRIPOS>MOLECULE
mol_data/opt/cam/geoms/mol2/5ed5ed-5ed5ed.out
 42 45 0 0 0
SMALL
GASTEIGER

@<TRIPOS>ATOM
      1 C          -1.9043   -1.9282   -0.4083 C.ar    1  LIG1       -0.0070
      2 C          -0.6619   -1.9200    0.1600 C.ar    1  LIG1        0.0496
      3 C          -0.1376   -0.5820    0.2689 C.ar    1  LIG1        0.0824
      4 C          -0.9909    0.3746   -0.2286 C.ar    1  LIG1        0.0457
      5 S          -2.4435   -0.3559   -0.8278 S.2     1  LIG1       -0.0935
      6 H          -2.5226   -2.7925   -0.6000 H       1  LIG1        0.0706
      7 C           0.0299   -3.0816    0.6061 C.1     1  LIG1       -0.0678
      8 C           0.6213   -4.0575    0.9854 C.1     1  LIG1       -0.1139
      9 H           1.1517   -4.9178    1.3251 H       1  LIG1        0.1232
     10 N           2.1211   -0.0741    1.4133 N.1     1  LIG1       -0.1908
     11 C           1.1133   -0.2934    0.8907 C.1     1  LIG1        0.1015
     12 C          -0.7996    1.8170   -0.2896 C.ar    1  LIG1        0.0444
     13 C           0.2674    2.5122   -0.8111 C.ar    1  LIG1        0.0579
     14 C           0.0847    3.9355   -0.7081 C.ar    1  LIG1        0.0830
     15 C          -1.1030    4.2931   -0.1156 C.ar    1  LIG1        0.0463
     16 S          -2.0103    2.8904    0.3325 S.2     1  LIG1       -0.0846
     17 C           1.3976    1.9215   -1.4376 C.1     1  LIG1       -0.0672
     18 C           2.3602    1.4427   -1.9760 C.1     1  LIG1       -0.1138
     19 H           3.2211    1.0181   -2.4404 H       1  LIG1        0.1232
     20 N           1.7722    5.6122   -1.7134 N.1     1  LIG1       -0.1908
     21 C           1.0186    4.8677   -1.2505 C.1     1  LIG1        0.1016
     22 C          -1.6178    5.6281    0.1513 C.ar    1  LIG1        0.0444
     23 C          -0.9859    6.6678    0.7949 C.ar    1  LIG1        0.0579
     24 C          -1.8284    7.8297    0.8929 C.ar    1  LIG1        0.0830
     25 C          -3.0699    7.6554    0.3294 C.ar    1  LIG1        0.0463
     26 S          -3.2217    6.0676   -0.3388 S.2     1  LIG1       -0.0846
     27 C           0.3157    6.6047    1.3604 C.1     1  LIG1       -0.0672
     28 C           1.4132    6.5663    1.8499 C.1     1  LIG1       -0.1138
     29 H           2.3920    6.5343    2.2724 H       1  LIG1        0.1232
     30 N          -1.0943    9.9531    2.1665 N.1     1  LIG1       -0.1908
     31 C          -1.4251    9.0105    1.5847 C.1     1  LIG1        0.1016
     32 C          -4.1690    8.6064    0.2409 C.ar    1  LIG1        0.0438
     33 C          -4.1368    9.8954   -0.2419 C.ar    1  LIG1        0.0573
     34 C          -5.4352   10.5164   -0.1795 C.ar    1  LIG1        0.0747
     35 C          -6.3972    9.6921    0.3289 C.ar    1  LIG1       -0.0051
     36 S          -5.7675    8.1613    0.7553 S.2     1  LIG1       -0.0935
     37 H          -7.4423    9.9234    0.4743 H       1  LIG1        0.0707
     38 C          -2.9905   10.5375   -0.7818 C.1     1  LIG1       -0.0672
     39 C          -2.0321   11.0947   -1.2472 C.1     1  LIG1       -0.1138
     40 H          -1.1771   11.5918   -1.6464 H       1  LIG1        0.1232
     41 N          -5.9253   12.9249   -0.9772 N.1     1  LIG1       -0.1908
     42 C          -5.6980   11.8491   -0.6201 C.1     1  LIG1        0.1009
@<TRIPOS>BOND
     1    19    18    1
     2    18    17    3
     3    20    21    3
     4    40    39    1
     5    17    13    1
     6    21    14    1
     7    39    38    3
     8    41    42    3
     9     5     1   ar
    10     5     4   ar
    11    13    14   ar
    12    13    12   ar
    13    38    33    1
    14    14    15   ar
    15    42    34    1
    16     6     1    1
    17     1     2   ar
    18    26    22   ar
    19    26    25   ar
    20    12     4    1
    21    12    16   ar
    22    33    34   ar
    23    33    32   ar
    24     4     3   ar
    25    34    35   ar
    26    15    22    1
    27    15    16   ar
    28    22    23   ar
    29     2     3   ar
    30     2     7    1
    31    32    25    1
    32    32    36   ar
    33     3    11    1
    34    35    37    1
    35    35    36   ar
    36    25    24   ar
    37     7     8    3
    38    23    24   ar
    39    23    27    1
    40    11    10    3
    41    24    31    1
    42     8     9    1
    43    27    28    3
    44    31    30    3
    45    28    29    1
