@<TRIPOS>MOLECULE
mol_data/opt/cam/geoms/mol2/5ed5ed-5ed-.out
 32 34 0 0 0
SMALL
GASTEIGER

@<TRIPOS>ATOM
      1 C          -1.8416   -1.8959   -0.5680 C.ar    1  LIG1       -0.0070
      2 C          -0.7060   -1.8544    0.1901 C.ar    1  LIG1        0.0496
      3 C          -0.2064   -0.5091    0.3234 C.ar    1  LIG1        0.0824
      4 C          -0.9696    0.4193   -0.3446 C.ar    1  LIG1        0.0457
      5 S          -2.3078   -0.3468   -1.1353 S.2     1  LIG1       -0.0935
      6 H          -2.4211   -2.7721   -0.8181 H       1  LIG1        0.0706
      7 C          -0.0936   -2.9909    0.7905 C.1     1  LIG1       -0.0678
      8 C           0.4302   -3.9453    1.3011 C.1     1  LIG1       -0.1139
      9 H           0.9000   -4.7863    1.7579 H       1  LIG1        0.1232
     10 N           1.8418    0.0620    1.7892 N.1     1  LIG1       -0.1908
     11 C           0.9297   -0.1855    1.1230 C.1     1  LIG1        0.1015
     12 C          -0.7708    1.8590   -0.4380 C.ar    1  LIG1        0.0444
     13 C           0.3652    2.5371   -0.8161 C.ar    1  LIG1        0.0579
     14 C           0.1692    3.9625   -0.8071 C.ar    1  LIG1        0.0830
     15 C          -1.0966    4.3386   -0.4260 C.ar    1  LIG1        0.0463
     16 S          -2.0633    2.9514   -0.0625 S.2     1  LIG1       -0.0846
     17 C           1.5797    1.9263   -1.2297 C.1     1  LIG1       -0.0672
     18 C           2.6146    1.4298   -1.5876 C.1     1  LIG1       -0.1138
     19 H           3.5377    0.9906   -1.8909 H       1  LIG1        0.1232
     20 N           1.9967    5.6036   -1.6051 N.1     1  LIG1       -0.1908
     21 C           1.1780    4.8760   -1.2350 C.1     1  LIG1        0.1016
     22 C          -1.6453    5.6816   -0.3008 C.ar    1  LIG1        0.0438
     23 C          -1.1244    6.7470    0.3985 C.ar    1  LIG1        0.0573
     24 C          -1.9670    7.9109    0.2954 C.ar    1  LIG1        0.0747
     25 C          -3.0861    7.6947   -0.4558 C.ar    1  LIG1       -0.0051
     26 S          -3.1483    6.0989   -1.0654 S.2     1  LIG1       -0.0935
     27 H          -3.8684    8.4056   -0.6782 H       1  LIG1        0.0707
     28 C           0.0681    6.7135    1.1698 C.1     1  LIG1       -0.0672
     29 C           1.0718    6.7016    1.8316 C.1     1  LIG1       -0.1138
     30 H           1.9699    6.6923    2.4068 H       1  LIG1        0.1232
     31 N          -1.4548   10.1722    1.4360 N.1     1  LIG1       -0.1908
     32 C          -1.6762    9.1583    0.9268 C.1     1  LIG1        0.1009
@<TRIPOS>BOND
     1    19    18    1
     2    20    21    3
     3    18    17    3
     4    21    14    1
     5    17    13    1
     6     5     1   ar
     7     5     4   ar
     8    26    25   ar
     9    26    22   ar
    10     6     1    1
    11    13    14   ar
    12    13    12   ar
    13    14    15   ar
    14    27    25    1
    15     1     2   ar
    16    25    24   ar
    17    12     4    1
    18    12    16   ar
    19    15    22    1
    20    15    16   ar
    21     4     3   ar
    22    22    23   ar
    23     2     3   ar
    24     2     7    1
    25    24    23   ar
    26    24    32    1
    27     3    11    1
    28    23    28    1
    29     7     8    3
    30    32    31    3
    31    11    10    3
    32    28    29    3
    33     8     9    1
    34    29    30    1
