@<TRIPOS>MOLECULE
mol_data/opt/cam/geoms/mol2/5ed5ed5ed-.out
 32 34 0 0 0
SMALL
GASTEIGER

@<TRIPOS>ATOM
      1 C          -1.8673   -1.8899   -0.5557 C.ar    1  LIG1       -0.0070
      2 C          -0.7492   -1.8493    0.2282 C.ar    1  LIG1        0.0496
      3 C          -0.2420   -0.5067    0.3590 C.ar    1  LIG1        0.0824
      4 C          -0.9819    0.4206   -0.3363 C.ar    1  LIG1        0.0457
      5 S          -2.3076   -0.3433   -1.1499 S.2     1  LIG1       -0.0935
      6 H          -2.4479   -2.7642   -0.8101 H       1  LIG1        0.0706
      7 C          -0.1602   -2.9841    0.8545 C.1     1  LIG1       -0.0678
      8 C           0.3438   -3.9372    1.3871 C.1     1  LIG1       -0.1139
      9 H           0.7962   -4.7769    1.8636 H       1  LIG1        0.1232
     10 N           1.7762    0.0640    1.8660 N.1     1  LIG1       -0.1908
     11 C           0.8779   -0.1834    1.1814 C.1     1  LIG1        0.1015
     12 C          -0.7692    1.8576   -0.4400 C.ar    1  LIG1        0.0444
     13 C           0.3807    2.5226   -0.7989 C.ar    1  LIG1        0.0579
     14 C           0.1962    3.9495   -0.8092 C.ar    1  LIG1        0.0830
     15 C          -1.0748    4.3397   -0.4613 C.ar    1  LIG1        0.0463
     16 S          -2.0610    2.9642   -0.1059 S.2     1  LIG1       -0.0846
     17 C           1.5993    1.8977   -1.1780 C.1     1  LIG1       -0.0672
     18 C           2.6380    1.3893   -1.5068 C.1     1  LIG1       -0.1138
     19 H           3.5642    0.9394   -1.7840 H       1  LIG1        0.1232
     20 N           2.0550    5.5675   -1.5817 N.1     1  LIG1       -0.1908
     21 C           1.2221    4.8504   -1.2231 C.1     1  LIG1        0.1016
     22 C          -1.6151    5.6883   -0.3627 C.ar    1  LIG1        0.0438
     23 C          -1.1017    6.7567    0.3376 C.ar    1  LIG1        0.0573
     24 C          -1.9320    7.9263    0.2029 C.ar    1  LIG1        0.0747
     25 C          -3.0351    7.7113   -0.5719 C.ar    1  LIG1       -0.0051
     26 S          -3.0964    6.1098   -1.1664 S.2     1  LIG1       -0.0935
     27 H          -3.8060    8.4262   -0.8197 H       1  LIG1        0.0707
     28 C           0.0722    6.7215    1.1367 C.1     1  LIG1       -0.0672
     29 C           1.0602    6.7084    1.8219 C.1     1  LIG1       -0.1138
     30 H           1.9445    6.6980    2.4179 H       1  LIG1        0.1232
     31 N          -1.4275   10.1952    1.3319 N.1     1  LIG1       -0.1908
     32 C          -1.6455    9.1778    0.8281 C.1     1  LIG1        0.1009
@<TRIPOS>BOND
     1    19    18    1
     2    20    21    3
     3    18    17    3
     4    21    14    1
     5    17    13    1
     6    26    25   ar
     7    26    22   ar
     8     5     1   ar
     9     5     4   ar
    10    27    25    1
    11     6     1    1
    12    14    13   ar
    13    14    15   ar
    14    13    12   ar
    15    25    24   ar
    16     1     2   ar
    17    15    22    1
    18    15    16   ar
    19    12     4    1
    20    12    16   ar
    21    22    23   ar
    22     4     3   ar
    23    24    23   ar
    24    24    32    1
    25     2     3   ar
    26     2     7    1
    27    23    28    1
    28     3    11    1
    29    32    31    3
    30     7     8    3
    31    28    29    3
    32    11    10    3
    33     8     9    1
    34    29    30    1
