@<TRIPOS>MOLECULE
mol_data/opt/cam/geoms/mol2/5ed5ed-.out
 22 23 0 0 0
SMALL
GASTEIGER

@<TRIPOS>ATOM
      1 C          -1.8778   -1.7498    0.8703 C.ar    1  LIG1       -0.0070
      2 C          -0.7245   -1.8558    0.1460 C.ar    1  LIG1        0.0496
      3 C          -0.2476   -0.5651   -0.2835 C.ar    1  LIG1        0.0824
      4 C          -1.0450    0.4730    0.1364 C.ar    1  LIG1        0.0457
      5 S          -2.3868   -0.1233    1.0562 S.2     1  LIG1       -0.0935
      6 H          -2.4467   -2.5592    1.3032 H       1  LIG1        0.0706
      7 C          -0.0756   -3.0847   -0.1638 C.1     1  LIG1       -0.0678
      8 C           0.4787   -4.1182   -0.4296 C.1     1  LIG1       -0.1139
      9 H           0.9759   -5.0300   -0.6704 H       1  LIG1        0.1232
     10 N           1.8284   -0.2976   -1.7964 N.1     1  LIG1       -0.1908
     11 C           0.9033   -0.4062   -1.1112 C.1     1  LIG1        0.1015
     12 C          -0.8758    1.9010   -0.0987 C.ar    1  LIG1        0.0438
     13 C           0.2342    2.6764    0.1482 C.ar    1  LIG1        0.0573
     14 C           0.0091    4.0545   -0.2072 C.ar    1  LIG1        0.0747
     15 C          -1.2453    4.2815   -0.6951 C.ar    1  LIG1       -0.0051
     16 S          -2.1766    2.8490   -0.7516 S.2     1  LIG1       -0.0935
     17 H          -1.6546    5.2250   -1.0252 H       1  LIG1        0.0707
     18 C           1.4474    2.2088    0.7215 C.1     1  LIG1       -0.0672
     19 C           2.4813    1.8361    1.2092 C.1     1  LIG1       -0.1138
     20 H           3.4040    1.5025    1.6267 H       1  LIG1        0.1232
     21 N           1.7675    5.9265    0.0779 N.1     1  LIG1       -0.1908
     22 C           0.9866    5.0835   -0.0493 C.1     1  LIG1        0.1009
@<TRIPOS>BOND
     1    10    11    3
     2    11     3    1
     3    17    15    1
     4    16    15   ar
     5    16    12   ar
     6    15    14   ar
     7     9     8    1
     8     8     7    3
     9     3     4   ar
    10     3     2   ar
    11    14    22    1
    12    14    13   ar
    13     7     2    1
    14    12     4    1
    15    12    13   ar
    16    22    21    3
    17     4     5   ar
    18     2     1   ar
    19    13    18    1
    20    18    19    3
    21     1     5   ar
    22     1     6    1
    23    19    20    1
