@<TRIPOS>MOLECULE
mol_data/opt/cam/geoms/mol2/5ed5ed-5ed5ed-.out
 42 45 0 0 0
SMALL
GASTEIGER

@<TRIPOS>ATOM
      1 C          -0.9633   -1.7841    1.7212 C.ar    1  LIG1       -0.0070
      2 C          -0.5918   -1.8842    0.4103 C.ar    1  LIG1        0.0496
      3 C          -0.3905   -0.5869   -0.1838 C.ar    1  LIG1        0.0824
      4 C          -0.6043    0.4488    0.6948 C.ar    1  LIG1        0.0457
      5 S          -1.0583   -0.1574    2.2532 S.2     1  LIG1       -0.0935
      6 H          -1.1819   -2.5985    2.3959 H       1  LIG1        0.0706
      7 C          -0.4352   -3.1118   -0.2936 C.1     1  LIG1       -0.0678
      8 C          -0.3004   -4.1439   -0.8959 C.1     1  LIG1       -0.1139
      9 H          -0.1798   -5.0545   -1.4372 H       1  LIG1        0.1232
     10 N           0.1832   -0.2871   -2.6840 N.1     1  LIG1       -0.1908
     11 C          -0.0639   -0.4125   -1.5614 C.1     1  LIG1        0.1015
     12 C          -0.4919    1.8809    0.4521 C.ar    1  LIG1        0.0444
     13 C           0.5749    2.5717   -0.0750 C.ar    1  LIG1        0.0579
     14 C           0.3125    3.9838   -0.1608 C.ar    1  LIG1        0.0830
     15 C          -0.9253    4.3400    0.3186 C.ar    1  LIG1        0.0463
     16 S          -1.7956    2.9475    0.8618 S.2     1  LIG1       -0.0846
     17 C           1.8090    1.9886   -0.4702 C.1     1  LIG1       -0.0672
     18 C           2.8623    1.5164   -0.8064 C.1     1  LIG1       -0.1138
     19 H           3.7908    1.0959   -1.1202 H       1  LIG1        0.1232
     20 N           1.9992    5.6362   -1.2071 N.1     1  LIG1       -0.1908
     21 C           1.2428    4.9029   -0.7310 C.1     1  LIG1        0.1016
     22 C          -1.5201    5.6669    0.3969 C.ar    1  LIG1        0.0444
     23 C          -0.9887    6.8018    0.9654 C.ar    1  LIG1        0.0579
     24 C          -1.8874    7.9212    0.8709 C.ar    1  LIG1        0.0830
     25 C          -3.0706    7.6213    0.2388 C.ar    1  LIG1        0.0463
     26 S          -3.0969    5.9654   -0.2584 S.2     1  LIG1       -0.0846
     27 C           0.2663    6.8713    1.6280 C.1     1  LIG1       -0.0672
     28 C           1.3223    6.9508    2.1972 C.1     1  LIG1       -0.1138
     29 H           2.2657    7.0271    2.6886 H       1  LIG1        0.1232
     30 N          -1.3519   10.2030    1.9555 N.1     1  LIG1       -0.1908
     31 C          -1.5938    9.1885    1.4565 C.1     1  LIG1        0.1016
     32 C          -4.2000    8.4981   -0.0362 C.ar    1  LIG1        0.0438
     33 C          -4.1856    9.7282   -0.6545 C.ar    1  LIG1        0.0573
     34 C          -5.5106   10.2843   -0.7575 C.ar    1  LIG1        0.0747
     35 C          -6.4732    9.4701   -0.2340 C.ar    1  LIG1       -0.0051
     36 S          -5.8134    8.0279    0.4039 S.2     1  LIG1       -0.0935
     37 H          -7.5356    9.6608   -0.1932 H       1  LIG1        0.0707
     38 C          -3.0290   10.3673   -1.1757 C.1     1  LIG1       -0.0672
     39 C          -2.0617   10.9201   -1.6276 C.1     1  LIG1       -0.1138
     40 H          -1.2001   11.4147   -2.0158 H       1  LIG1        0.1232
     41 N          -6.0398   12.5664   -1.8477 N.1     1  LIG1       -0.1908
     42 C          -5.7952   11.5474   -1.3597 C.1     1  LIG1        0.1009
@<TRIPOS>BOND
     1    10    11    3
     2    40    39    1
     3    41    42    3
     4    39    38    3
     5    11     3    1
     6     9     8    1
     7    42    34    1
     8    20    21    3
     9    38    33    1
    10    19    18    1
    11     8     7    3
    12    18    17    3
    13    34    33   ar
    14    34    35   ar
    15    21    14    1
    16    33    32   ar
    17    17    13    1
    18     7     2    1
    19    26    25   ar
    20    26    22   ar
    21    35    37    1
    22    35    36   ar
    23     3     2   ar
    24     3     4   ar
    25    14    13   ar
    26    14    15   ar
    27    13    12   ar
    28    32    25    1
    29    32    36   ar
    30    25    24   ar
    31    15    22    1
    32    15    16   ar
    33    22    23   ar
    34     2     1   ar
    35    12     4    1
    36    12    16   ar
    37     4     5   ar
    38    24    23   ar
    39    24    31    1
    40    23    27    1
    41    31    30    3
    42    27    28    3
    43     1     5   ar
    44     1     6    1
    45    28    29    1
