@<TRIPOS>MOLECULE
mol_data/opt/cam/geoms/mol2/5ed5ed5ed5ed.out
 42 45 0 0 0
SMALL
GASTEIGER

@<TRIPOS>ATOM
      1 C          -1.9073   -1.9293   -0.4022 C.ar    1  LIG1       -0.0070
      2 C          -0.6663   -1.9198    0.1690 C.ar    1  LIG1        0.0496
      3 C          -0.1414   -0.5818    0.2743 C.ar    1  LIG1        0.0824
      4 C          -0.9929    0.3736   -0.2289 C.ar    1  LIG1        0.0457
      5 S          -2.4445   -0.3583   -0.8289 S.2     1  LIG1       -0.0935
      6 H          -2.5257   -2.7939   -0.5922 H       1  LIG1        0.0706
      7 C           0.0237   -3.0802    0.6211 C.1     1  LIG1       -0.0678
      8 C           0.6136   -4.0550    1.0055 C.1     1  LIG1       -0.1139
      9 H           1.1426   -4.9144    1.3496 H       1  LIG1        0.1232
     10 N           2.1149   -0.0710    1.4222 N.1     1  LIG1       -0.1908
     11 C           1.1081   -0.2916    0.8980 C.1     1  LIG1        0.1015
     12 C          -0.8005    1.8156   -0.2948 C.ar    1  LIG1        0.0444
     13 C           0.2681    2.5082   -0.8163 C.ar    1  LIG1        0.0579
     14 C           0.0860    3.9320   -0.7190 C.ar    1  LIG1        0.0830
     15 C          -1.1029    4.2925   -0.1307 C.ar    1  LIG1        0.0463
     16 S          -2.0121    2.8921    0.3204 S.2     1  LIG1       -0.0846
     17 C           1.3995    1.9144   -1.4379 C.1     1  LIG1       -0.0672
     18 C           2.3630    1.4331   -1.9721 C.1     1  LIG1       -0.1138
     19 H           3.2248    1.0062   -2.4329 H       1  LIG1        0.1232
     20 N           1.7769    5.6039   -1.7265 N.1     1  LIG1       -0.1908
     21 C           1.0218    4.8615   -1.2626 C.1     1  LIG1        0.1016
     22 C          -1.6174    5.6288    0.1300 C.ar    1  LIG1        0.0444
     23 C          -0.9864    6.6705    0.7712 C.ar    1  LIG1        0.0579
     24 C          -1.8284    7.8333    0.8628 C.ar    1  LIG1        0.0830
     25 C          -3.0687    7.6576    0.2971 C.ar    1  LIG1        0.0463
     26 S          -3.2199    6.0674   -0.3656 S.2     1  LIG1       -0.0846
     27 C           0.3138    6.6087    1.3400 C.1     1  LIG1       -0.0672
     28 C           1.4101    6.5714    1.8323 C.1     1  LIG1       -0.1138
     29 H           2.3879    6.5402    2.2573 H       1  LIG1        0.1232
     30 N          -1.0961    9.9609    2.1303 N.1     1  LIG1       -0.1908
     31 C          -1.4261    9.0164    1.5512 C.1     1  LIG1        0.1016
     32 C          -4.1670    8.6089    0.2025 C.ar    1  LIG1        0.0438
     33 C          -4.1328    9.8961   -0.2850 C.ar    1  LIG1        0.0573
     34 C          -5.4310   10.5182   -0.2281 C.ar    1  LIG1        0.0747
     35 C          -6.3947    9.6964    0.2810 C.ar    1  LIG1       -0.0051
     36 S          -5.7670    8.1667    0.7147 S.2     1  LIG1       -0.0935
     37 H          -7.4400    9.9287    0.4231 H       1  LIG1        0.0707
     38 C          -2.9849   10.5355   -0.8246 C.1     1  LIG1       -0.0672
     39 C          -2.0250   11.0904   -1.2896 C.1     1  LIG1       -0.1138
     40 H          -1.1688   11.5857   -1.6887 H       1  LIG1        0.1232
     41 N          -5.9177   12.9239   -1.0359 N.1     1  LIG1       -0.1908
     42 C          -5.6919   11.8494   -0.6742 C.1     1  LIG1        0.1009
@<TRIPOS>BOND
     1    19    18    1
     2    18    17    3
     3    20    21    3
     4    40    39    1
     5    17    13    1
     6    39    38    3
     7    21    14    1
     8    41    42    3
     9     5     1   ar
    10     5     4   ar
    11    38    33    1
    12    13    14   ar
    13    13    12   ar
    14    14    15   ar
    15    42    34    1
    16     6     1    1
    17     1     2   ar
    18    26    22   ar
    19    26    25   ar
    20    12     4    1
    21    12    16   ar
    22    33    34   ar
    23    33    32   ar
    24     4     3   ar
    25    34    35   ar
    26    15    22    1
    27    15    16   ar
    28    22    23   ar
    29     2     3   ar
    30     2     7    1
    31    32    25    1
    32    32    36   ar
    33     3    11    1
    34    35    37    1
    35    35    36   ar
    36    25    24   ar
    37     7     8    3
    38    23    24   ar
    39    23    27    1
    40    24    31    1
    41    11    10    3
    42     8     9    1
    43    27    28    3
    44    31    30    3
    45    28    29    1
