@<TRIPOS>MOLECULE
mol_data/opt/cam/geoms/mol2/5ed5ed.out
 22 23 0 0 0
SMALL
GASTEIGER

@<TRIPOS>ATOM
      1 C          -1.8822   -1.7425    0.8929 C.ar    1  LIG1       -0.0070
      2 C          -0.7271   -1.8542    0.1724 C.ar    1  LIG1        0.0496
      3 C          -0.2480   -0.5668   -0.2644 C.ar    1  LIG1        0.0824
      4 C          -1.0457    0.4747    0.1463 C.ar    1  LIG1        0.0457
      5 S          -2.3904   -0.1144    1.0665 S.2     1  LIG1       -0.0935
      6 H          -2.4529   -2.5485    1.3296 H       1  LIG1        0.0706
      7 C          -0.0783   -3.0856   -0.1274 C.1     1  LIG1       -0.0678
      8 C           0.4758   -4.1214   -0.3848 C.1     1  LIG1       -0.1139
      9 H           0.9729   -5.0352   -0.6182 H       1  LIG1        0.1232
     10 N           1.8322   -0.3113   -1.7737 N.1     1  LIG1       -0.1908
     11 C           0.9053   -0.4145   -1.0901 C.1     1  LIG1        0.1015
     12 C          -0.8748    1.9010   -0.0980 C.ar    1  LIG1        0.0438
     13 C           0.2352    2.6772    0.1464 C.ar    1  LIG1        0.0573
     14 C           0.0121    4.0530   -0.2191 C.ar    1  LIG1        0.0747
     15 C          -1.2410    4.2777   -0.7115 C.ar    1  LIG1       -0.0051
     16 S          -2.1733    2.8455   -0.7604 S.2     1  LIG1       -0.0935
     17 H          -1.6487    5.2192   -1.0491 H       1  LIG1        0.0707
     18 C           1.4466    2.2127    0.7259 C.1     1  LIG1       -0.0672
     19 C           2.4789    1.8428    1.2191 C.1     1  LIG1       -0.1138
     20 H           3.4003    1.5115    1.6413 H       1  LIG1        0.1232
     21 N           1.7714    5.9254    0.0574 N.1     1  LIG1       -0.1908
     22 C           0.9900    5.0822   -0.0660 C.1     1  LIG1        0.1009
@<TRIPOS>BOND
     1    10    11    3
     2    11     3    1
     3    17    15    1
     4    16    15   ar
     5    16    12   ar
     6    15    14   ar
     7     9     8    1
     8     8     7    3
     9     3     4   ar
    10     3     2   ar
    11    14    22    1
    12    14    13   ar
    13     7     2    1
    14    12     4    1
    15    12    13   ar
    16    22    21    3
    17     4     5   ar
    18    13    18    1
    19     2     1   ar
    20    18    19    3
    21     1     5   ar
    22     1     6    1
    23    19    20    1
