@<TRIPOS>MOLECULE
mol_data/opt/cam/geoms/mol2/5ed5ed5ed-5ed-.out
 42 45 0 0 0
SMALL
GASTEIGER

@<TRIPOS>ATOM
      1 C          -1.9025   -1.9295   -0.4154 C.ar    1  LIG1       -0.0070
      2 C          -0.6702   -1.9199    0.1744 C.ar    1  LIG1        0.0496
      3 C          -0.1469   -0.5819    0.2870 C.ar    1  LIG1        0.0824
      4 C          -0.9905    0.3733   -0.2294 C.ar    1  LIG1        0.0457
      5 S          -2.4331   -0.3587   -0.8506 S.2     1  LIG1       -0.0935
      6 H          -2.5180   -2.7942   -0.6144 H       1  LIG1        0.0706
      7 C           0.0129   -3.0802    0.6372 C.1     1  LIG1       -0.0678
      8 C           0.5968   -4.0549    1.0308 C.1     1  LIG1       -0.1139
      9 H           1.1205   -4.9142    1.3831 H       1  LIG1        0.1232
     10 N           2.0920   -0.0710    1.4684 N.1     1  LIG1       -0.1908
     11 C           1.0932   -0.2916    0.9293 C.1     1  LIG1        0.1015
     12 C          -0.7970    1.8153   -0.2930 C.ar    1  LIG1        0.0444
     13 C           0.2795    2.5074   -0.7989 C.ar    1  LIG1        0.0579
     14 C           0.0962    3.9313   -0.7050 C.ar    1  LIG1        0.0830
     15 C          -1.1012    4.2924   -0.1346 C.ar    1  LIG1        0.0463
     16 S          -2.0173    2.8923    0.3036 S.2     1  LIG1       -0.0846
     17 C           1.4198    1.9132   -1.4033 C.1     1  LIG1       -0.0672
     18 C           2.3912    1.4315   -1.9228 C.1     1  LIG1       -0.1138
     19 H           3.2598    1.0044   -2.3705 H       1  LIG1        0.1232
     20 N           1.8023    5.6023   -1.6882 N.1     1  LIG1       -0.1908
     21 C           1.0401    4.8604   -1.2352 C.1     1  LIG1        0.1016
     22 C          -1.6193    5.6288    0.1176 C.ar    1  LIG1        0.0444
     23 C          -0.9977    6.6706    0.7678 C.ar    1  LIG1        0.0579
     24 C          -1.8408    7.8337    0.8464 C.ar    1  LIG1        0.0830
     25 C          -3.0725    7.6581    0.2621 C.ar    1  LIG1        0.0463
     26 S          -3.2140    6.0677   -0.4023 S.2     1  LIG1       -0.0846
     27 C           0.2937    6.6088    1.3563 C.1     1  LIG1       -0.0672
     28 C           1.3824    6.5716    1.8651 C.1     1  LIG1       -0.1138
     29 H           2.3536    6.5405    2.3048 H       1  LIG1        0.1232
     30 N          -1.1271    9.9617    2.1239 N.1     1  LIG1       -0.1908
     31 C          -1.4486    9.0169    1.5403 C.1     1  LIG1        0.1016
     32 C          -4.1690    8.6096    0.1507 C.ar    1  LIG1        0.0438
     33 C          -4.1271    9.8967   -0.3365 C.ar    1  LIG1        0.0573
     34 C          -5.4258   10.5191   -0.2996 C.ar    1  LIG1        0.0747
     35 C          -6.3973    9.6977    0.1952 C.ar    1  LIG1       -0.0051
     36 S          -5.7766    8.1681    0.6389 S.2     1  LIG1       -0.0935
     37 H          -7.4446    9.9305    0.3213 H       1  LIG1        0.0707
     38 C          -2.9709   10.5356   -0.8588 C.1     1  LIG1       -0.0672
     39 C          -2.0039   11.0902   -1.3094 C.1     1  LIG1       -0.1138
     40 H          -1.1416   11.5849   -1.6956 H       1  LIG1        0.1232
     41 N          -5.8995   12.9247   -1.1154 N.1     1  LIG1       -0.1908
     42 C          -5.6796   11.8502   -0.7500 C.1     1  LIG1        0.1009
@<TRIPOS>BOND
     1    19    18    1
     2    18    17    3
     3    40    39    1
     4    20    21    3
     5    17    13    1
     6    39    38    3
     7    21    14    1
     8    41    42    3
     9    38    33    1
    10     5     1   ar
    11     5     4   ar
    12    13    14   ar
    13    13    12   ar
    14    42    34    1
    15    14    15   ar
    16     6     1    1
    17     1     2   ar
    18    26    22   ar
    19    26    25   ar
    20    33    34   ar
    21    33    32   ar
    22    34    35   ar
    23    12     4    1
    24    12    16   ar
    25     4     3   ar
    26    15    22    1
    27    15    16   ar
    28    22    23   ar
    29    32    25    1
    30    32    36   ar
    31     2     3   ar
    32     2     7    1
    33    35    37    1
    34    35    36   ar
    35    25    24   ar
    36     3    11    1
    37     7     8    3
    38    23    24   ar
    39    23    27    1
    40    24    31    1
    41    11    10    3
    42     8     9    1
    43    27    28    3
    44    31    30    3
    45    28    29    1
