@<TRIPOS>MOLECULE
mol_data/opt/cam/geoms/mol2/5ed5ed-5ed-5ed.out
 42 45 0 0 0
SMALL
GASTEIGER

@<TRIPOS>ATOM
      1 C          -1.9134   -1.9304    0.3732 C.ar    1  LIG1       -0.0070
      2 C          -0.6636   -1.9194   -0.1783 C.ar    1  LIG1        0.0496
      3 C          -0.1372   -0.5811   -0.2718 C.ar    1  LIG1        0.0824
      4 C          -0.9966    0.3730    0.2202 C.ar    1  LIG1        0.0457
      5 S          -2.4575   -0.3605    0.7953 S.2     1  LIG1       -0.0935
      6 H          -2.5347   -2.7956    0.5512 H       1  LIG1        0.0706
      7 C           0.0336   -3.0786   -0.6223 C.1     1  LIG1       -0.0678
      8 C           0.6296   -4.0524   -0.9998 C.1     1  LIG1       -0.1139
      9 H           1.1640   -4.9108   -1.3380 H       1  LIG1        0.1232
     10 N           2.1369   -0.0672   -1.3825 N.1     1  LIG1       -0.1908
     11 C           1.1220   -0.2892   -0.8749 C.1     1  LIG1        0.1015
     12 C          -0.8054    1.8148    0.2928 C.ar    1  LIG1        0.0444
     13 C           0.2547    2.5061    0.8331 C.ar    1  LIG1        0.0579
     14 C           0.0742    3.9301    0.7365 C.ar    1  LIG1        0.0830
     15 C          -1.1052    4.2922    0.1301 C.ar    1  LIG1        0.0463
     16 S          -2.0070    2.8928   -0.3389 S.2     1  LIG1       -0.0846
     17 C           1.3761    1.9107    1.4712 C.1     1  LIG1       -0.0672
     18 C           2.3310    1.4280    2.0195 C.1     1  LIG1       -0.1138
     19 H           3.1853    1.0000    2.4930 H       1  LIG1        0.1232
     20 N           1.7488    5.5995    1.7750 N.1     1  LIG1       -0.1908
     21 C           1.0011    4.8583    1.2972 C.1     1  LIG1        0.1016
     22 C          -1.6155    5.6291   -0.1353 C.ar    1  LIG1        0.0444
     23 C          -0.9743    6.6723   -0.7640 C.ar    1  LIG1        0.0579
     24 C          -1.8147    7.8354   -0.8661 C.ar    1  LIG1        0.0830
     25 C          -3.0638    7.6585   -0.3204 C.ar    1  LIG1        0.0463
     26 S          -3.2255    6.0667    0.3359 S.2     1  LIG1       -0.0846
     27 C           0.3347    6.6117   -1.3124 C.1     1  LIG1       -0.0672
     28 C           1.4386    6.5755   -1.7874 C.1     1  LIG1       -0.1138
     29 H           2.4230    6.5454   -2.1968 H       1  LIG1        0.1232
     30 N          -1.0623    9.9661   -2.1166 N.1     1  LIG1       -0.1908
     31 C          -1.4015    9.0202   -1.5451 C.1     1  LIG1        0.1016
     32 C          -4.1633    8.6097   -0.2408 C.ar    1  LIG1        0.0438
     33 C          -4.1368    9.8956    0.2505 C.ar    1  LIG1        0.0573
     34 C          -5.4338   10.5181    0.1745 C.ar    1  LIG1        0.0747
     35 C          -6.3894    9.6978   -0.3520 C.ar    1  LIG1       -0.0051
     36 S          -5.7551    8.1691   -0.7796 S.2     1  LIG1       -0.0935
     37 H          -7.4323    9.9307   -0.5101 H       1  LIG1        0.0707
     38 C          -2.9975   10.5334    0.8099 C.1     1  LIG1       -0.0672
     39 C          -2.0450   11.0869    1.2917 C.1     1  LIG1       -0.1138
     40 H          -1.1952   11.5809    1.7056 H       1  LIG1        0.1232
     41 N          -5.9330   12.9218    0.9807 N.1     1  LIG1       -0.1908
     42 C          -5.7016   11.8481    0.6199 C.1     1  LIG1        0.1009
@<TRIPOS>BOND
     1    29    28    1
     2    30    31    3
     3    28    27    3
     4    31    24    1
     5    10    11    3
     6     9     8    1
     7    27    23    1
     8     8     7    3
     9    11     3    1
    10    24    23   ar
    11    24    25   ar
    12    36    35   ar
    13    36    32   ar
    14    23    22   ar
    15     7     2    1
    16    37    35    1
    17    35    34   ar
    18    16    15   ar
    19    16    12   ar
    20    25    32    1
    21    25    26   ar
    22     3     2   ar
    23     3     4   ar
    24    32    33   ar
    25     2     1   ar
    26    22    15    1
    27    22    26   ar
    28    15    14   ar
    29    34    33   ar
    30    34    42    1
    31     4    12    1
    32     4     5   ar
    33    33    38    1
    34    12    13   ar
    35     1     6    1
    36     1     5   ar
    37    42    41    3
    38    14    13   ar
    39    14    21    1
    40    38    39    3
    41    13    17    1
    42    39    40    1
    43    21    20    3
    44    17    18    3
    45    18    19    1
