@<TRIPOS>MOLECULE
mol_data/opt/cam/geoms/mol2/5ed5ed5ed5ed-.out
 42 45 0 0 0
SMALL
GASTEIGER

@<TRIPOS>ATOM
      1 C          -1.9026   -1.9304   -0.3984 C.ar    1  LIG1       -0.0070
      2 C          -0.6636   -1.9192    0.1770 C.ar    1  LIG1        0.0496
      3 C          -0.1398   -0.5807    0.2818 C.ar    1  LIG1        0.0824
      4 C          -0.9901    0.3733   -0.2258 C.ar    1  LIG1        0.0457
      5 S          -2.4393   -0.3604   -0.8292 S.2     1  LIG1       -0.0935
      6 H          -2.5198   -2.7957   -0.5891 H       1  LIG1        0.0706
      7 C           0.0257   -3.0784    0.6332 C.1     1  LIG1       -0.0678
      8 C           0.6148   -4.0523    1.0211 C.1     1  LIG1       -0.1139
      9 H           1.1432   -4.9108    1.3684 H       1  LIG1        0.1232
     10 N           2.1124   -0.0668    1.4364 N.1     1  LIG1       -0.1908
     11 C           1.1075   -0.2888    0.9093 C.1     1  LIG1        0.1015
     12 C          -0.7983    1.8154   -0.2934 C.ar    1  LIG1        0.0444
     13 C           0.2716    2.5076   -0.8127 C.ar    1  LIG1        0.0579
     14 C           0.0885    3.9315   -0.7184 C.ar    1  LIG1        0.0830
     15 C          -1.1024    4.2924   -0.1344 C.ar    1  LIG1        0.0463
     16 S          -2.0123    2.8922    0.3161 S.2     1  LIG1       -0.0846
     17 C           1.4052    1.9134   -1.4298 C.1     1  LIG1       -0.0672
     18 C           2.3708    1.4317   -1.9600 C.1     1  LIG1       -0.1138
     19 H           3.2344    1.0046   -2.4173 H       1  LIG1        0.1232
     20 N           1.7818    5.6024   -1.7235 N.1     1  LIG1       -0.1908
     21 C           1.0255    4.8605   -1.2607 C.1     1  LIG1        0.1016
     22 C          -1.6184    5.6288    0.1223 C.ar    1  LIG1        0.0444
     23 C          -0.9900    6.6718    0.7639 C.ar    1  LIG1        0.0579
     24 C          -1.8329    7.8344    0.8510 C.ar    1  LIG1        0.0830
     25 C          -3.0712    7.6573    0.2813 C.ar    1  LIG1        0.0463
     26 S          -3.2194    6.0660   -0.3795 S.2     1  LIG1       -0.0846
     27 C           0.3083    6.6115    1.3374 C.1     1  LIG1       -0.0672
     28 C           1.4029    6.5756    1.8334 C.1     1  LIG1       -0.1138
     29 H           2.3792    6.5457    2.2617 H       1  LIG1        0.1232
     30 N          -1.1057    9.9644    2.1175 N.1     1  LIG1       -0.1908
     31 C          -1.4333    9.0187    1.5388 C.1     1  LIG1        0.1016
     32 C          -4.1695    8.6080    0.1816 C.ar    1  LIG1        0.0438
     33 C          -4.1341    9.8945   -0.3077 C.ar    1  LIG1        0.0573
     34 C          -5.4327   10.5161   -0.2563 C.ar    1  LIG1        0.0747
     35 C          -6.3979    9.6947    0.2509 C.ar    1  LIG1       -0.0051
     36 S          -5.7710    8.1660    0.6891 S.2     1  LIG1       -0.0935
     37 H          -7.4437    9.9270    0.3890 H       1  LIG1        0.0707
     38 C          -2.9846   10.5335   -0.8443 C.1     1  LIG1       -0.0672
     39 C          -2.0233   11.0881   -1.3068 C.1     1  LIG1       -0.1138
     40 H          -1.1658   11.5829   -1.7037 H       1  LIG1        0.1232
     41 N          -5.9176   12.9204   -1.0694 N.1     1  LIG1       -0.1908
     42 C          -5.6927   11.8465   -0.7053 C.1     1  LIG1        0.1009
@<TRIPOS>BOND
     1    19    18    1
     2    18    17    3
     3    20    21    3
     4    40    39    1
     5    17    13    1
     6    39    38    3
     7    21    14    1
     8    41    42    3
     9    38    33    1
    10     5     1   ar
    11     5     4   ar
    12    13    14   ar
    13    13    12   ar
    14    14    15   ar
    15    42    34    1
    16     6     1    1
    17     1     2   ar
    18    26    22   ar
    19    26    25   ar
    20    33    34   ar
    21    33    32   ar
    22    12     4    1
    23    12    16   ar
    24    34    35   ar
    25     4     3   ar
    26    15    22    1
    27    15    16   ar
    28    22    23   ar
    29     2     3   ar
    30     2     7    1
    31    32    25    1
    32    32    36   ar
    33    35    37    1
    34    35    36   ar
    35    25    24   ar
    36     3    11    1
    37     7     8    3
    38    23    24   ar
    39    23    27    1
    40    24    31    1
    41    11    10    3
    42     8     9    1
    43    27    28    3
    44    31    30    3
    45    28    29    1
