@<TRIPOS>MOLECULE
mol_data/opt/cam/geoms/mol2/5ee.out
 13 13 0 0 0
SMALL
GASTEIGER

@<TRIPOS>ATOM
      1 C          -2.1119   -1.7076    0.0002 C.ar    1  LIG1       -0.0077
      2 C          -0.7456   -1.6987   -0.0002 C.ar    1  LIG1        0.0470
      3 C          -0.2148   -0.3527   -0.0003 C.ar    1  LIG1        0.0470
      4 C          -1.2073    0.5863    0.0002 C.ar    1  LIG1       -0.0077
      5 S          -2.7721   -0.1219    0.0006 S.2     1  LIG1       -0.1026
      6 H          -2.7546   -2.5752    0.0004 H       1  LIG1        0.0706
      7 H          -1.0848    1.6591    0.0003 H       1  LIG1        0.0706
      8 C           0.0597   -2.8742   -0.0007 C.1     1  LIG1       -0.0679
      9 C           0.7371   -3.8684   -0.0010 C.1     1  LIG1       -0.1139
     10 H           1.3417   -4.7459   -0.0013 H       1  LIG1        0.1232
     11 C           1.1761   -0.0432   -0.0007 C.1     1  LIG1       -0.0679
     12 C           2.3498    0.2210   -0.0011 C.1     1  LIG1       -0.1139
     13 H           3.3905    0.4497   -0.0016 H       1  LIG1        0.1232
@<TRIPOS>BOND
     1    13    12    1
     2    10     9    1
     3    12    11    3
     4     9     8    3
     5    11     3    1
     6     8     2    1
     7     3     2   ar
     8     3     4   ar
     9     2     1   ar
    10     4     7    1
    11     4     5   ar
    12     1     6    1
    13     1     5   ar
