@<TRIPOS>MOLECULE
mol_data/opt/cam/geoms/mol2/5ee5ee5ee.out
 35 37 0 0 0
SMALL
GASTEIGER

@<TRIPOS>ATOM
      1 C          -1.8282   -1.8825    0.5999 C.ar    1  LIG1       -0.0071
      2 C          -0.7065   -1.8372   -0.1781 C.ar    1  LIG1        0.0477
      3 C          -0.1836   -0.4963   -0.3032 C.ar    1  LIG1        0.0553
      4 C          -0.9280    0.4224    0.4003 C.ar    1  LIG1        0.0437
      5 S          -2.2665   -0.3395    1.2030 S.2     1  LIG1       -0.0936
      6 H          -2.4114   -2.7579    0.8441 H       1  LIG1        0.0706
      7 C          -0.1275   -2.9777   -0.8058 C.1     1  LIG1       -0.0679
      8 C           0.3569   -3.9445   -1.3329 C.1     1  LIG1       -0.1139
      9 H           0.7900   -4.7974   -1.8025 H       1  LIG1        0.1232
     10 C           0.9426   -0.1749   -1.1101 C.1     1  LIG1       -0.0673
     11 C           1.8877    0.0844   -1.8074 C.1     1  LIG1       -0.1138
     12 H           2.7268    0.3212   -2.4199 H       1  LIG1        0.1232
     13 C          -0.7192    1.8598    0.5146 C.ar    1  LIG1        0.0443
     14 C           0.4089    2.5290    0.9287 C.ar    1  LIG1        0.0559
     15 C           0.2368    3.9613    0.9263 C.ar    1  LIG1        0.0559
     16 C          -1.0175    4.3430    0.5106 C.ar    1  LIG1        0.0443
     17 S          -1.9910    2.9658    0.1133 S.2     1  LIG1       -0.0846
     18 C           1.5992    1.8949    1.3806 C.1     1  LIG1       -0.0673
     19 C           2.6051    1.3685    1.7777 C.1     1  LIG1       -0.1138
     20 H           3.4951    0.8959    2.1242 H       1  LIG1        0.1232
     21 C           1.2429    4.8608    1.3758 C.1     1  LIG1       -0.0673
     22 C           2.0953    5.6118    1.7707 C.1     1  LIG1       -0.1138
     23 H           2.8479    6.2829    2.1152 H       1  LIG1        0.1232
     24 C          -1.5608    5.6896    0.3917 C.ar    1  LIG1        0.0437
     25 C          -1.0549    6.7563   -0.3151 C.ar    1  LIG1        0.0553
     26 C          -1.8806    7.9355   -0.1941 C.ar    1  LIG1        0.0477
     27 C          -2.9814    7.7163    0.5842 C.ar    1  LIG1       -0.0071
     28 S          -3.0420    6.1154    1.1924 S.2     1  LIG1       -0.0936
     29 H          -3.7555    8.4294    0.8258 H       1  LIG1        0.0706
     30 C           0.1156    6.7082   -1.1214 C.1     1  LIG1       -0.0673
     31 C           1.0956    6.6778   -1.8182 C.1     1  LIG1       -0.1138
     32 H           1.9673    6.6447   -2.4301 H       1  LIG1        0.1232
     33 C          -1.5880    9.1787   -0.8257 C.1     1  LIG1       -0.0679
     34 C          -1.3462   10.2310   -1.3561 C.1     1  LIG1       -0.1139
     35 H          -1.1271   11.1606   -1.8287 H       1  LIG1        0.1232
@<TRIPOS>BOND
     1    32    31    1
     2    12    11    1
     3    35    34    1
     4    31    30    3
     5    11    10    3
     6     9     8    1
     7    34    33    3
     8     8     7    3
     9    30    25    1
    10    10     3    1
    11    33    26    1
    12     7     2    1
    13    25    26   ar
    14    25    24   ar
    15     3     2   ar
    16     3     4   ar
    17    26    27   ar
    18     2     1   ar
    19    17    16   ar
    20    17    13   ar
    21    24    16    1
    22    24    28   ar
    23     4    13    1
    24     4     5   ar
    25    16    15   ar
    26    13    14   ar
    27    27    29    1
    28    27    28   ar
    29     1     6    1
    30     1     5   ar
    31    15    14   ar
    32    15    21    1
    33    14    18    1
    34    21    22    3
    35    18    19    3
    36    22    23    1
    37    19    20    1
