@<TRIPOS>MOLECULE
mol_data/opt/cam/geoms/mol2/5ee5ee-5ee5ee.out
 46 49 0 0 0
SMALL
GASTEIGER

@<TRIPOS>ATOM
      1 C          -1.9431   -1.8997    0.3992 C.ar    1  LIG1       -0.0071
      2 C          -0.6846   -1.8989   -0.1315 C.ar    1  LIG1        0.0477
      3 C          -0.1289   -0.5680   -0.2147 C.ar    1  LIG1        0.0553
      4 C          -0.9899    0.3888    0.2719 C.ar    1  LIG1        0.0437
      5 S          -2.4753   -0.3258    0.8188 S.2     1  LIG1       -0.0936
      6 H          -2.5761   -2.7593    0.5624 H       1  LIG1        0.0706
      7 C          -0.0043   -3.0726   -0.5667 C.1     1  LIG1       -0.0679
      8 C           0.5652   -4.0674   -0.9317 C.1     1  LIG1       -0.1139
      9 H           1.0742   -4.9453   -1.2572 H       1  LIG1        0.1232
     10 C           1.1432   -0.2930   -0.7879 C.1     1  LIG1       -0.0673
     11 C           2.2148   -0.0737   -1.2883 C.1     1  LIG1       -0.1138
     12 H           3.1649    0.1277   -1.7265 H       1  LIG1        0.1232
     13 C          -0.7907    1.8298    0.3516 C.ar    1  LIG1        0.0443
     14 C           0.2374    2.5192    0.9514 C.ar    1  LIG1        0.0559
     15 C           0.0870    3.9494    0.8389 C.ar    1  LIG1        0.0559
     16 C          -1.0516    4.3094    0.1558 C.ar    1  LIG1        0.0443
     17 S          -1.9410    2.9137   -0.3582 S.2     1  LIG1       -0.0846
     18 C           1.3026    1.9091    1.6701 C.1     1  LIG1       -0.0673
     19 C           2.1998    1.4040    2.2918 C.1     1  LIG1       -0.1138
     20 H           2.9943    0.9499    2.8376 H       1  LIG1        0.1232
     21 C           0.9901    4.8696    1.4394 C.1     1  LIG1       -0.0673
     22 C           1.7525    5.6381    1.9635 C.1     1  LIG1       -0.1138
     23 H           2.4261    6.3246    2.4222 H       1  LIG1        0.1232
     24 C          -1.5460    5.6467   -0.1406 C.ar    1  LIG1        0.0443
     25 C          -0.8937    6.6800   -0.7726 C.ar    1  LIG1        0.0559
     26 C          -1.7168    7.8573   -0.9043 C.ar    1  LIG1        0.0559
     27 C          -2.9728    7.6878   -0.3698 C.ar    1  LIG1        0.0443
     28 S          -3.1586    6.1015    0.3018 S.2     1  LIG1       -0.0846
     29 C           0.4205    6.5936   -1.3096 C.1     1  LIG1       -0.0673
     30 C           1.5253    6.5272   -1.7802 C.1     1  LIG1       -0.1138
     31 H           2.5061    6.4627   -2.1915 H       1  LIG1        0.1232
     32 C          -1.2826    9.0312   -1.5801 C.1     1  LIG1       -0.0673
     33 C          -0.9102   10.0137   -2.1654 C.1     1  LIG1       -0.1138
     34 H          -0.5853   10.8889   -2.6792 H       1  LIG1        0.1232
     35 C          -4.0752    8.6393   -0.3273 C.ar    1  LIG1        0.0437
     36 C          -4.0830    9.9169    0.1836 C.ar    1  LIG1        0.0553
     37 C          -5.3725   10.5540    0.0477 C.ar    1  LIG1        0.0477
     38 C          -6.2915    9.7360   -0.5453 C.ar    1  LIG1       -0.0071
     39 S          -5.6339    8.2093   -0.9613 S.2     1  LIG1       -0.0936
     40 H          -7.3247    9.9690   -0.7561 H       1  LIG1        0.0706
     41 C          -2.9753   10.5369    0.8250 C.1     1  LIG1       -0.0673
     42 C          -2.0513   11.0680    1.3825 C.1     1  LIG1       -0.1138
     43 H          -1.2271   11.5338    1.8714 H       1  LIG1        0.1232
     44 C          -5.6562   11.8769    0.4942 C.1     1  LIG1       -0.0679
     45 C          -5.9019   12.9935    0.8686 C.1     1  LIG1       -0.1139
     46 H          -6.1138   13.9830    1.2025 H       1  LIG1        0.1232
@<TRIPOS>BOND
     1    34    33    1
     2    31    30    1
     3    33    32    3
     4    30    29    3
     5    12    11    1
     6    32    26    1
     7    29    25    1
     8    11    10    3
     9     9     8    1
    10    39    38   ar
    11    39    35   ar
    12     8     7    3
    13    26    25   ar
    14    26    27   ar
    15    10     3    1
    16    25    24   ar
    17    40    38    1
    18     7     2    1
    19    38    37   ar
    20    27    35    1
    21    27    28   ar
    22    17    16   ar
    23    17    13   ar
    24    35    36   ar
    25     3     2   ar
    26     3     4   ar
    27    24    16    1
    28    24    28   ar
    29     2     1   ar
    30    37    36   ar
    31    37    44    1
    32    16    15   ar
    33    36    41    1
    34     4    13    1
    35     4     5   ar
    36    13    14   ar
    37     1     6    1
    38     1     5   ar
    39    44    45    3
    40    41    42    3
    41    15    14   ar
    42    15    21    1
    43    45    46    1
    44    14    18    1
    45    42    43    1
    46    21    22    3
    47    18    19    3
    48    22    23    1
    49    19    20    1
