@<TRIPOS>MOLECULE
mol_data/opt/cam/geoms/mol2/5ee5ee-.out
 24 25 0 0 0
SMALL
GASTEIGER

@<TRIPOS>ATOM
      1 C          -1.8907   -1.7001    0.9463 C.ar    1  LIG1       -0.0071
      2 C          -0.6933   -1.8414    0.3048 C.ar    1  LIG1        0.0477
      3 C          -0.1741   -0.5777   -0.1650 C.ar    1  LIG1        0.0553
      4 C          -0.9986    0.4768    0.1525 C.ar    1  LIG1        0.0437
      5 S          -2.4059   -0.0669    1.0123 S.2     1  LIG1       -0.0936
      6 H          -2.4877   -2.4869    1.3829 H       1  LIG1        0.0706
      7 C          -0.0389   -3.0918    0.1086 C.1     1  LIG1       -0.0679
      8 C           0.5089   -4.1505   -0.0533 C.1     1  LIG1       -0.1139
      9 H           0.9989   -5.0853   -0.2002 H       1  LIG1        0.1232
     10 C           1.0297   -0.4627   -0.9139 C.1     1  LIG1       -0.0673
     11 C           2.0424   -0.3812   -1.5577 C.1     1  LIG1       -0.1138
     12 H           2.9415   -0.3010   -2.1238 H       1  LIG1        0.1232
     13 C          -0.8164    1.8909   -0.1501 C.ar    1  LIG1        0.0437
     14 C           0.2491    2.7016    0.1662 C.ar    1  LIG1        0.0553
     15 C           0.0670    4.0558   -0.3032 C.ar    1  LIG1        0.0477
     16 C          -1.1279    4.2230   -0.9431 C.ar    1  LIG1       -0.0071
     17 S          -2.0407    2.7740   -1.0083 S.2     1  LIG1       -0.0936
     18 H          -1.5063    5.1356   -1.3791 H       1  LIG1        0.0706
     19 C           1.3852    2.2848    0.9136 C.1     1  LIG1       -0.0673
     20 C           2.3449    1.9489    1.5562 C.1     1  LIG1       -0.1138
     21 H           3.1945    1.6431    2.1220 H       1  LIG1        0.1232
     22 C           1.0175    5.0991   -0.1080 C.1     1  LIG1       -0.0679
     23 C           1.8162    5.9842    0.0531 C.1     1  LIG1       -0.1139
     24 H           2.5272    6.7645    0.1989 H       1  LIG1        0.1232
@<TRIPOS>BOND
     1    12    11    1
     2    11    10    3
     3    18    16    1
     4    17    16   ar
     5    17    13   ar
     6    16    15   ar
     7    10     3    1
     8    15    22    1
     9    15    14   ar
    10     9     8    1
    11     3     4   ar
    12     3     2   ar
    13    13     4    1
    14    13    14   ar
    15    22    23    3
    16     8     7    3
    17    23    24    1
    18     7     2    1
    19     4     5   ar
    20    14    19    1
    21     2     1   ar
    22    19    20    3
    23     1     5   ar
    24     1     6    1
    25    20    21    1
