@<TRIPOS>MOLECULE
mol_data/opt/cam/geoms/mol2/5ee5ee5ee5ee.out
 46 49 0 0 0
SMALL
GASTEIGER

@<TRIPOS>ATOM
      1 C          -1.8923   -1.9039    0.3917 C.ar    1  LIG1       -0.0071
      2 C          -0.6382   -1.8949   -0.1493 C.ar    1  LIG1        0.0477
      3 C          -0.0924   -0.5602   -0.2379 C.ar    1  LIG1        0.0553
      4 C          -0.9559    0.3910    0.2551 C.ar    1  LIG1        0.0437
      5 S          -2.4318   -0.3335    0.8146 S.2     1  LIG1       -0.0936
      6 H          -2.5180   -2.7678    0.5606 H       1  LIG1        0.0706
      7 C           0.0466   -3.0643   -0.5892 C.1     1  LIG1       -0.0679
      8 C           0.6199   -4.0554   -0.9583 C.1     1  LIG1       -0.1139
      9 H           1.1324   -4.9298   -1.2872 H       1  LIG1        0.1232
     10 C           1.1731   -0.2770   -0.8217 C.1     1  LIG1       -0.0673
     11 C           2.2390   -0.0507   -1.3310 C.1     1  LIG1       -0.1138
     12 H           3.1842    0.1567   -1.7771 H       1  LIG1        0.1232
     13 C          -0.7660    1.8334    0.3322 C.ar    1  LIG1        0.0443
     14 C           0.2623    2.5302    0.9230 C.ar    1  LIG1        0.0559
     15 C           0.1011    3.9593    0.8108 C.ar    1  LIG1        0.0559
     16 C          -1.0455    4.3109    0.1368 C.ar    1  LIG1        0.0443
     17 S          -1.9295    2.9088   -0.3688 S.2     1  LIG1       -0.0846
     18 C           1.3375    1.9280    1.6333 C.1     1  LIG1       -0.0673
     19 C           2.2433    1.4296    2.2478 C.1     1  LIG1       -0.1138
     20 H           3.0458    0.9810    2.7865 H       1  LIG1        0.1232
     21 C           1.0027    4.8861    1.4032 C.1     1  LIG1       -0.0673
     22 C           1.7641    5.6603    1.9204 C.1     1  LIG1       -0.1138
     23 H           2.4363    6.3521    2.3732 H       1  LIG1        0.1232
     24 C          -1.5515    5.6446   -0.1564 C.ar    1  LIG1        0.0443
     25 C          -0.9117    6.6819   -0.7944 C.ar    1  LIG1        0.0559
     26 C          -1.7439    7.8534   -0.9201 C.ar    1  LIG1        0.0559
     27 C          -2.9943    7.6756   -0.3751 C.ar    1  LIG1        0.0443
     28 S          -3.1636    6.0886    0.2991 S.2     1  LIG1       -0.0846
     29 C           0.3986    6.6041   -1.3422 C.1     1  LIG1       -0.0673
     30 C           1.4999    6.5450   -1.8220 C.1     1  LIG1       -0.1138
     31 H           2.4776    6.4869   -2.2416 H       1  LIG1        0.1232
     32 C          -1.3234    9.0297   -1.6003 C.1     1  LIG1       -0.0673
     33 C          -0.9627   10.0143   -2.1894 C.1     1  LIG1       -0.1138
     34 H          -0.6481   10.8912   -2.7066 H       1  LIG1        0.1232
     35 C          -4.1028    8.6196   -0.3241 C.ar    1  LIG1        0.0437
     36 C          -4.1151    9.8976    0.1859 C.ar    1  LIG1        0.0553
     37 C          -5.4100   10.5256    0.0603 C.ar    1  LIG1        0.0477
     38 C          -6.3283    9.7008   -0.5244 C.ar    1  LIG1       -0.0071
     39 S          -5.6637    8.1784   -0.9448 S.2     1  LIG1       -0.0936
     40 H          -7.3648    9.9266   -0.7268 H       1  LIG1        0.0706
     41 C          -3.0064   10.5256    0.8176 C.1     1  LIG1       -0.0673
     42 C          -2.0815   11.0635    1.3670 C.1     1  LIG1       -0.1138
     43 H          -1.2570   11.5352    1.8497 H       1  LIG1        0.1232
     44 C          -5.6991   11.8469    0.5082 C.1     1  LIG1       -0.0679
     45 C          -5.9493   12.9620    0.8837 C.1     1  LIG1       -0.1139
     46 H          -6.1657   13.9503    1.2186 H       1  LIG1        0.1232
@<TRIPOS>BOND
     1    34    33    1
     2    31    30    1
     3    33    32    3
     4    30    29    3
     5    12    11    1
     6    32    26    1
     7    29    25    1
     8    11    10    3
     9     9     8    1
    10     8     7    3
    11    39    38   ar
    12    39    35   ar
    13    26    25   ar
    14    26    27   ar
    15    10     3    1
    16    25    24   ar
    17    40    38    1
    18     7     2    1
    19    38    37   ar
    20    27    35    1
    21    27    28   ar
    22    17    16   ar
    23    17    13   ar
    24    35    36   ar
    25     3     2   ar
    26     3     4   ar
    27    24    16    1
    28    24    28   ar
    29     2     1   ar
    30    37    36   ar
    31    37    44    1
    32    16    15   ar
    33    36    41    1
    34     4    13    1
    35     4     5   ar
    36    13    14   ar
    37     1     6    1
    38     1     5   ar
    39    44    45    3
    40    15    14   ar
    41    15    21    1
    42    41    42    3
    43    45    46    1
    44    14    18    1
    45    42    43    1
    46    21    22    3
    47    18    19    3
    48    22    23    1
    49    19    20    1
