@<TRIPOS>MOLECULE
mol_data/opt/cam/geoms/mol2/5ee5ee5ee5ee-.out
 46 49 0 0 0
SMALL
GASTEIGER

@<TRIPOS>ATOM
      1 C          -1.8523   -1.9007    0.4905 C.ar    1  LIG1       -0.0071
      2 C          -0.6173   -1.8939   -0.0928 C.ar    1  LIG1        0.0477
      3 C          -0.0798   -0.5587   -0.2160 C.ar    1  LIG1        0.0553
      4 C          -0.9297    0.3956    0.2944 C.ar    1  LIG1        0.0437
      5 S          -2.3831   -0.3270    0.9124 S.2     1  LIG1       -0.0936
      6 H          -2.4686   -2.7644    0.6909 H       1  LIG1        0.0706
      7 C           0.0567   -3.0663   -0.5416 C.1     1  LIG1       -0.0679
      8 C           0.6208   -4.0600   -0.9178 C.1     1  LIG1       -0.1139
      9 H           1.1252   -4.9367   -1.2533 H       1  LIG1        0.1232
     10 C           1.1641   -0.2783   -0.8458 C.1     1  LIG1       -0.0673
     11 C           2.2112   -0.0547   -1.3937 C.1     1  LIG1       -0.1138
     12 H           3.1394    0.1508   -1.8750 H       1  LIG1        0.1232
     13 C          -0.7427    1.8394    0.3476 C.ar    1  LIG1        0.0443
     14 C           0.3023    2.5469    0.8947 C.ar    1  LIG1        0.0559
     15 C           0.1320    3.9740    0.7708 C.ar    1  LIG1        0.0559
     16 C          -1.0381    4.3134    0.1319 C.ar    1  LIG1        0.0443
     17 S          -1.9334    2.9023   -0.3265 S.2     1  LIG1       -0.0846
     18 C           1.4032    1.9570    1.5754 C.1     1  LIG1       -0.0673
     19 C           2.3311    1.4691    2.1648 C.1     1  LIG1       -0.1138
     20 H           3.1528    1.0299    2.6820 H       1  LIG1        0.1232
     21 C           1.0497    4.9109    1.3210 C.1     1  LIG1       -0.0673
     22 C           1.8253    5.6939    1.8028 C.1     1  LIG1       -0.1138
     23 H           2.5098    6.3935    2.2240 H       1  LIG1        0.1232
     24 C          -1.5588    5.6417   -0.1601 C.ar    1  LIG1        0.0443
     25 C          -0.9448    6.6733   -0.8320 C.ar    1  LIG1        0.0559
     26 C          -1.7852    7.8404   -0.9435 C.ar    1  LIG1        0.0559
     27 C          -3.0157    7.6651   -0.3544 C.ar    1  LIG1        0.0443
     28 S          -3.1561    6.0859    0.3444 S.2     1  LIG1       -0.0846
     29 C           0.3464    6.5932   -1.4230 C.1     1  LIG1       -0.0673
     30 C           1.4311    6.5319   -1.9391 C.1     1  LIG1       -0.1138
     31 H           2.3945    6.4722   -2.3904 H       1  LIG1        0.1232
     32 C          -1.3924    9.0097   -1.6518 C.1     1  LIG1       -0.0673
     33 C          -1.0556    9.9882   -2.2647 C.1     1  LIG1       -0.1138
     34 H          -0.7620   10.8598   -2.8029 H       1  LIG1        0.1232
     35 C          -4.1254    8.6059   -0.2772 C.ar    1  LIG1        0.0437
     36 C          -4.1252    9.8900    0.2175 C.ar    1  LIG1        0.0553
     37 C          -5.4260   10.5121    0.1283 C.ar    1  LIG1        0.0477
     38 C          -6.3605    9.6772   -0.4149 C.ar    1  LIG1       -0.0071
     39 S          -5.7048    8.1519   -0.8392 S.2     1  LIG1       -0.0936
     40 H          -7.4040    9.8970   -0.5847 H       1  LIG1        0.0706
     41 C          -2.9981   10.5294    0.8035 C.1     1  LIG1       -0.0673
     42 C          -2.0572   11.0770    1.3147 C.1     1  LIG1       -0.1138
     43 H          -1.2185   11.5573    1.7636 H       1  LIG1        0.1232
     44 C          -5.7047   11.8378    0.5697 C.1     1  LIG1       -0.0679
     45 C          -5.9463   12.9566    0.9400 C.1     1  LIG1       -0.1139
     46 H          -6.1548   13.9482    1.2701 H       1  LIG1        0.1232
@<TRIPOS>BOND
     1    34    33    1
     2    31    30    1
     3    33    32    3
     4    30    29    3
     5    12    11    1
     6    32    26    1
     7    29    25    1
     8    11    10    3
     9     9     8    1
    10    26    25   ar
    11    26    27   ar
    12     8     7    3
    13    10     3    1
    14    39    38   ar
    15    39    35   ar
    16    25    24   ar
    17    40    38    1
    18     7     2    1
    19    38    37   ar
    20    27    35    1
    21    27    28   ar
    22    17    16   ar
    23    17    13   ar
    24    35    36   ar
    25     3     2   ar
    26     3     4   ar
    27    24    16    1
    28    24    28   ar
    29     2     1   ar
    30    37    36   ar
    31    37    44    1
    32    16    15   ar
    33    36    41    1
    34     4    13    1
    35     4     5   ar
    36    13    14   ar
    37     1     6    1
    38     1     5   ar
    39    44    45    3
    40    15    14   ar
    41    15    21    1
    42    41    42    3
    43    14    18    1
    44    45    46    1
    45    42    43    1
    46    21    22    3
    47    18    19    3
    48    22    23    1
    49    19    20    1
