@<TRIPOS>MOLECULE
mol_data/opt/cam/geoms/mol2/5ee5ee-5ee-5ee-.out
 46 49 0 0 0
SMALL
GASTEIGER

@<TRIPOS>ATOM
      1 C          -1.9360   -1.9066   -0.2559 C.ar    1  LIG1       -0.0071
      2 C          -0.6737   -1.8942    0.2654 C.ar    1  LIG1        0.0477
      3 C          -0.1193   -0.5613    0.3195 C.ar    1  LIG1        0.0553
      4 C          -0.9851    0.3851   -0.1785 C.ar    1  LIG1        0.0437
      5 S          -2.4735   -0.3416   -0.7010 S.2     1  LIG1       -0.0936
      6 H          -2.5689   -2.7699   -0.3983 H       1  LIG1        0.0706
      7 C           0.0116   -3.0588    0.7174 C.1     1  LIG1       -0.0679
      8 C           0.5851   -4.0458    1.0969 C.1     1  LIG1       -0.1139
      9 H           1.0979   -4.9167    1.4348 H       1  LIG1        0.1232
     10 C           1.1567   -0.2740    0.8781 C.1     1  LIG1       -0.0673
     11 C           2.2316   -0.0440    1.3664 C.1     1  LIG1       -0.1138
     12 H           3.1848    0.1664    1.7935 H       1  LIG1        0.1232
     13 C          -0.7886    1.8246   -0.2867 C.ar    1  LIG1        0.0443
     14 C           0.2341    2.5039   -0.9068 C.ar    1  LIG1        0.0559
     15 C           0.0825    3.9358   -0.8201 C.ar    1  LIG1        0.0559
     16 C          -1.0516    4.3070   -0.1355 C.ar    1  LIG1        0.0443
     17 S          -1.9353    2.9201    0.4110 S.2     1  LIG1       -0.0846
     18 C           1.2949    1.8819   -1.6217 C.1     1  LIG1       -0.0673
     19 C           2.1883    1.3664   -2.2403 C.1     1  LIG1       -0.1138
     20 H           2.9800    0.9029   -2.7824 H       1  LIG1        0.1232
     21 C           0.9799    4.8458   -1.4443 C.1     1  LIG1       -0.0673
     22 C           1.7373    5.6053   -1.9882 C.1     1  LIG1       -0.1138
     23 H           2.4062    6.2845   -2.4644 H       1  LIG1        0.1232
     24 C          -1.5457    5.6490    0.1394 C.ar    1  LIG1        0.0443
     25 C          -0.8904    6.6949    0.7471 C.ar    1  LIG1        0.0559
     26 C          -1.7142    7.8734    0.8627 C.ar    1  LIG1        0.0559
     27 C          -2.9738    7.6922    0.3407 C.ar    1  LIG1        0.0443
     28 S          -3.1622    6.0934   -0.2997 S.2     1  LIG1       -0.0846
     29 C           0.4277    6.6203    1.2761 C.1     1  LIG1       -0.0673
     30 C           1.5360    6.5641    1.7399 C.1     1  LIG1       -0.1138
     31 H           2.5199    6.5086    2.1453 H       1  LIG1        0.1232
     32 C          -1.2768    9.0602    1.5133 C.1     1  LIG1       -0.0673
     33 C          -0.9016   10.0540    2.0774 C.1     1  LIG1       -0.1138
     34 H          -0.5743   10.9390    2.5726 H       1  LIG1        0.1232
     35 C          -4.0779    8.6414    0.2884 C.ar    1  LIG1        0.0437
     36 C          -4.0912    9.9092   -0.2463 C.ar    1  LIG1        0.0553
     37 C          -5.3805   10.5470   -0.1130 C.ar    1  LIG1        0.0477
     38 C          -6.2941    9.7390    0.5019 C.ar    1  LIG1       -0.0071
     39 S          -5.6313    8.2212    0.9416 S.2     1  LIG1       -0.0936
     40 H          -7.3261    9.9746    0.7158 H       1  LIG1        0.0706
     41 C          -2.9890   10.5185   -0.9071 C.1     1  LIG1       -0.0673
     42 C          -2.0699   11.0403   -1.4811 C.1     1  LIG1       -0.1138
     43 H          -1.2504   11.4978   -1.9856 H       1  LIG1        0.1232
     44 C          -5.6694   11.8610   -0.5820 C.1     1  LIG1       -0.0679
     45 C          -5.9193   12.9700   -0.9754 C.1     1  LIG1       -0.1139
     46 H          -6.1355   13.9528   -1.3260 H       1  LIG1        0.1232
@<TRIPOS>BOND
     1    20    19    1
     2    23    22    1
     3    19    18    3
     4    22    21    3
     5    43    42    1
     6    18    14    1
     7    42    41    3
     8    21    15    1
     9    46    45    1
    10    45    44    3
    11    41    36    1
    12    14    15   ar
    13    14    13   ar
    14    15    16   ar
    15     5     1   ar
    16     5     4   ar
    17    44    37    1
    18     6     1    1
    19    28    24   ar
    20    28    27   ar
    21    13     4    1
    22    13    17   ar
    23     1     2   ar
    24    36    37   ar
    25    36    35   ar
    26     4     3   ar
    27    16    24    1
    28    16    17   ar
    29    37    38   ar
    30    24    25   ar
    31     2     3   ar
    32     2     7    1
    33    35    27    1
    34    35    39   ar
    35     3    10    1
    36    27    26   ar
    37    38    40    1
    38    38    39   ar
    39     7     8    3
    40    25    26   ar
    41    25    29    1
    42    26    32    1
    43    10    11    3
    44     8     9    1
    45    29    30    3
    46    11    12    1
    47    32    33    3
    48    30    31    1
    49    33    34    1
