@<TRIPOS>MOLECULE
mol_data/opt/cam/geoms/mol2/5ee5ee-5ee5ee-.out
 46 49 0 0 0
SMALL
GASTEIGER

@<TRIPOS>ATOM
      1 C          -0.9920   -1.2789    2.5825 C.ar    1  LIG1       -0.0071
      2 C          -0.7030   -1.6326    1.2951 C.ar    1  LIG1        0.0477
      3 C          -0.4338   -0.4836    0.4620 C.ar    1  LIG1        0.0553
      4 C          -0.5186    0.6990    1.1599 C.ar    1  LIG1        0.0437
      5 S          -0.9340    0.4168    2.8220 S.2     1  LIG1       -0.0936
      6 H          -1.2336   -1.9447    3.3976 H       1  LIG1        0.0706
      7 C          -0.6834   -2.9774    0.8248 C.1     1  LIG1       -0.0679
      8 C          -0.6681   -4.1149    0.4338 C.1     1  LIG1       -0.1139
      9 H          -0.6535   -5.1206    0.0815 H       1  LIG1        0.1232
     10 C          -0.1651   -0.5801   -0.9314 C.1     1  LIG1       -0.0673
     11 C           0.0474   -0.6741   -2.1115 C.1     1  LIG1       -0.1138
     12 H           0.2408   -0.7503   -3.1566 H       1  LIG1        0.1232
     13 C          -0.3176    2.0556    0.6661 C.ar    1  LIG1        0.0443
     14 C           0.7828    2.5757    0.0259 C.ar    1  LIG1        0.0559
     15 C           0.6163    3.9655   -0.3228 C.ar    1  LIG1        0.0559
     16 C          -0.5954    4.4716    0.0858 C.ar    1  LIG1        0.0443
     17 S          -1.5494    3.2566    0.8705 S.2     1  LIG1       -0.0846
     18 C           1.9769    1.8496   -0.2394 C.1     1  LIG1       -0.0673
     19 C           2.9963    1.2490   -0.4556 C.1     1  LIG1       -0.1138
     20 H           3.8947    0.7096   -0.6490 H       1  LIG1        0.1232
     21 C           1.5948    4.7047   -1.0436 C.1     1  LIG1       -0.0673
     22 C           2.4222    5.3168   -1.6660 C.1     1  LIG1       -0.1138
     23 H           3.1533    5.8664   -2.2128 H       1  LIG1        0.1232
     24 C          -1.1123    5.8238   -0.0832 C.ar    1  LIG1        0.0443
     25 C          -0.5435    7.0097    0.3186 C.ar    1  LIG1        0.0559
     26 C          -1.3480    8.1559   -0.0277 C.ar    1  LIG1        0.0559
     27 C          -2.5193    7.8086   -0.6592 C.ar    1  LIG1        0.0443
     28 S          -2.6386    6.0917   -0.8584 S.2     1  LIG1       -0.0846
     29 C           0.6834    7.1125    1.0309 C.1     1  LIG1       -0.0673
     30 C           1.7123    7.2092    1.6463 C.1     1  LIG1       -0.1138
     31 H           2.6273    7.2881    2.1866 H       1  LIG1        0.1232
     32 C          -0.9400    9.4937    0.2315 C.1     1  LIG1       -0.0673
     33 C          -0.5789   10.6214    0.4424 C.1     1  LIG1       -0.1138
     34 H          -0.2671   11.6227    0.6311 H       1  LIG1        0.1232
     35 C          -3.5766    8.6848   -1.1482 C.ar    1  LIG1        0.0437
     36 C          -4.2969    9.6247   -0.4478 C.ar    1  LIG1        0.0553
     37 C          -5.2689   10.2998   -1.2762 C.ar    1  LIG1        0.0477
     38 C          -5.2572    9.8403   -2.5625 C.ar    1  LIG1       -0.0071
     39 S          -4.0854    8.6141   -2.8067 S.2     1  LIG1       -0.0936
     40 H          -5.8865   10.1735   -3.3743 H       1  LIG1        0.0706
     41 C          -4.1515    9.8793    0.9440 C.1     1  LIG1       -0.0673
     42 C          -4.0479   10.0940    2.1229 C.1     1  LIG1       -0.1138
     43 H          -3.9474   10.2825    3.1668 H       1  LIG1        0.1232
     44 C          -6.1474   11.3166   -0.8026 C.1     1  LIG1       -0.0679
     45 C          -6.8915   12.1759   -0.4088 C.1     1  LIG1       -0.1139
     46 H          -7.5487   12.9363   -0.0545 H       1  LIG1        0.1232
@<TRIPOS>BOND
     1    40    38    1
     2    12    11    1
     3    39    38   ar
     4    39    35   ar
     5    38    37   ar
     6    23    22    1
     7    11    10    3
     8    22    21    3
     9    37    44    1
    10    37    36   ar
    11    35    27    1
    12    35    36   ar
    13    21    15    1
    14    10     3    1
    15    28    27   ar
    16    28    24   ar
    17    44    45    3
    18    27    26   ar
    19    20    19    1
    20    19    18    3
    21    36    41    1
    22    45    46    1
    23    15    14   ar
    24    15    16   ar
    25    18    14    1
    26    24    16    1
    27    24    25   ar
    28    26    32    1
    29    26    25   ar
    30    14    13   ar
    31     9     8    1
    32    16    17   ar
    33    32    33    3
    34    25    29    1
    35     8     7    3
    36    33    34    1
    37     3     4   ar
    38     3     2   ar
    39    13    17   ar
    40    13     4    1
    41     7     2    1
    42    41    42    3
    43    29    30    3
    44     4     5   ar
    45     2     1   ar
    46    30    31    1
    47    42    43    1
    48     1     5   ar
    49     1     6    1
