@<TRIPOS>MOLECULE
mol_data/opt/cam/geoms/mol2/5ee5ee.out
 24 25 0 0 0
SMALL
GASTEIGER

@<TRIPOS>ATOM
      1 C          -1.8990   -1.6993    0.9411 C.ar    1  LIG1       -0.0071
      2 C          -0.6962   -1.8411    0.3097 C.ar    1  LIG1        0.0477
      3 C          -0.1730   -0.5777   -0.1564 C.ar    1  LIG1        0.0553
      4 C          -1.0000    0.4770    0.1537 C.ar    1  LIG1        0.0437
      5 S          -2.4145   -0.0660    1.0020 S.2     1  LIG1       -0.0936
      6 H          -2.4998   -2.4857    1.3731 H       1  LIG1        0.0706
      7 C          -0.0404   -3.0917    0.1197 C.1     1  LIG1       -0.0679
      8 C           0.5085   -4.1506   -0.0372 C.1     1  LIG1       -0.1139
      9 H           0.9992   -5.0858   -0.1793 H       1  LIG1        0.1232
     10 C           1.0371   -0.4632   -0.8952 C.1     1  LIG1       -0.0673
     11 C           2.0552   -0.3822   -1.5305 C.1     1  LIG1       -0.1138
     12 H           2.9587   -0.3022   -2.0896 H       1  LIG1        0.1232
     13 C          -0.8150    1.8910   -0.1481 C.ar    1  LIG1        0.0437
     14 C           0.2478    2.7017    0.1770 C.ar    1  LIG1        0.0553
     15 C           0.0700    4.0557   -0.2947 C.ar    1  LIG1        0.0477
     16 C          -1.1193    4.2227   -0.9451 C.ar    1  LIG1       -0.0071
     17 S          -2.0317    2.7738   -1.0173 S.2     1  LIG1       -0.0936
     18 H          -1.4938    5.1351   -1.3849 H       1  LIG1        0.0706
     19 C           1.3774    2.2852    0.9344 C.1     1  LIG1       -0.0673
     20 C           2.3315    1.9494    1.5854 C.1     1  LIG1       -0.1138
     21 H           3.1762    1.6438    2.1585 H       1  LIG1        0.1232
     22 C           1.0189    5.0991   -0.0919 C.1     1  LIG1       -0.0679
     23 C           1.8163    5.9841    0.0757 C.1     1  LIG1       -0.1139
     24 H           2.5263    6.7640    0.2276 H       1  LIG1        0.1232
@<TRIPOS>BOND
     1    12    11    1
     2    11    10    3
     3    18    16    1
     4    17    16   ar
     5    17    13   ar
     6    16    15   ar
     7    10     3    1
     8    15    22    1
     9    15    14   ar
    10     9     8    1
    11     3     4   ar
    12     3     2   ar
    13    13     4    1
    14    13    14   ar
    15    22    23    3
    16     8     7    3
    17    23    24    1
    18     7     2    1
    19     4     5   ar
    20    14    19    1
    21     2     1   ar
    22    19    20    3
    23     1     5   ar
    24     1     6    1
    25    20    21    1
