@<TRIPOS>MOLECULE
mol_data/opt/cam/geoms/mol2/5ee5ee-5ee-.out
 35 37 0 0 0
SMALL
GASTEIGER

@<TRIPOS>ATOM
      1 C          -1.8491   -1.8721   -0.6216 C.ar    1  LIG1       -0.0071
      2 C          -0.7428   -1.8334    0.1785 C.ar    1  LIG1        0.0477
      3 C          -0.2138   -0.4959    0.3131 C.ar    1  LIG1        0.0553
      4 C          -0.9382    0.4271   -0.4058 C.ar    1  LIG1        0.0437
      5 S          -2.2653   -0.3269   -1.2344 S.2     1  LIG1       -0.0936
      6 H          -2.4330   -2.7439   -0.8767 H       1  LIG1        0.0706
      7 C          -0.1838   -2.9771    0.8185 C.1     1  LIG1       -0.0679
      8 C           0.2837   -3.9466    1.3559 C.1     1  LIG1       -0.1139
      9 H           0.7016   -4.8020    1.8346 H       1  LIG1        0.1232
     10 C           0.8982   -0.1810    1.1419 C.1     1  LIG1       -0.0673
     11 C           1.8310    0.0729    1.8575 C.1     1  LIG1       -0.1138
     12 H           2.6594    0.3048    2.4864 H       1  LIG1        0.1232
     13 C          -0.7177    1.8630   -0.5170 C.ar    1  LIG1        0.0443
     14 C           0.4226    2.5245   -0.9094 C.ar    1  LIG1        0.0559
     15 C           0.2599    3.9578   -0.9114 C.ar    1  LIG1        0.0559
     16 C          -0.9997    4.3480   -0.5205 C.ar    1  LIG1        0.0443
     17 S          -1.9898    2.9777   -0.1411 S.2     1  LIG1       -0.0846
     18 C           1.6173    1.8821   -1.3376 C.1     1  LIG1       -0.0673
     19 C           2.6273    1.3487   -1.7146 C.1     1  LIG1       -0.1138
     20 H           3.5207    0.8699   -2.0432 H       1  LIG1        0.1232
     21 C           1.2805    4.8504   -1.3418 C.1     1  LIG1       -0.0673
     22 C           2.1453    5.5955   -1.7205 C.1     1  LIG1       -0.1138
     23 H           2.9086    6.2617   -2.0508 H       1  LIG1        0.1232
     24 C          -1.5364    5.6983   -0.4132 C.ar    1  LIG1        0.0437
     25 C          -1.0375    6.7621    0.3029 C.ar    1  LIG1        0.0553
     26 C          -1.8527    7.9467    0.1648 C.ar    1  LIG1        0.0477
     27 C          -2.9393    7.7343   -0.6351 C.ar    1  LIG1       -0.0071
     28 S          -2.9984    6.1334   -1.2435 S.2     1  LIG1       -0.0936
     29 H          -3.7037    8.4524   -0.8924 H       1  LIG1        0.0706
     30 C           0.1165    6.7068    1.1322 C.1     1  LIG1       -0.0673
     31 C           1.0823    6.6703    1.8483 C.1     1  LIG1       -0.1138
     32 H           1.9414    6.6319    2.4774 H       1  LIG1        0.1232
     33 C          -1.5645    9.1884    0.8014 C.1     1  LIG1       -0.0679
     34 C          -1.3262   10.2394    1.3359 C.1     1  LIG1       -0.1139
     35 H          -1.1102   11.1678    1.8124 H       1  LIG1        0.1232
@<TRIPOS>BOND
     1    23    22    1
     2    20    19    1
     3    22    21    3
     4    19    18    3
     5    21    15    1
     6    18    14    1
     7    28    27   ar
     8    28    24   ar
     9     5     1   ar
    10     5     4   ar
    11    15    14   ar
    12    15    16   ar
    13    14    13   ar
    14    29    27    1
    15     6     1    1
    16    27    26   ar
    17     1     2   ar
    18    16    24    1
    19    16    17   ar
    20    13     4    1
    21    13    17   ar
    22    24    25   ar
    23     4     3   ar
    24    26    25   ar
    25    26    33    1
    26     2     3   ar
    27     2     7    1
    28    25    30    1
    29     3    10    1
    30    33    34    3
    31     7     8    3
    32    30    31    3
    33    10    11    3
    34    34    35    1
    35     8     9    1
    36    31    32    1
    37    11    12    1
