@<TRIPOS>MOLECULE
mol_data/opt/cam/geoms/mol2/5ee5ee5ee-5ee.out
 46 49 0 0 0
SMALL
GASTEIGER

@<TRIPOS>ATOM
      1 C          -1.0482   -1.2848    2.5590 C.ar    1  LIG1       -0.0071
      2 C          -0.7362   -1.6361    1.2764 C.ar    1  LIG1        0.0477
      3 C          -0.4501   -0.4858    0.4509 C.ar    1  LIG1        0.0553
      4 C          -0.5459    0.6955    1.1496 C.ar    1  LIG1        0.0437
      5 S          -0.9920    0.4103    2.8033 S.2     1  LIG1       -0.0936
      6 H          -1.3057   -1.9519    3.3682 H       1  LIG1        0.0706
      7 C          -0.7100   -2.9799    0.8037 C.1     1  LIG1       -0.0679
      8 C          -0.6892   -4.1167    0.4105 C.1     1  LIG1       -0.1139
      9 H          -0.6697   -5.1216    0.0566 H       1  LIG1        0.1232
     10 C          -0.1561   -0.5796   -0.9376 C.1     1  LIG1       -0.0673
     11 C           0.0777   -0.6714   -2.1138 C.1     1  LIG1       -0.1138
     12 H           0.2900   -0.7456   -3.1554 H       1  LIG1        0.1232
     13 C          -0.3340    2.0528    0.6625 C.ar    1  LIG1        0.0443
     14 C           0.7787    2.5727    0.0438 C.ar    1  LIG1        0.0559
     15 C           0.6207    3.9635   -0.3050 C.ar    1  LIG1        0.0559
     16 C          -0.5977    4.4704    0.0824 C.ar    1  LIG1        0.0443
     17 S          -1.5677    3.2552    0.8469 S.2     1  LIG1       -0.0846
     18 C           1.9764    1.8454   -0.2010 C.1     1  LIG1       -0.0673
     19 C           2.9988    1.2438   -0.3997 C.1     1  LIG1       -0.1138
     20 H           3.8998    0.7034   -0.5777 H       1  LIG1        0.1232
     21 C           1.6133    4.7028   -1.0061 C.1     1  LIG1       -0.0673
     22 C           2.4527    5.3149   -1.6120 C.1     1  LIG1       -0.1138
     23 H           3.1947    5.8645   -2.1439 H       1  LIG1        0.1232
     24 C          -1.1095    5.8237   -0.0933 C.ar    1  LIG1        0.0443
     25 C          -0.5464    7.0079    0.3214 C.ar    1  LIG1        0.0559
     26 C          -1.3427    8.1560   -0.0371 C.ar    1  LIG1        0.0559
     27 C          -2.5028    7.8118   -0.6908 C.ar    1  LIG1        0.0443
     28 S          -2.6208    6.0956   -0.8959 S.2     1  LIG1       -0.0846
     29 C           0.6674    7.1075    1.0564 C.1     1  LIG1       -0.0673
     30 C           1.6849    7.2013    1.6908 C.1     1  LIG1       -0.1138
     31 H           2.5899    7.2779    2.2481 H       1  LIG1        0.1232
     32 C          -0.9376    9.4927    0.2323 C.1     1  LIG1       -0.0673
     33 C          -0.5788   10.6194    0.4521 C.1     1  LIG1       -0.1138
     34 H          -0.2694   11.6200    0.6487 H       1  LIG1        0.1232
     35 C          -3.5495    8.6907   -1.1972 C.ar    1  LIG1        0.0437
     36 C          -4.2813    9.6301   -0.5082 C.ar    1  LIG1        0.0553
     37 C          -5.2369   10.3084   -1.3528 C.ar    1  LIG1        0.0477
     38 C          -5.2023    9.8516   -2.6396 C.ar    1  LIG1       -0.0071
     39 S          -4.0279    8.6243   -2.8650 S.2     1  LIG1       -0.0936
     40 H          -5.8161   10.1875   -3.4621 H       1  LIG1        0.0706
     41 C          -4.1612    9.8814    0.8866 C.1     1  LIG1       -0.0673
     42 C          -4.0791   10.0934    2.0677 C.1     1  LIG1       -0.1138
     43 H          -3.9978   10.2793    3.1138 H       1  LIG1        0.1232
     44 C          -6.1226   11.3254   -0.8932 C.1     1  LIG1       -0.0679
     45 C          -6.8726   12.1850   -0.5113 C.1     1  LIG1       -0.1139
     46 H          -7.5350   12.9456   -0.1673 H       1  LIG1        0.1232
@<TRIPOS>BOND
     1    40    38    1
     2    12    11    1
     3    39    38   ar
     4    39    35   ar
     5    38    37   ar
     6    23    22    1
     7    11    10    3
     8    22    21    3
     9    37    44    1
    10    37    36   ar
    11    35    27    1
    12    35    36   ar
    13    21    15    1
    14    10     3    1
    15    28    27   ar
    16    28    24   ar
    17    44    45    3
    18    27    26   ar
    19    20    19    1
    20    45    46    1
    21    36    41    1
    22    19    18    3
    23    15    14   ar
    24    15    16   ar
    25    18    14    1
    26    24    16    1
    27    24    25   ar
    28    26    32    1
    29    26    25   ar
    30    14    13   ar
    31     9     8    1
    32    16    17   ar
    33    32    33    3
    34    25    29    1
    35     8     7    3
    36     3     4   ar
    37     3     2   ar
    38    33    34    1
    39    13    17   ar
    40    13     4    1
    41     7     2    1
    42    41    42    3
    43    29    30    3
    44     4     5   ar
    45     2     1   ar
    46    30    31    1
    47    42    43    1
    48     1     5   ar
    49     1     6    1
