@<TRIPOS>MOLECULE
mol_data/opt/cam/geoms/mol2/5ee5ee5ee-5ee-.out
 46 49 0 0 0
SMALL
GASTEIGER

@<TRIPOS>ATOM
      1 C          -0.7500   -1.6897    2.0429 C.ar    1  LIG1       -0.0071
      2 C          -0.4836   -1.8270    0.7102 C.ar    1  LIG1        0.0477
      3 C          -0.3112   -0.5513    0.0549 C.ar    1  LIG1        0.0553
      4 C          -0.4427    0.5054    0.9260 C.ar    1  LIG1        0.0437
      5 S          -0.7849   -0.0489    2.5356 S.2     1  LIG1       -0.0936
      6 H          -0.9244   -2.4843    2.7531 H       1  LIG1        0.0706
      7 C          -0.3998   -3.0821    0.0409 C.1     1  LIG1       -0.0679
      8 C          -0.3300   -4.1448   -0.5185 C.1     1  LIG1       -0.1139
      9 H          -0.2676   -5.0831   -1.0196 H       1  LIG1        0.1232
     10 C          -0.0842   -0.4205   -1.3431 C.1     1  LIG1       -0.0673
     11 C           0.0936   -0.3226   -2.5286 C.1     1  LIG1       -0.1138
     12 H           0.2558   -0.2279   -3.5776 H       1  LIG1        0.1232
     13 C          -0.3398    1.9307    0.6392 C.ar    1  LIG1        0.0443
     14 C           0.7048    2.6107    0.0583 C.ar    1  LIG1        0.0559
     15 C           0.4439    4.0236   -0.0713 C.ar    1  LIG1        0.0559
     16 C          -0.7809    4.3841    0.4404 C.ar    1  LIG1        0.0443
     17 S          -1.6332    3.0059    1.0549 S.2     1  LIG1       -0.0846
     18 C           1.9303    2.0108   -0.3438 C.1     1  LIG1       -0.0673
     19 C           2.9757    1.5160   -0.6737 C.1     1  LIG1       -0.1138
     20 H           3.8974    1.0702   -0.9690 H       1  LIG1        0.1232
     21 C           1.3509    4.9221   -0.6982 C.1     1  LIG1       -0.0673
     22 C           2.1189    5.6699   -1.2438 C.1     1  LIG1       -0.1138
     23 H           2.7967    6.3389   -1.7218 H       1  LIG1        0.1232
     24 C          -1.3851    5.7087    0.4931 C.ar    1  LIG1        0.0443
     25 C          -0.8709    6.8606    1.0416 C.ar    1  LIG1        0.0559
     26 C          -1.7699    7.9821    0.9200 C.ar    1  LIG1        0.0559
     27 C          -2.9435    7.6528    0.2827 C.ar    1  LIG1        0.0443
     28 S          -2.9588    5.9829   -0.1782 S.2     1  LIG1       -0.0846
     29 C           0.3758    6.9405    1.7217 C.1     1  LIG1       -0.0673
     30 C           1.4216    7.0153    2.3110 C.1     1  LIG1       -0.1138
     31 H           2.3513    7.0755    2.8283 H       1  LIG1        0.1232
     32 C          -1.4847    9.2633    1.4683 C.1     1  LIG1       -0.0673
     33 C          -1.2392   10.3388    1.9473 C.1     1  LIG1       -0.1138
     34 H          -1.0262   11.2955    2.3654 H       1  LIG1        0.1232
     35 C          -4.0859    8.5086   -0.0092 C.ar    1  LIG1        0.0437
     36 C          -4.1067    9.7033   -0.6917 C.ar    1  LIG1        0.0553
     37 C          -5.4368   10.2595   -0.7829 C.ar    1  LIG1        0.0477
     38 C          -6.3704    9.4643   -0.1814 C.ar    1  LIG1       -0.0071
     39 S          -5.6802    8.0570    0.5108 S.2     1  LIG1       -0.0936
     40 H          -7.4322    9.6493   -0.1154 H       1  LIG1        0.0706
     41 C          -2.9692   10.3099   -1.2922 C.1     1  LIG1       -0.0673
     42 C          -2.0184   10.8267   -1.8171 C.1     1  LIG1       -0.1138
     43 H          -1.1709   11.2813   -2.2759 H       1  LIG1        0.1232
     44 C          -5.7413   11.4879   -1.4375 C.1     1  LIG1       -0.0679
     45 C          -6.0048   12.5244   -1.9883 C.1     1  LIG1       -0.1139
     46 H          -6.2327   13.4429   -2.4782 H       1  LIG1        0.1232
@<TRIPOS>BOND
     1    12    11    1
     2    11    10    3
     3    46    45    1
     4    43    42    1
     5    45    44    3
     6    42    41    3
     7    23    22    1
     8    44    37    1
     9    10     3    1
    10    41    36    1
    11    22    21    3
    12     9     8    1
    13    20    19    1
    14    37    36   ar
    15    37    38   ar
    16    21    15    1
    17    36    35   ar
    18    19    18    3
    19     8     7    3
    20    18    14    1
    21    38    40    1
    22    38    39   ar
    23    28    27   ar
    24    28    24   ar
    25    15    14   ar
    26    15    16   ar
    27    35    27    1
    28    35    39   ar
    29     7     2    1
    30     3     2   ar
    31     3     4   ar
    32    14    13   ar
    33    27    26   ar
    34    16    24    1
    35    16    17   ar
    36    24    25   ar
    37    13     4    1
    38    13    17   ar
    39     2     1   ar
    40    26    25   ar
    41    26    32    1
    42     4     5   ar
    43    25    29    1
    44    32    33    3
    45    29    30    3
    46    33    34    1
    47     1     5   ar
    48     1     6    1
    49    30    31    1
