@<TRIPOS>MOLECULE
mol_data/opt/cam/geoms/mol2/5ee5ee-5ee.out
 35 37 0 0 0
SMALL
GASTEIGER

@<TRIPOS>ATOM
      1 C          -1.5421   -1.5642    1.7364 C.ar    1  LIG1       -0.0071
      2 C          -0.7130   -1.8150    0.6803 C.ar    1  LIG1        0.0477
      3 C          -0.2554   -0.6002    0.0467 C.ar    1  LIG1        0.0553
      4 C          -0.7498    0.5275    0.6605 C.ar    1  LIG1        0.0437
      5 S          -1.7763    0.1129    1.9982 S.2     1  LIG1       -0.0936
      6 H          -2.0211   -2.2953    2.3707 H       1  LIG1        0.0706
      7 C          -0.3528   -3.1229    0.2449 C.1     1  LIG1       -0.0679
      8 C          -0.0520   -4.2298   -0.1176 C.1     1  LIG1       -0.1139
      9 H           0.2176   -5.2080   -0.4435 H       1  LIG1        0.1232
     10 C           0.5702   -0.5916   -1.1115 C.1     1  LIG1       -0.0673
     11 C           1.2571   -0.5984   -2.0989 C.1     1  LIG1       -0.1138
     12 H           1.8696   -0.5966   -2.9709 H       1  LIG1        0.1232
     13 C          -0.5174    1.9230    0.3097 C.ar    1  LIG1        0.0443
     14 C           0.6825    2.5834    0.1869 C.ar    1  LIG1        0.0559
     15 C           0.5185    3.9681   -0.1838 C.ar    1  LIG1        0.0559
     16 C          -0.8025    4.3299   -0.3065 C.ar    1  LIG1        0.0443
     17 S          -1.8510    2.9853    0.0016 S.2     1  LIG1       -0.0846
     18 C           1.9538    1.9933    0.4300 C.1     1  LIG1       -0.0673
     19 C           3.0325    1.5077    0.6472 C.1     1  LIG1       -0.1138
     20 H           3.9856    1.0701    0.8359 H       1  LIG1        0.1232
     21 C           1.6167    4.8389   -0.4271 C.1     1  LIG1       -0.0673
     22 C           2.5521    5.5631   -0.6443 C.1     1  LIG1       -0.1138
     23 H           3.3765    6.2113   -0.8329 H       1  LIG1        0.1232
     24 C          -1.3546    5.6324   -0.6573 C.ar    1  LIG1        0.0437
     25 C          -1.1373    6.8444   -0.0435 C.ar    1  LIG1        0.0553
     26 C          -1.8661    7.9187   -0.6771 C.ar    1  LIG1        0.0477
     27 C          -2.6138    7.4811   -1.7332 C.ar    1  LIG1       -0.0071
     28 S          -2.4496    5.7957   -1.9950 S.2     1  LIG1       -0.0936
     29 H          -3.2503    8.0800   -2.3674 H       1  LIG1        0.0706
     30 C          -0.3325    7.0290    1.1147 C.1     1  LIG1       -0.0673
     31 C           0.3339    7.1961    2.1020 C.1     1  LIG1       -0.1138
     32 H           0.9299    7.3375    2.9739 H       1  LIG1        0.1232
     33 C          -1.8214    9.2746   -0.2417 C.1     1  LIG1       -0.0679
     34 C          -1.7875   10.4211    0.1209 C.1     1  LIG1       -0.1139
     35 H          -1.7539   11.4351    0.4468 H       1  LIG1        0.1232
@<TRIPOS>BOND
     1    12    11    1
     2    29    27    1
     3    11    10    3
     4    28    27   ar
     5    28    24   ar
     6    27    26   ar
     7    10     3    1
     8    23    22    1
     9    26    33    1
    10    26    25   ar
    11    24    16    1
    12    24    25   ar
    13    22    21    3
    14     9     8    1
    15    21    15    1
    16    16    15   ar
    17    16    17   ar
    18    33    34    3
    19    15    14   ar
    20     8     7    3
    21    25    30    1
    22    17    13   ar
    23     3     4   ar
    24     3     2   ar
    25    34    35    1
    26    14    13   ar
    27    14    18    1
    28     7     2    1
    29    13     4    1
    30    18    19    3
    31    19    20    1
    32     4     5   ar
    33     2     1   ar
    34    30    31    3
    35     1     5   ar
    36     1     6    1
    37    31    32    1
