@<TRIPOS>MOLECULE
mol_data/opt/cam/geoms/mol2/5ee5ee5ee-.out
 35 37 0 0 0
SMALL
GASTEIGER

@<TRIPOS>ATOM
      1 C          -1.5828   -1.5570    1.7282 C.ar    1  LIG1       -0.0071
      2 C          -0.7394   -1.8121    0.6845 C.ar    1  LIG1        0.0477
      3 C          -0.2687   -0.5998    0.0556 C.ar    1  LIG1        0.0553
      4 C          -0.7681    0.5304    0.6605 C.ar    1  LIG1        0.0437
      5 S          -1.8151    0.1213    1.9840 S.2     1  LIG1       -0.0936
      6 H          -2.0733   -2.2854    2.3566 H       1  LIG1        0.0706
      7 C          -0.3773   -3.1219    0.2563 C.1     1  LIG1       -0.0679
      8 C          -0.0749   -4.2304   -0.1001 C.1     1  LIG1       -0.1139
      9 H           0.1968   -5.2096   -0.4208 H       1  LIG1        0.1232
     10 C           0.5734   -0.5959   -1.0906 C.1     1  LIG1       -0.0673
     11 C           1.2744   -0.6065   -2.0680 C.1     1  LIG1       -0.1138
     12 H           1.9002   -0.6085   -2.9305 H       1  LIG1        0.1232
     13 C          -0.5261    1.9246    0.3110 C.ar    1  LIG1        0.0443
     14 C           0.6776    2.5808    0.2042 C.ar    1  LIG1        0.0559
     15 C           0.5235    3.9655   -0.1709 C.ar    1  LIG1        0.0559
     16 C          -0.7945    4.3315   -0.3127 C.ar    1  LIG1        0.0443
     17 S          -1.8517    2.9909   -0.0174 S.2     1  LIG1       -0.0846
     18 C           1.9433    1.9869    0.4662 C.1     1  LIG1       -0.0673
     19 C           3.0172    1.4981    0.6994 C.1     1  LIG1       -0.1138
     20 H           3.9661    1.0576    0.9022 H       1  LIG1        0.1232
     21 C           1.6279    4.8322   -0.3999 C.1     1  LIG1       -0.0673
     22 C           2.5687    5.5528   -0.6052 C.1     1  LIG1       -0.1138
     23 H           3.3979    6.1980   -0.7831 H       1  LIG1        0.1232
     24 C          -1.3371    5.6353   -0.6732 C.ar    1  LIG1        0.0437
     25 C          -1.1242    6.8475   -0.0584 C.ar    1  LIG1        0.0553
     26 C          -1.8406    7.9232   -0.7038 C.ar    1  LIG1        0.0477
     27 C          -2.5751    7.4865   -1.7694 C.ar    1  LIG1       -0.0071
     28 S          -2.4130    5.8001   -2.0262 S.2     1  LIG1       -0.0936
     29 H          -3.2007    8.0864   -2.4133 H       1  LIG1        0.0706
     30 C          -0.3350    7.0314    1.1105 C.1     1  LIG1       -0.0673
     31 C           0.3180    7.1979    2.1068 C.1     1  LIG1       -0.1138
     32 H           0.9018    7.3387    2.9870 H       1  LIG1        0.1232
     33 C          -1.7974    9.2797   -0.2699 C.1     1  LIG1       -0.0679
     34 C          -1.7646   10.4267    0.0911 C.1     1  LIG1       -0.1139
     35 H          -1.7322   11.4414    0.4152 H       1  LIG1        0.1232
@<TRIPOS>BOND
     1    12    11    1
     2    29    27    1
     3    11    10    3
     4    28    27   ar
     5    28    24   ar
     6    27    26   ar
     7    10     3    1
     8    23    22    1
     9    26    33    1
    10    26    25   ar
    11    24    16    1
    12    24    25   ar
    13    22    21    3
    14     9     8    1
    15    21    15    1
    16    16    15   ar
    17    16    17   ar
    18    33    34    3
    19    15    14   ar
    20     8     7    3
    21    25    30    1
    22    17    13   ar
    23     3     4   ar
    24     3     2   ar
    25    34    35    1
    26    14    13   ar
    27    14    18    1
    28     7     2    1
    29    13     4    1
    30    18    19    3
    31     4     5   ar
    32     2     1   ar
    33    19    20    1
    34    30    31    3
    35     1     5   ar
    36     1     6    1
    37    31    32    1
