@<TRIPOS>MOLECULE
mol_data/opt/cam/geoms/mol2/5ee5ee-5ee-5ee.out
 46 49 0 0 0
SMALL
GASTEIGER

@<TRIPOS>ATOM
      1 C          -2.1346   -1.7396    0.2377 C.ar    1  LIG1       -0.0071
      2 C          -0.8947   -1.7151    0.8100 C.ar    1  LIG1        0.0477
      3 C          -0.2667   -0.4193    0.6950 C.ar    1  LIG1        0.0553
      4 C          -1.0566    0.4862    0.0245 C.ar    1  LIG1        0.0437
      5 S          -2.5632   -0.2322   -0.4553 S.2     1  LIG1       -0.0936
      6 H          -2.8104   -2.5807    0.1933 H       1  LIG1        0.0706
      7 C          -0.2959   -2.8336    1.4586 C.1     1  LIG1       -0.0679
      8 C           0.2043   -3.7817    2.0044 C.1     1  LIG1       -0.1139
      9 H           0.6521   -4.6183    2.4894 H       1  LIG1        0.1232
     10 C           1.0015   -0.1184    1.2638 C.1     1  LIG1       -0.0673
     11 C           2.0686    0.1259    1.7622 C.1     1  LIG1       -0.1138
     12 H           3.0155    0.3483    2.1974 H       1  LIG1        0.1232
     13 C          -0.7721    1.8814   -0.2840 C.ar    1  LIG1        0.0443
     14 C           0.3109    2.4055   -0.9506 C.ar    1  LIG1        0.0559
     15 C           0.2413    3.8404   -1.0806 C.ar    1  LIG1        0.0559
     16 C          -0.8928    4.3689   -0.5090 C.ar    1  LIG1        0.0443
     17 S          -1.8763    3.1277    0.1943 S.2     1  LIG1       -0.0846
     18 C           1.3586    1.6287   -1.5182 C.1     1  LIG1       -0.0673
     19 C           2.2423    0.9805   -2.0138 C.1     1  LIG1       -0.1138
     20 H           3.0244    0.4006   -2.4467 H       1  LIG1        0.1232
     21 C           1.2133    4.5997   -1.7890 C.1     1  LIG1       -0.0673
     22 C           2.0334    5.2305   -2.4023 C.1     1  LIG1       -0.1138
     23 H           2.7586    5.7959   -2.9408 H       1  LIG1        0.1232
     24 C          -1.3136    5.7626   -0.4561 C.ar    1  LIG1        0.0443
     25 C          -0.6210    6.8461    0.0320 C.ar    1  LIG1        0.0559
     26 C          -1.3621    8.0779   -0.0888 C.ar    1  LIG1        0.0559
     27 C          -2.6087    7.8939   -0.6394 C.ar    1  LIG1        0.0443
     28 S          -2.8781    6.2293   -1.0374 S.2     1  LIG1       -0.0846
     29 C           0.6677    6.7755    0.6295 C.1     1  LIG1       -0.0673
     30 C           1.7507    6.7257    1.1502 C.1     1  LIG1       -0.1138
     31 H           2.7125    6.6751    1.6063 H       1  LIG1        0.1232
     32 C          -0.8298    9.3408    0.2922 C.1     1  LIG1       -0.0673
     33 C          -0.3649   10.4053    0.6039 C.1     1  LIG1       -0.1138
     34 H           0.0391   11.3510    0.8832 H       1  LIG1        0.1232
     35 C          -3.6344    8.8935   -0.9092 C.ar    1  LIG1        0.0437
     36 C          -4.2139    9.7793   -0.0303 C.ar    1  LIG1        0.0553
     37 C          -5.2015   10.6184   -0.6686 C.ar    1  LIG1        0.0477
     38 C          -5.3415   10.3302   -1.9964 C.ar    1  LIG1       -0.0071
     39 S          -4.2949    9.0725   -2.5051 S.2     1  LIG1       -0.0936
     40 H          -6.0139   10.8066   -2.6944 H       1  LIG1        0.0706
     41 C          -3.9247    9.8405    1.3609 C.1     1  LIG1       -0.0673
     42 C          -3.6991    9.8926    2.5412 C.1     1  LIG1       -0.1138
     43 H          -3.4907    9.9359    3.5853 H       1  LIG1        0.1232
     44 C          -5.9524   11.6201    0.0116 C.1     1  LIG1       -0.0679
     45 C          -6.5893   12.4675    0.5803 C.1     1  LIG1       -0.1139
     46 H          -7.1507   13.2165    1.0897 H       1  LIG1        0.1232
@<TRIPOS>BOND
     1    23    22    1
     2    40    38    1
     3    39    38   ar
     4    39    35   ar
     5    20    19    1
     6    22    21    3
     7    19    18    3
     8    38    37   ar
     9    21    15    1
    10    18    14    1
    11    15    14   ar
    12    15    16   ar
    13    28    27   ar
    14    28    24   ar
    15    14    13   ar
    16    35    27    1
    17    35    36   ar
    18    37    36   ar
    19    37    44    1
    20    27    26   ar
    21    16    24    1
    22    16    17   ar
    23    24    25   ar
    24     5     4   ar
    25     5     1   ar
    26    13     4    1
    27    13    17   ar
    28    26    25   ar
    29    26    32    1
    30    36    41    1
    31    44    45    3
    32     4     3   ar
    33    25    29    1
    34     6     1    1
    35     1     2   ar
    36    32    33    3
    37    45    46    1
    38    33    34    1
    39    29    30    3
    40     3     2   ar
    41     3    10    1
    42     2     7    1
    43    30    31    1
    44    10    11    3
    45    41    42    3
    46     7     8    3
    47    11    12    1
    48     8     9    1
    49    42    43    1
