@<TRIPOS>MOLECULE
mol_data/opt/cam/geoms/mol2/5ef.out
 12 12 0 0 0
SMALL
GASTEIGER

@<TRIPOS>ATOM
      1 C          -2.1031   -1.6927    0.0000 C.ar    1  LIG1       -0.0053
      2 C          -0.7360   -1.6746   -0.0002 C.ar    1  LIG1        0.0730
      3 C          -0.2284   -0.3269   -0.0001 C.ar    1  LIG1        0.1391
      4 C          -1.2117    0.6133    0.0002 C.ar    1  LIG1        0.0184
      5 S          -2.7805   -0.1168    0.0006 S.2     1  LIG1       -0.1001
      6 H          -2.7365   -2.5671   -0.0001 H       1  LIG1        0.0707
      7 H          -1.1040    1.6881    0.0003 H       1  LIG1        0.0730
      8 C           0.0929   -2.8323   -0.0006 C.1     1  LIG1       -0.0655
      9 C           0.7896   -3.8135   -0.0009 C.1     1  LIG1       -0.1138
     10 H           1.4114   -4.6786   -0.0012 H       1  LIG1        0.1232
     11 O           1.1107   -0.1252   -0.0004 O.3     1  LIG1       -0.5050
     12 H           1.2930    0.8215   -0.0003 H       1  LIG1        0.2922
@<TRIPOS>BOND
     1    10     9    1
     2     9     8    3
     3     8     2    1
     4    11    12    1
     5    11     3    1
     6     2     3   ar
     7     2     1   ar
     8     3     4   ar
     9     6     1    1
    10     1     5   ar
    11     4     7    1
    12     4     5   ar
