@<TRIPOS>MOLECULE
mol_data/opt/cam/geoms/mol2/5ef5ef5ef-5ef-.out
 42 45 0 0 0
SMALL
GASTEIGER

@<TRIPOS>ATOM
      1 C          -1.8005   -1.7665    1.1786 C.ar    1  LIG1       -0.0047
      2 C          -0.9267   -1.8844    0.1361 C.ar    1  LIG1        0.0737
      3 C          -0.3759   -0.6121   -0.2524 C.ar    1  LIG1        0.1474
      4 C          -0.8476    0.4349    0.5103 C.ar    1  LIG1        0.0698
      5 S          -1.9655   -0.1516    1.7231 S.2     1  LIG1       -0.0911
      6 H          -2.3360   -2.5682    1.6651 H       1  LIG1        0.0707
      7 C          -0.5881   -3.1113   -0.5021 C.1     1  LIG1       -0.0655
      8 C          -0.3084   -4.1535   -1.0343 C.1     1  LIG1       -0.1138
      9 H          -0.0563   -5.0724   -1.5110 H       1  LIG1        0.1232
     10 O           0.4523   -0.5656   -1.3058 O.3     1  LIG1       -0.5044
     11 H           1.0362    0.2099   -1.2550 H       1  LIG1        0.2922
     12 C          -0.6142    1.8577    0.3648 C.ar    1  LIG1        0.0490
     13 C           0.5377    2.5227   -0.0017 C.ar    1  LIG1        0.0820
     14 C           0.3774    3.9495   -0.0456 C.ar    1  LIG1        0.1481
     15 C          -0.8852    4.3657    0.3096 C.ar    1  LIG1        0.0704
     16 S          -1.8950    2.9831    0.6785 S.2     1  LIG1       -0.0820
     17 C           1.7840    1.8945   -0.2675 C.1     1  LIG1       -0.0648
     18 C           2.8260    1.3358   -0.5062 C.1     1  LIG1       -0.1138
     19 H           3.7600    0.8540   -0.6861 H       1  LIG1        0.1232
     20 O           1.4164    4.6927   -0.4515 O.3     1  LIG1       -0.5044
     21 H           1.3624    5.5942   -0.0892 H       1  LIG1        0.2922
     22 C          -1.4544    5.6965    0.3145 C.ar    1  LIG1        0.0491
     23 C          -0.8608    6.9039    0.6220 C.ar    1  LIG1        0.0820
     24 C          -1.7497    8.0234    0.4787 C.ar    1  LIG1        0.1481
     25 C          -3.0157    7.6641    0.0795 C.ar    1  LIG1        0.0704
     26 S          -3.1006    5.9360   -0.1778 S.2     1  LIG1       -0.0820
     27 C           0.4710    7.0539    1.0929 C.1     1  LIG1       -0.0648
     28 C           1.6110    7.1585    1.4732 C.1     1  LIG1       -0.1138
     29 H           2.6042    7.2594    1.8478 H       1  LIG1        0.1232
     30 O          -1.2972    9.2410    0.8133 O.3     1  LIG1       -0.5044
     31 H          -1.8001    9.9357    0.3546 H       1  LIG1        0.2922
     32 C          -4.2090    8.4765   -0.0502 C.ar    1  LIG1        0.0484
     33 C          -4.3347    9.7777   -0.4954 C.ar    1  LIG1        0.0814
     34 C          -5.6935   10.2447   -0.4507 C.ar    1  LIG1        0.1398
     35 C          -6.5674    9.3082   -0.0001 C.ar    1  LIG1        0.0190
     36 S          -5.7554    7.8387    0.4171 S.2     1  LIG1       -0.0910
     37 H          -7.6387    9.3932    0.1082 H       1  LIG1        0.0731
     38 C          -3.2665   10.5711   -0.9920 C.1     1  LIG1       -0.0648
     39 C          -2.3410   11.2343   -1.3906 C.1     1  LIG1       -0.1138
     40 H          -1.5373   11.8164   -1.7807 H       1  LIG1        0.1232
     41 O          -5.9630   11.5058   -0.8608 O.3     1  LIG1       -0.5050
     42 H          -6.9099   11.6734   -0.7895 H       1  LIG1        0.2922
@<TRIPOS>BOND
     1    40    39    1
     2     9     8    1
     3    39    38    3
     4    10    11    1
     5    10     3    1
     6     8     7    3
     7    38    33    1
     8    41    42    1
     9    41    34    1
    10    19    18    1
    11    18    17    3
    12     7     2    1
    13    33    34   ar
    14    33    32   ar
    15    20    21    1
    16    20    14    1
    17    34    35   ar
    18    17    13    1
    19     3     2   ar
    20     3     4   ar
    21    26    25   ar
    22    26    22   ar
    23    32    25    1
    24    32    36   ar
    25    14    13   ar
    26    14    15   ar
    27    13    12   ar
    28    35    37    1
    29    35    36   ar
    30    25    24   ar
    31     2     1   ar
    32    15    22    1
    33    15    16   ar
    34    22    23   ar
    35    31    30    1
    36    12     4    1
    37    12    16   ar
    38    24    23   ar
    39    24    30    1
    40     4     5   ar
    41    23    27    1
    42    27    28    3
    43     1     6    1
    44     1     5   ar
    45    28    29    1
