@<TRIPOS>MOLECULE
mol_data/opt/cam/geoms/mol2/5ef5ef.out
 22 23 0 0 0
SMALL
GASTEIGER

@<TRIPOS>ATOM
      1 C          -2.0158   -1.7712    0.6059 C.ar    1  LIG1       -0.0047
      2 C          -0.7692   -1.8314    0.0520 C.ar    1  LIG1        0.0737
      3 C          -0.2223   -0.5212   -0.1887 C.ar    1  LIG1        0.1474
      4 C          -1.0702    0.4952    0.1918 C.ar    1  LIG1        0.0698
      5 S          -2.5442   -0.1633    0.8667 S.2     1  LIG1       -0.0911
      6 H          -2.6352   -2.6078    0.8932 H       1  LIG1        0.0707
      7 C          -0.0782   -3.0374   -0.2572 C.1     1  LIG1       -0.0655
      8 C           0.4970   -4.0624   -0.5140 C.1     1  LIG1       -0.1138
      9 H           1.0124   -4.9659   -0.7453 H       1  LIG1        0.1232
     10 O           0.9762   -0.4226   -0.7848 O.3     1  LIG1       -0.5044
     11 H           1.4082    0.4169   -0.5548 H       1  LIG1        0.2922
     12 C          -0.9237    1.9289    0.0234 C.ar    1  LIG1        0.0484
     13 C           0.2099    2.7094    0.1319 C.ar    1  LIG1        0.0814
     14 C          -0.0507    4.0978   -0.1348 C.ar    1  LIG1        0.1398
     15 C          -1.3535    4.3536   -0.4195 C.ar    1  LIG1        0.0190
     16 S          -2.2958    2.9025   -0.4062 S.2     1  LIG1       -0.0910
     17 H          -1.8145    5.3066   -0.6336 H       1  LIG1        0.0731
     18 C           1.4922    2.2268    0.5068 C.1     1  LIG1       -0.0648
     19 C           2.5765    1.7909    0.8056 C.1     1  LIG1       -0.1138
     20 H           3.5307    1.4199    1.1033 H       1  LIG1        0.1232
     21 O           0.9737    4.9795   -0.0617 O.3     1  LIG1       -0.5050
     22 H           0.6497    5.8672   -0.2536 H       1  LIG1        0.2922
@<TRIPOS>BOND
     1    10    11    1
     2    10     3    1
     3     9     8    1
     4    17    15    1
     5     8     7    3
     6    15    16   ar
     7    15    14   ar
     8    16    12   ar
     9     7     2    1
    10    22    21    1
    11     3     2   ar
    12     3     4   ar
    13    14    21    1
    14    14    13   ar
    15    12    13   ar
    16    12     4    1
    17     2     1   ar
    18    13    18    1
    19     4     5   ar
    20    18    19    3
    21     1     5   ar
    22     1     6    1
    23    19    20    1
