@<TRIPOS>MOLECULE
mol_data/opt/cam/geoms/mol2/5ef5ef-5ef-5ef.out
 42 45 0 0 0
SMALL
GASTEIGER

@<TRIPOS>ATOM
      1 C          -2.2292   -1.7433    0.3754 C.ar    1  LIG1       -0.0047
      2 C          -0.8889   -1.8414    0.6172 C.ar    1  LIG1        0.0737
      3 C          -0.2116   -0.5871    0.4162 C.ar    1  LIG1        0.1474
      4 C          -1.0598    0.4268    0.0243 C.ar    1  LIG1        0.0698
      5 S          -2.6998   -0.1711   -0.1115 S.2     1  LIG1       -0.0911
      6 H          -2.9560   -2.5395    0.4408 H       1  LIG1        0.0707
      7 C          -0.2238   -3.0340    1.0206 C.1     1  LIG1       -0.0655
      8 C           0.3287   -4.0473    1.3608 C.1     1  LIG1       -0.1138
      9 H           0.8250   -4.9399    1.6643 H       1  LIG1        0.1232
     10 O           1.1017   -0.5167    0.6764 O.3     1  LIG1       -0.5044
     11 H           1.5176    0.2037    0.1730 H       1  LIG1        0.2922
     12 C          -0.7838    1.8343   -0.1786 C.ar    1  LIG1        0.0490
     13 C           0.3404    2.4419   -0.6983 C.ar    1  LIG1        0.0820
     14 C           0.2545    3.8759   -0.7090 C.ar    1  LIG1        0.1481
     15 C          -0.9373    4.3522   -0.2120 C.ar    1  LIG1        0.0704
     16 S          -1.9423    3.0232    0.3239 S.2     1  LIG1       -0.0820
     17 C           1.4612    1.7487   -1.2293 C.1     1  LIG1       -0.0648
     18 C           2.4096    1.1377   -1.6558 C.1     1  LIG1       -0.1138
     19 H           3.2367    0.6066   -2.0691 H       1  LIG1        0.1232
     20 O           1.2642    4.5671   -1.2558 O.3     1  LIG1       -0.5044
     21 H           1.2912    5.4763   -0.9105 H       1  LIG1        0.2922
     22 C          -1.4485    5.7062   -0.1801 C.ar    1  LIG1        0.0491
     23 C          -0.7763    6.8914    0.0388 C.ar    1  LIG1        0.0820
     24 C          -1.6308    8.0447   -0.0206 C.ar    1  LIG1        0.1481
     25 C          -2.9484    7.7331   -0.2589 C.ar    1  LIG1        0.0704
     26 S          -3.1387    6.0018   -0.4330 S.2     1  LIG1       -0.0820
     27 C           0.6075    6.9918    0.3438 C.1     1  LIG1       -0.0648
     28 C           1.7881    7.0518    0.5844 C.1     1  LIG1       -0.1138
     29 H           2.8228    7.1153    0.8337 H       1  LIG1        0.1232
     30 O          -1.0734    9.2573    0.1162 O.3     1  LIG1       -0.5044
     31 H          -1.7195    9.8990    0.4578 H       1  LIG1        0.2922
     32 C          -4.0844    8.6108   -0.4605 C.ar    1  LIG1        0.0484
     33 C          -4.3792    9.8122    0.1536 C.ar    1  LIG1        0.0814
     34 C          -5.5946   10.3987   -0.3413 C.ar    1  LIG1        0.1398
     35 C          -6.2055    9.6446   -1.2911 C.ar    1  LIG1        0.0190
     36 S          -5.2977    8.2135   -1.6378 S.2     1  LIG1       -0.0910
     37 H          -7.1346    9.8434   -1.8049 H       1  LIG1        0.0731
     38 C          -3.6118   10.4002    1.1941 C.1     1  LIG1       -0.0648
     39 C          -2.9339   10.8922    2.0622 C.1     1  LIG1       -0.1138
     40 H          -2.3625   11.3171    2.8559 H       1  LIG1        0.1232
     41 O          -6.0057   11.5799    0.1753 O.3     1  LIG1       -0.5050
     42 H          -6.8354   11.8430   -0.2396 H       1  LIG1        0.2922
@<TRIPOS>BOND
     1    19    18    1
     2    37    35    1
     3    18    17    3
     4    36    35   ar
     5    36    32   ar
     6    35    34   ar
     7    20    21    1
     8    20    14    1
     9    17    13    1
    10    14    13   ar
    11    14    15   ar
    12    13    12   ar
    13    32    25    1
    14    32    33   ar
    15    26    25   ar
    16    26    22   ar
    17    34    33   ar
    18    34    41    1
    19    25    24   ar
    20    42    41    1
    21    15    22    1
    22    15    16   ar
    23    22    23   ar
    24    12     4    1
    25    12    16   ar
    26     5     4   ar
    27     5     1   ar
    28    24    23   ar
    29    24    30    1
    30     4     3   ar
    31    23    27    1
    32    30    31    1
    33    33    38    1
    34    11    10    1
    35    27    28    3
    36     1     6    1
    37     1     2   ar
    38     3     2   ar
    39     3    10    1
    40    28    29    1
    41     2     7    1
    42     7     8    3
    43    38    39    3
    44     8     9    1
    45    39    40    1
