@<TRIPOS>MOLECULE
mol_data/opt/cam/geoms/mol2/5ef5ef-5ef.out
 32 34 0 0 0
SMALL
GASTEIGER

@<TRIPOS>ATOM
      1 C          -2.1239   -1.8225   -0.0620 C.ar    1  LIG1       -0.0047
      2 C          -0.8011   -1.8656   -0.3979 C.ar    1  LIG1        0.0737
      3 C          -0.1783   -0.5710   -0.3034 C.ar    1  LIG1        0.1474
      4 C          -1.0483    0.4173    0.1050 C.ar    1  LIG1        0.0698
      5 S          -2.6403   -0.2538    0.3887 S.2     1  LIG1       -0.0911
      6 H          -2.8105   -2.6558   -0.0383 H       1  LIG1        0.0707
      7 C          -0.1047   -3.0419   -0.7966 C.1     1  LIG1       -0.0655
      8 C           0.4746   -4.0417   -1.1318 C.1     1  LIG1       -0.1138
      9 H           0.9941   -4.9227   -1.4304 H       1  LIG1        0.1232
     10 O           1.1076   -0.4484   -0.6631 O.3     1  LIG1       -0.5044
     11 H           1.5200    0.3144   -0.2235 H       1  LIG1        0.2922
     12 C          -0.8335    1.8451    0.2247 C.ar    1  LIG1        0.0490
     13 C           0.2906    2.5324    0.6333 C.ar    1  LIG1        0.0820
     14 C           0.1279    3.9594    0.5891 C.ar    1  LIG1        0.1481
     15 C          -1.1195    4.3507    0.1628 C.ar    1  LIG1        0.0704
     16 S          -2.0865    2.9500   -0.2418 S.2     1  LIG1       -0.0820
     17 C           1.4825    1.9223    1.1085 C.1     1  LIG1       -0.0648
     18 C           2.4907    1.3806    1.4892 C.1     1  LIG1       -0.1138
     19 H           3.3726    0.9117    1.8624 H       1  LIG1        0.1232
     20 O           1.1365    4.7281    1.0264 O.3     1  LIG1       -0.5044
     21 H           1.0919    5.6155    0.6311 H       1  LIG1        0.2922
     22 C          -1.7033    5.6761    0.1072 C.ar    1  LIG1        0.0484
     23 C          -1.1098    6.8790   -0.2217 C.ar    1  LIG1        0.0814
     24 C          -2.0235    7.9852   -0.1325 C.ar    1  LIG1        0.1398
     25 C          -3.2771    7.6165    0.2364 C.ar    1  LIG1        0.0190
     26 S          -3.3736    5.9126    0.5211 S.2     1  LIG1       -0.0910
     27 H          -4.1490    8.2430    0.3545 H       1  LIG1        0.0731
     28 C           0.2361    7.0278   -0.6501 C.1     1  LIG1       -0.0648
     29 C           1.3882    7.1337   -0.9918 C.1     1  LIG1       -0.1138
     30 H           2.3939    7.2336   -1.3319 H       1  LIG1        0.1232
     31 O          -1.5746    9.2268   -0.4295 O.3     1  LIG1       -0.5050
     32 H          -2.2952    9.8611   -0.3392 H       1  LIG1        0.2922
@<TRIPOS>BOND
     1     9     8    1
     2    30    29    1
     3     8     7    3
     4    29    28    3
     5     7     2    1
     6    10     3    1
     7    10    11    1
     8    28    23    1
     9    31    32    1
    10    31    24    1
    11     2     3   ar
    12     2     1   ar
    13     3     4   ar
    14    16    15   ar
    15    16    12   ar
    16    23    24   ar
    17    23    22   ar
    18    24    25   ar
    19     1     6    1
    20     1     5   ar
    21     4    12    1
    22     4     5   ar
    23    22    15    1
    24    22    26   ar
    25    15    14   ar
    26    12    13   ar
    27    25    27    1
    28    25    26   ar
    29    14    13   ar
    30    14    20    1
    31    21    20    1
    32    13    17    1
    33    17    18    3
    34    18    19    1
