@<TRIPOS>MOLECULE
mol_data/opt/cam/geoms/mol2/5ef5ef-5ef5ef-.out
 42 45 0 0 0
SMALL
GASTEIGER

@<TRIPOS>ATOM
      1 C          -1.7871   -1.7691    1.1879 C.ar    1  LIG1       -0.0047
      2 C          -0.9308   -1.8852    0.1308 C.ar    1  LIG1        0.0737
      3 C          -0.3854   -0.6124   -0.2637 C.ar    1  LIG1        0.1474
      4 C          -0.8434    0.4330    0.5093 C.ar    1  LIG1        0.0698
      5 S          -1.9417   -0.1554    1.7389 S.2     1  LIG1       -0.0911
      6 H          -2.3151   -2.5716    1.6813 H       1  LIG1        0.0707
      7 C          -0.6040   -3.1109   -0.5160 C.1     1  LIG1       -0.0655
      8 C          -0.3341   -4.1520   -1.0552 C.1     1  LIG1       -0.1138
      9 H          -0.0908   -5.0699   -1.5384 H       1  LIG1        0.1232
     10 O           0.4252   -0.5640   -1.3306 O.3     1  LIG1       -0.5044
     11 H           1.0107    0.2108   -1.2874 H       1  LIG1        0.2922
     12 C          -0.6110    1.8560    0.3636 C.ar    1  LIG1        0.0490
     13 C           0.5352    2.5208   -0.0205 C.ar    1  LIG1        0.0820
     14 C           0.3756    3.9478   -0.0582 C.ar    1  LIG1        0.1481
     15 C          -0.8805    4.3643    0.3193 C.ar    1  LIG1        0.0704
     16 S          -1.8852    2.9818    0.7017 S.2     1  LIG1       -0.0820
     17 C           1.7764    1.8922   -0.3087 C.1     1  LIG1       -0.0648
     18 C           2.8135    1.3331   -0.5664 C.1     1  LIG1       -0.1138
     19 H           3.7439    0.8507   -0.7630 H       1  LIG1        0.1232
     20 O           1.4083    4.6912   -0.4796 O.3     1  LIG1       -0.5044
     21 H           1.3612    5.5918   -0.1139 H       1  LIG1        0.2922
     22 C          -1.4482    5.6957    0.3371 C.ar    1  LIG1        0.0491
     23 C          -0.8483    6.9017    0.6376 C.ar    1  LIG1        0.0820
     24 C          -1.7384    8.0224    0.5121 C.ar    1  LIG1        0.1481
     25 C          -3.0112    7.6653    0.1332 C.ar    1  LIG1        0.0704
     26 S          -3.1021    5.9380   -0.1269 S.2     1  LIG1       -0.0820
     27 C           0.4914    7.0492    1.0864 C.1     1  LIG1       -0.0648
     28 C           1.6377    7.1519    1.4479 C.1     1  LIG1       -0.1138
     29 H           2.6372    7.2510    1.8058 H       1  LIG1        0.1232
     30 O          -1.2792    9.2387    0.8422 O.3     1  LIG1       -0.5044
     31 H          -1.7888    9.9350    0.3933 H       1  LIG1        0.2922
     32 C          -4.2057    8.4792    0.0255 C.ar    1  LIG1        0.0484
     33 C          -4.3374    9.7817   -0.4144 C.ar    1  LIG1        0.0814
     34 C          -5.6948   10.2498   -0.3461 C.ar    1  LIG1        0.1398
     35 C          -6.5621    9.3130    0.1165 C.ar    1  LIG1        0.0190
     36 S          -5.7447    7.8418    0.5169 S.2     1  LIG1       -0.0910
     37 H          -7.6314    9.3987    0.2427 H       1  LIG1        0.0731
     38 C          -3.2769   10.5751   -0.9268 C.1     1  LIG1       -0.0648
     39 C          -2.3572   11.2383   -1.3391 C.1     1  LIG1       -0.1138
     40 H          -1.5595   11.8206   -1.7410 H       1  LIG1        0.1232
     41 O          -5.9698   11.5121   -0.7486 O.3     1  LIG1       -0.5050
     42 H          -6.9153   11.6803   -0.6615 H       1  LIG1        0.2922
@<TRIPOS>BOND
     1    40    39    1
     2     9     8    1
     3    39    38    3
     4    10    11    1
     5    10     3    1
     6     8     7    3
     7    38    33    1
     8    19    18    1
     9    41    42    1
    10    41    34    1
    11    18    17    3
    12     7     2    1
    13    20    21    1
    14    20    14    1
    15    33    34   ar
    16    33    32   ar
    17    34    35   ar
    18    17    13    1
    19     3     2   ar
    20     3     4   ar
    21    26    25   ar
    22    26    22   ar
    23    14    13   ar
    24    14    15   ar
    25    13    12   ar
    26    32    25    1
    27    32    36   ar
    28    35    37    1
    29    35    36   ar
    30     2     1   ar
    31    25    24   ar
    32    15    22    1
    33    15    16   ar
    34    22    23   ar
    35    12     4    1
    36    12    16   ar
    37    31    30    1
    38     4     5   ar
    39    24    23   ar
    40    24    30    1
    41    23    27    1
    42    27    28    3
    43     1     6    1
    44     1     5   ar
    45    28    29    1
