@<TRIPOS>MOLECULE
mol_data/opt/cam/geoms/mol2/5ef5ef5ef5ef.out
 42 45 0 0 0
SMALL
GASTEIGER

@<TRIPOS>ATOM
      1 C          -2.1955   -1.7933    0.2470 C.ar    1  LIG1       -0.0047
      2 C          -0.8835   -1.9104   -0.1129 C.ar    1  LIG1        0.0737
      3 C          -0.2137   -0.6362   -0.1310 C.ar    1  LIG1        0.1474
      4 C          -1.0389    0.4116    0.2191 C.ar    1  LIG1        0.0698
      5 S          -2.6462   -0.1773    0.5870 S.2     1  LIG1       -0.0911
      6 H          -2.9098   -2.5967    0.3494 H       1  LIG1        0.0707
      7 C          -0.2384   -3.1381   -0.4352 C.1     1  LIG1       -0.0655
      8 C           0.2972   -4.1811   -0.7052 C.1     1  LIG1       -0.1138
      9 H           0.7782   -5.1008   -0.9462 H       1  LIG1        0.1232
     10 O           1.0662   -0.5887   -0.5267 O.3     1  LIG1       -0.5044
     11 H           1.5158    0.1904   -0.1575 H       1  LIG1        0.2922
     12 C          -0.7713    1.8352    0.2231 C.ar    1  LIG1        0.0490
     13 C           0.3871    2.5091    0.5511 C.ar    1  LIG1        0.0820
     14 C           0.2756    3.9330    0.3985 C.ar    1  LIG1        0.1481
     15 C          -0.9682    4.3376   -0.0306 C.ar    1  LIG1        0.0704
     16 S          -1.9957    2.9463   -0.2999 S.2     1  LIG1       -0.0820
     17 C           1.5676    1.8933    1.0471 C.1     1  LIG1       -0.0648
     18 C           2.5646    1.3452    1.4474 C.1     1  LIG1       -0.1138
     19 H           3.4380    0.8740    1.8373 H       1  LIG1        0.1232
     20 O           1.3209    4.6927    0.7537 O.3     1  LIG1       -0.5044
     21 H           1.2979    5.5519    0.2973 H       1  LIG1        0.2922
     22 C          -1.5069    5.6727   -0.1774 C.ar    1  LIG1        0.0491
     23 C          -0.8798    6.8321   -0.5862 C.ar    1  LIG1        0.0820
     24 C          -1.7458    7.9782   -0.5715 C.ar    1  LIG1        0.1481
     25 C          -3.0277    7.6855   -0.1689 C.ar    1  LIG1        0.0704
     26 S          -3.1579    5.9916    0.2497 S.2     1  LIG1       -0.0820
     27 C           0.4649    6.9081   -1.0379 C.1     1  LIG1       -0.0648
     28 C           1.6149    6.9511   -1.3996 C.1     1  LIG1       -0.1138
     29 H           2.6177    6.9946   -1.7597 H       1  LIG1        0.1232
     30 O          -1.2585    9.1481   -1.0107 O.3     1  LIG1       -0.5044
     31 H          -1.7558    9.8942   -0.6339 H       1  LIG1        0.2922
     32 C          -4.2048    8.5307   -0.1464 C.ar    1  LIG1        0.0484
     33 C          -4.3108    9.8716    0.1668 C.ar    1  LIG1        0.0814
     34 C          -5.6574   10.3596    0.0445 C.ar    1  LIG1        0.1398
     35 C          -6.5424    9.4015   -0.3333 C.ar    1  LIG1        0.0190
     36 S          -5.7549    7.8818   -0.5857 S.2     1  LIG1       -0.0910
     37 H          -7.6089    9.4972   -0.4748 H       1  LIG1        0.0731
     38 C          -3.2362   10.6881    0.6089 C.1     1  LIG1       -0.0648
     39 C          -2.3050   11.3685    0.9629 C.1     1  LIG1       -0.1138
     40 H          -1.4969   11.9696    1.3132 H       1  LIG1        0.1232
     41 O          -5.9071   11.6600    0.3231 O.3     1  LIG1       -0.5050
     42 H          -6.8480   11.8394    0.2124 H       1  LIG1        0.2922
@<TRIPOS>BOND
     1    29    28    1
     2    28    27    3
     3    27    23    1
     4    30    31    1
     5    30    24    1
     6     9     8    1
     7     8     7    3
     8    23    24   ar
     9    23    22   ar
    10    36    35   ar
    11    36    32   ar
    12    24    25   ar
    13    10    11    1
    14    10     3    1
    15    37    35    1
    16     7     2    1
    17    35    34   ar
    18    16    15   ar
    19    16    12   ar
    20    22    15    1
    21    22    26   ar
    22    25    32    1
    23    25    26   ar
    24    32    33   ar
    25     3     2   ar
    26     3     4   ar
    27     2     1   ar
    28    15    14   ar
    29    34    33   ar
    30    34    41    1
    31    33    38    1
    32    42    41    1
    33     4    12    1
    34     4     5   ar
    35    12    13   ar
    36     1     6    1
    37     1     5   ar
    38    21    20    1
    39    14    13   ar
    40    14    20    1
    41    13    17    1
    42    38    39    3
    43    39    40    1
    44    17    18    3
    45    18    19    1
