@<TRIPOS>MOLECULE
mol_data/opt/cam/geoms/mol2/5ef5ef5ef-.out
 32 34 0 0 0
SMALL
GASTEIGER

@<TRIPOS>ATOM
      1 C          -1.8594   -1.7383    1.1601 C.ar    1  LIG1       -0.0047
      2 C          -0.8327   -1.8900    0.2731 C.ar    1  LIG1        0.0737
      3 C          -0.2790   -0.6243   -0.1327 C.ar    1  LIG1        0.1474
      4 C          -0.9023    0.4519    0.4615 C.ar    1  LIG1        0.0698
      5 S          -2.1682   -0.0972    1.5387 S.2     1  LIG1       -0.0911
      6 H          -2.4315   -2.5271    1.6256 H       1  LIG1        0.0707
      7 C          -0.3531   -3.1429   -0.2042 C.1     1  LIG1       -0.0655
      8 C           0.0449   -4.2068   -0.6009 C.1     1  LIG1       -0.1138
      9 H           0.4022   -5.1450   -0.9576 H       1  LIG1        0.1232
     10 O           0.6985   -0.6152   -1.0507 O.3     1  LIG1       -0.5044
     11 H           1.2384    0.1897   -0.9751 H       1  LIG1        0.2922
     12 C          -0.7043    1.8699    0.2354 C.ar    1  LIG1        0.0490
     13 C           0.4635    2.5630   -0.0066 C.ar    1  LIG1        0.0820
     14 C           0.2557    3.9722   -0.1953 C.ar    1  LIG1        0.1481
     15 C          -1.0611    4.3482   -0.0740 C.ar    1  LIG1        0.0704
     16 S          -2.0609    2.9496    0.2550 S.2     1  LIG1       -0.0820
     17 C           1.7593    1.9807   -0.0266 C.1     1  LIG1       -0.0648
     18 C           2.8463    1.4588   -0.0569 C.1     1  LIG1       -0.1138
     19 H           3.8148    1.0128   -0.0520 H       1  LIG1        0.1232
     20 O           1.3159    4.7369   -0.4977 O.3     1  LIG1       -0.5044
     21 H           1.1706    5.6567   -0.2175 H       1  LIG1        0.2922
     22 C          -1.6734    5.6478   -0.2681 C.ar    1  LIG1        0.0484
     23 C          -1.1860    6.8997    0.0521 C.ar    1  LIG1        0.0814
     24 C          -2.0870    7.9538   -0.3263 C.ar    1  LIG1        0.1398
     25 C          -3.2313    7.5006   -0.9000 C.ar    1  LIG1        0.0190
     26 S          -3.2289    5.7756   -1.0301 S.2     1  LIG1       -0.0910
     27 H          -4.0748    8.0767   -1.2511 H       1  LIG1        0.0731
     28 C           0.0413    7.1442    0.7238 C.1     1  LIG1       -0.0648
     29 C           1.0974    7.3306    1.2764 C.1     1  LIG1       -0.1138
     30 H           2.0110    7.5040    1.7980 H       1  LIG1        0.1232
     31 O          -1.7357    9.2351   -0.0692 O.3     1  LIG1       -0.5050
     32 H          -2.4364    9.8279   -0.3648 H       1  LIG1        0.2922
@<TRIPOS>BOND
     1    27    25    1
     2    10    11    1
     3    10     3    1
     4    26    25   ar
     5    26    22   ar
     6     9     8    1
     7    25    24   ar
     8     8     7    3
     9    20    21    1
    10    20    14    1
    11    32    31    1
    12    24    31    1
    13    24    23   ar
    14    22    15    1
    15    22    23   ar
    16     7     2    1
    17    14    15   ar
    18    14    13   ar
    19     3     2   ar
    20     3     4   ar
    21    15    16   ar
    22    18    19    1
    23    18    17    3
    24    17    13    1
    25    13    12   ar
    26    23    28    1
    27    12    16   ar
    28    12     4    1
    29     2     1   ar
    30     4     5   ar
    31    28    29    3
    32     1     5   ar
    33     1     6    1
    34    29    30    1
