@<TRIPOS>MOLECULE
mol_data/opt/cam/geoms/mol2/5ef5ef5ef.out
 32 34 0 0 0
SMALL
GASTEIGER

@<TRIPOS>ATOM
      1 C          -2.1073   -1.8251    0.1824 C.ar    1  LIG1       -0.0047
      2 C          -0.8094   -1.8757   -0.2388 C.ar    1  LIG1        0.0737
      3 C          -0.1864   -0.5779   -0.2233 C.ar    1  LIG1        0.1474
      4 C          -1.0312    0.4205    0.2128 C.ar    1  LIG1        0.0698
      5 S          -2.5985   -0.2447    0.6204 S.2     1  LIG1       -0.0911
      6 H          -2.7877   -2.6584    0.2758 H       1  LIG1        0.0707
      7 C          -0.1367   -3.0620   -0.6484 C.1     1  LIG1       -0.0655
      8 C           0.4227   -4.0703   -0.9918 C.1     1  LIG1       -0.1138
      9 H           0.9244   -4.9589   -1.2985 H       1  LIG1        0.1232
     10 O           1.0724   -0.4637   -0.6707 O.3     1  LIG1       -0.5044
     11 H           1.5102    0.3125   -0.2816 H       1  LIG1        0.2922
     12 C          -0.8141    1.8516    0.2763 C.ar    1  LIG1        0.0490
     13 C           0.3321    2.5524    0.5894 C.ar    1  LIG1        0.0820
     14 C           0.1617    3.9772    0.5143 C.ar    1  LIG1        0.1481
     15 C          -1.1125    4.3538    0.1601 C.ar    1  LIG1        0.0704
     16 S          -2.0990    2.9402   -0.1387 S.2     1  LIG1       -0.0820
     17 C           1.5548    1.9584    1.0029 C.1     1  LIG1       -0.0648
     18 C           2.5876    1.4295    1.3321 C.1     1  LIG1       -0.1138
     19 H           3.4938    0.9733    1.6602 H       1  LIG1        0.1232
     20 O           1.1942    4.7602    0.8612 O.3     1  LIG1       -0.5044
     21 H           1.1204    5.6355    0.4438 H       1  LIG1        0.2922
     22 C          -1.7034    5.6760    0.1044 C.ar    1  LIG1        0.0484
     23 C          -1.1372    6.8696   -0.2984 C.ar    1  LIG1        0.0814
     24 C          -2.0468    7.9766   -0.1811 C.ar    1  LIG1        0.1398
     25 C          -3.2719    7.6170    0.2809 C.ar    1  LIG1        0.0190
     26 S          -3.3434    5.9220    0.6209 S.2     1  LIG1       -0.0910
     27 H          -4.1362    8.2454    0.4382 H       1  LIG1        0.0731
     28 C           0.1769    7.0078   -0.8192 C.1     1  LIG1       -0.0648
     29 C           1.3035    7.1051   -1.2396 C.1     1  LIG1       -0.1138
     30 H           2.2841    7.1963   -1.6482 H       1  LIG1        0.1232
     31 O          -1.6229    9.2096   -0.5434 O.3     1  LIG1       -0.5050
     32 H          -2.3382    9.8451   -0.4242 H       1  LIG1        0.2922
@<TRIPOS>BOND
     1    30    29    1
     2     9     8    1
     3    29    28    3
     4     8     7    3
     5    28    23    1
     6    10    11    1
     7    10     3    1
     8     7     2    1
     9    31    32    1
    10    31    24    1
    11    23    24   ar
    12    23    22   ar
    13     2     3   ar
    14     2     1   ar
    15     3     4   ar
    16    24    25   ar
    17    16    15   ar
    18    16    12   ar
    19    22    15    1
    20    22    26   ar
    21    15    14   ar
    22     1     6    1
    23     1     5   ar
    24     4    12    1
    25     4     5   ar
    26    12    13   ar
    27    25    27    1
    28    25    26   ar
    29    21    20    1
    30    14    13   ar
    31    14    20    1
    32    13    17    1
    33    17    18    3
    34    18    19    1
