@<TRIPOS>MOLECULE
mol_data/opt/cam/geoms/mol2/5ef5ef-5ef-5ef-.out
 42 45 0 0 0
SMALL
GASTEIGER

@<TRIPOS>ATOM
      1 C          -2.1909   -1.7934   -0.2668 C.ar    1  LIG1       -0.0047
      2 C          -0.8843   -1.9103    0.1124 C.ar    1  LIG1        0.0737
      3 C          -0.2151   -0.6360    0.1403 C.ar    1  LIG1        0.1474
      4 C          -1.0351    0.4116   -0.2219 C.ar    1  LIG1        0.0698
      5 S          -2.6367   -0.1774   -0.6134 S.2     1  LIG1       -0.0911
      6 H          -2.9036   -2.5969   -0.3797 H       1  LIG1        0.0707
      7 C          -0.2440   -3.1380    0.4441 C.1     1  LIG1       -0.0655
      8 C           0.2878   -4.1808    0.7220 C.1     1  LIG1       -0.1138
      9 H           0.7653   -5.1005    0.9700 H       1  LIG1        0.1232
     10 O           1.0589   -0.5884    0.5548 O.3     1  LIG1       -0.5044
     11 H           1.5138    0.1908    0.1922 H       1  LIG1        0.2922
     12 C          -0.7677    1.8353   -0.2221 C.ar    1  LIG1        0.0490
     13 C           0.3954    2.5093   -0.5330 C.ar    1  LIG1        0.0820
     14 C           0.2815    3.9332   -0.3820 C.ar    1  LIG1        0.1481
     15 C          -0.9686    4.3377    0.0287 C.ar    1  LIG1        0.0704
     16 S          -1.9998    2.9463    0.2828 S.2     1  LIG1       -0.0820
     17 C           1.5831    1.8936   -1.0114 C.1     1  LIG1       -0.0648
     18 C           2.5860    1.3457   -1.3970 C.1     1  LIG1       -0.1138
     19 H           3.4651    0.8745   -1.7739 H       1  LIG1        0.1232
     20 O           1.3318    4.6930   -0.7218 O.3     1  LIG1       -0.5044
     21 H           1.3020    5.5522   -0.2659 H       1  LIG1        0.2922
     22 C          -1.5096    5.6727    0.1676 C.ar    1  LIG1        0.0491
     23 C          -0.8887    6.8322    0.5855 C.ar    1  LIG1        0.0820
     24 C          -1.7545    7.9782    0.5580 C.ar    1  LIG1        0.1481
     25 C          -3.0303    7.6853    0.1366 C.ar    1  LIG1        0.0704
     26 S          -3.1542    5.9915   -0.2838 S.2     1  LIG1       -0.0820
     27 C           0.4492    6.9083    1.0569 C.1     1  LIG1       -0.0648
     28 C           1.5938    6.9516    1.4355 C.1     1  LIG1       -0.1138
     29 H           2.5911    6.9952    1.8103 H       1  LIG1        0.1232
     30 O          -1.2738    9.1482    1.0043 O.3     1  LIG1       -0.5044
     31 H          -1.7657    9.8942    0.6202 H       1  LIG1        0.2922
     32 C          -4.2070    8.5304    0.0968 C.ar    1  LIG1        0.0484
     33 C          -4.3086    9.8713   -0.2180 C.ar    1  LIG1        0.0814
     34 C          -5.6569   10.3591   -0.1155 C.ar    1  LIG1        0.1398
     35 C          -6.5472    9.4009    0.2491 C.ar    1  LIG1        0.0190
     36 S          -5.7634    7.8813    0.5132 S.2     1  LIG1       -0.0910
     37 H          -7.6157    9.4964    0.3749 H       1  LIG1        0.0731
     38 C          -3.2277   10.6879   -0.6443 C.1     1  LIG1       -0.0648
     39 C          -2.2915   11.3684   -0.9845 C.1     1  LIG1       -0.1138
     40 H          -1.4785   11.9697   -1.3230 H       1  LIG1        0.1232
     41 O          -5.9026   11.6595   -0.3978 O.3     1  LIG1       -0.5050
     42 H          -6.8451   11.8388   -0.3010 H       1  LIG1        0.2922
@<TRIPOS>BOND
     1    19    18    1
     2    18    17    3
     3    40    39    1
     4    17    13    1
     5    39    38    3
     6    20    14    1
     7    20    21    1
     8    38    33    1
     9     5     1   ar
    10     5     4   ar
    11    13    14   ar
    12    13    12   ar
    13    41    42    1
    14    41    34    1
    15    14    15   ar
    16     6     1    1
    17    26    25   ar
    18    26    22   ar
    19     1     2   ar
    20    12     4    1
    21    12    16   ar
    22     4     3   ar
    23    33    34   ar
    24    33    32   ar
    25    34    35   ar
    26    15    22    1
    27    15    16   ar
    28    32    25    1
    29    32    36   ar
    30     2     3   ar
    31     2     7    1
    32    25    24   ar
    33     3    10    1
    34    22    23   ar
    35    11    10    1
    36    35    37    1
    37    35    36   ar
    38     7     8    3
    39    24    23   ar
    40    24    30    1
    41    23    27    1
    42    31    30    1
    43     8     9    1
    44    27    28    3
    45    28    29    1
