@<TRIPOS>MOLECULE
mol_data/opt/cam/geoms/mol2/5ef5ef-5ef-.out
 32 34 0 0 0
SMALL
GASTEIGER

@<TRIPOS>ATOM
      1 C          -2.1087   -1.8231   -0.2132 C.ar    1  LIG1       -0.0047
      2 C          -0.8198   -1.8756    0.2344 C.ar    1  LIG1        0.0737
      3 C          -0.1951   -0.5784    0.2326 C.ar    1  LIG1        0.1474
      4 C          -1.0296    0.4212   -0.2199 C.ar    1  LIG1        0.0698
      5 S          -2.5890   -0.2418   -0.6601 S.2     1  LIG1       -0.0911
      6 H          -2.7881   -2.6556   -0.3211 H       1  LIG1        0.0707
      7 C          -0.1569   -3.0629    0.6567 C.1     1  LIG1       -0.0655
      8 C           0.3942   -4.0721    1.0108 C.1     1  LIG1       -0.1138
      9 H           0.8884   -4.9615    1.3269 H       1  LIG1        0.1232
     10 O           1.0545   -0.4661    0.7056 O.3     1  LIG1       -0.5044
     11 H           1.5011    0.3099    0.3264 H       1  LIG1        0.2922
     12 C          -0.8096    1.8521   -0.2779 C.ar    1  LIG1        0.0490
     13 C           0.3435    2.5519   -0.5669 C.ar    1  LIG1        0.0820
     14 C           0.1733    3.9768   -0.4942 C.ar    1  LIG1        0.1481
     15 C          -1.1075    4.3546   -0.1661 C.ar    1  LIG1        0.0704
     16 S          -2.1016    2.9419    0.1111 S.2     1  LIG1       -0.0820
     17 C           1.5739    1.9568   -0.9554 C.1     1  LIG1       -0.0648
     18 C           2.6128    1.4272   -1.2636 C.1     1  LIG1       -0.1138
     19 H           3.5251    0.9703   -1.5732 H       1  LIG1        0.1232
     20 O           1.2136    4.7588   -0.8191 O.3     1  LIG1       -0.5044
     21 H           1.1322    5.6339   -0.4027 H       1  LIG1        0.2922
     22 C          -1.6979    5.6775   -0.1215 C.ar    1  LIG1        0.0484
     23 C          -1.1388    6.8701    0.2937 C.ar    1  LIG1        0.0814
     24 C          -2.0446    7.9782    0.1587 C.ar    1  LIG1        0.1398
     25 C          -3.2604    7.6203   -0.3285 C.ar    1  LIG1        0.0190
     26 S          -3.3268    5.9257   -0.6713 S.2     1  LIG1       -0.0910
     27 H          -4.1206    8.2498   -0.5030 H       1  LIG1        0.0731
     28 C           0.1645    7.0065    0.8415 C.1     1  LIG1       -0.0648
     29 C           1.2823    7.1023    1.2849 C.1     1  LIG1       -0.1138
     30 H           2.2544    7.1923    1.7137 H       1  LIG1        0.1232
     31 O          -1.6268    9.2105    0.5306 O.3     1  LIG1       -0.5050
     32 H          -2.3388    9.8469    0.3973 H       1  LIG1        0.2922
@<TRIPOS>BOND
     1    19    18    1
     2    18    17    3
     3    17    13    1
     4    20    14    1
     5    20    21    1
     6    26    25   ar
     7    26    22   ar
     8     5     4   ar
     9     5     1   ar
    10    13    14   ar
    11    13    12   ar
    12    27    25    1
    13    14    15   ar
    14    25    24   ar
    15     6     1    1
    16    12     4    1
    17    12    16   ar
    18     4     3   ar
    19     1     2   ar
    20    15    22    1
    21    15    16   ar
    22    22    23   ar
    23    24    23   ar
    24    24    31    1
    25     3     2   ar
    26     3    10    1
    27     2     7    1
    28    23    28    1
    29    11    10    1
    30    32    31    1
    31     7     8    3
    32    28    29    3
    33     8     9    1
    34    29    30    1
