@<TRIPOS>MOLECULE
mol_data/opt/cam/geoms/mol2/5ef5ef5ef5ef-.out
 42 45 0 0 0
SMALL
GASTEIGER

@<TRIPOS>ATOM
      1 C          -2.1860   -1.7927    0.2809 C.ar    1  LIG1       -0.0047
      2 C          -0.8785   -1.9102   -0.0947 C.ar    1  LIG1        0.0737
      3 C          -0.2102   -0.6355   -0.1269 C.ar    1  LIG1        0.1474
      4 C          -1.0319    0.4131    0.2285 C.ar    1  LIG1        0.0698
      5 S          -2.6340   -0.1755    0.6190 S.2     1  LIG1       -0.0911
      6 H          -2.8983   -2.5963    0.3958 H       1  LIG1        0.0707
      7 C          -0.2363   -3.1389   -0.4192 C.1     1  LIG1       -0.0655
      8 C           0.2970   -4.1826   -0.6911 C.1     1  LIG1       -0.1138
      9 H           0.7758   -5.1030   -0.9336 H       1  LIG1        0.1232
     10 O           1.0647   -0.5887   -0.5387 O.3     1  LIG1       -0.5044
     11 H           1.5181    0.1924   -0.1786 H       1  LIG1        0.2922
     12 C          -0.7657    1.8369    0.2226 C.ar    1  LIG1        0.0490
     13 C           0.3960    2.5134    0.5331 C.ar    1  LIG1        0.0820
     14 C           0.2813    3.9365    0.3753 C.ar    1  LIG1        0.1481
     15 C          -0.9681    4.3380   -0.0402 C.ar    1  LIG1        0.0704
     16 S          -1.9975    2.9445   -0.2903 S.2     1  LIG1       -0.0820
     17 C           1.5832    1.9009    1.0172 C.1     1  LIG1       -0.0648
     18 C           2.5856    1.3557    1.4077 C.1     1  LIG1       -0.1138
     19 H           3.4642    0.8868    1.7887 H       1  LIG1        0.1232
     20 O           1.3302    4.6987    0.7140 O.3     1  LIG1       -0.5044
     21 H           1.3007    5.5558    0.2540 H       1  LIG1        0.2922
     22 C          -1.5099    5.6718   -0.1865 C.ar    1  LIG1        0.0491
     23 C          -0.8890    6.8299   -0.6084 C.ar    1  LIG1        0.0820
     24 C          -1.7558    7.9754   -0.5882 C.ar    1  LIG1        0.1481
     25 C          -3.0323    7.6833   -0.1684 C.ar    1  LIG1        0.0704
     26 S          -3.1558    5.9913    0.2595 S.2     1  LIG1       -0.0820
     27 C           0.4500    6.9050   -1.0770 C.1     1  LIG1       -0.0648
     28 C           1.5954    6.9474   -1.4532 C.1     1  LIG1       -0.1138
     29 H           2.5935    6.9902   -1.8258 H       1  LIG1        0.1232
     30 O          -1.2751    9.1436   -1.0389 O.3     1  LIG1       -0.5044
     31 H          -1.7684    9.8910   -0.6594 H       1  LIG1        0.2922
     32 C          -4.2099    8.5275   -0.1353 C.ar    1  LIG1        0.0484
     33 C          -4.3133    9.8698    0.1730 C.ar    1  LIG1        0.0814
     34 C          -5.6618   10.3560    0.0651 C.ar    1  LIG1        0.1398
     35 C          -6.5504    9.3954   -0.2972 C.ar    1  LIG1        0.0190
     36 S          -5.7647    7.8753   -0.5523 S.2     1  LIG1       -0.0910
     37 H          -7.6187    9.4895   -0.4259 H       1  LIG1        0.0731
     38 C          -3.2340   10.6893    0.5980 C.1     1  LIG1       -0.0648
     39 C          -2.2992   11.3722    0.9372 C.1     1  LIG1       -0.1138
     40 H          -1.4876   11.9760    1.2747 H       1  LIG1        0.1232
     41 O          -5.9092   11.6575    0.3408 O.3     1  LIG1       -0.5050
     42 H          -6.8516   11.8355    0.2409 H       1  LIG1        0.2922
@<TRIPOS>BOND
     1    29    28    1
     2    28    27    3
     3    27    23    1
     4    30    31    1
     5    30    24    1
     6     9     8    1
     7     8     7    3
     8    23    24   ar
     9    23    22   ar
    10    24    25   ar
    11    36    35   ar
    12    36    32   ar
    13    10    11    1
    14    10     3    1
    15    37    35    1
    16     7     2    1
    17    35    34   ar
    18    16    15   ar
    19    16    12   ar
    20    22    15    1
    21    22    26   ar
    22    25    32    1
    23    25    26   ar
    24    32    33   ar
    25     3     2   ar
    26     3     4   ar
    27     2     1   ar
    28    15    14   ar
    29    34    33   ar
    30    34    41    1
    31    33    38    1
    32    12     4    1
    33    12    13   ar
    34     4     5   ar
    35    42    41    1
    36    21    20    1
    37     1     6    1
    38     1     5   ar
    39    14    13   ar
    40    14    20    1
    41    13    17    1
    42    38    39    3
    43    39    40    1
    44    17    18    3
    45    18    19    1
