@<TRIPOS>MOLECULE
mol_data/opt/cam/geoms/mol2/5ef5ef5ef-5ef.out
 42 45 0 0 0
SMALL
GASTEIGER

@<TRIPOS>ATOM
      1 C          -1.6887   -1.5779    1.7313 C.ar    1  LIG1       -0.0047
      2 C          -0.9320   -1.8334    0.6239 C.ar    1  LIG1        0.0737
      3 C          -0.4147   -0.6262    0.0340 C.ar    1  LIG1        0.1474
      4 C          -0.7933    0.5113    0.7144 C.ar    1  LIG1        0.0698
      5 S          -1.7804    0.0920    2.0981 S.2     1  LIG1       -0.0911
      6 H          -2.1762   -2.3069    2.3615 H       1  LIG1        0.0707
      7 C          -0.6745   -3.1325    0.1011 C.1     1  LIG1       -0.0655
      8 C          -0.4627   -4.2348   -0.3322 C.1     1  LIG1       -0.1138
      9 H          -0.2717   -5.2076   -0.7228 H       1  LIG1        0.1232
     10 O           0.2970   -0.7187   -1.0986 O.3     1  LIG1       -0.5044
     11 H           0.8897    0.0451   -1.2001 H       1  LIG1        0.2922
     12 C          -0.5649    1.9026    0.3793 C.ar    1  LIG1        0.0490
     13 C           0.5463    2.4970   -0.1818 C.ar    1  LIG1        0.0820
     14 C           0.3933    3.9121   -0.3764 C.ar    1  LIG1        0.1481
     15 C          -0.8208    4.3921    0.0577 C.ar    1  LIG1        0.0704
     16 S          -1.7963    3.0829    0.6909 S.2     1  LIG1       -0.0820
     17 C           1.7522    1.8170   -0.5011 C.1     1  LIG1       -0.0648
     18 C           2.7584    1.2134   -0.7804 C.1     1  LIG1       -0.1138
     19 H           3.6644    0.6957   -0.9996 H       1  LIG1        0.1232
     20 O           1.3889    4.5812   -0.9748 O.3     1  LIG1       -0.5044
     21 H           1.3796    5.5203   -0.7208 H       1  LIG1        0.2922
     22 C          -1.3744    5.7265   -0.0398 C.ar    1  LIG1        0.0491
     23 C          -0.7422    6.9477    0.0767 C.ar    1  LIG1        0.0820
     24 C          -1.6311    8.0629   -0.0970 C.ar    1  LIG1        0.1481
     25 C          -2.9350    7.6889   -0.3204 C.ar    1  LIG1        0.0704
     26 S          -3.0687    5.9440   -0.3391 S.2     1  LIG1       -0.0820
     27 C           0.6334    7.1202    0.3863 C.1     1  LIG1       -0.0648
     28 C           1.8081    7.2405    0.6328 C.1     1  LIG1       -0.1138
     29 H           2.8371    7.3595    0.8858 H       1  LIG1        0.1232
     30 O          -1.1134    9.3003   -0.0650 O.3     1  LIG1       -0.5044
     31 H          -1.7834    9.9492    0.2106 H       1  LIG1        0.2922
     32 C          -4.0947    8.5081   -0.6129 C.ar    1  LIG1        0.0484
     33 C          -4.4349    9.7498   -0.1131 C.ar    1  LIG1        0.0814
     34 C          -5.6609   10.2503   -0.6722 C.ar    1  LIG1        0.1398
     35 C          -6.2348    9.3947   -1.5568 C.ar    1  LIG1        0.0190
     36 S          -5.2787    7.9681   -1.7629 S.2     1  LIG1       -0.0910
     37 H          -7.1622    9.5168   -2.0969 H       1  LIG1        0.0731
     38 C          -3.7005   10.4534    0.8783 C.1     1  LIG1       -0.0648
     39 C          -3.0503   11.0433    1.7056 C.1     1  LIG1       -0.1138
     40 H          -2.5035   11.5561    2.4640 H       1  LIG1        0.1232
     41 O          -6.1153   11.4593   -0.2688 O.3     1  LIG1       -0.5050
     42 H          -6.9468   11.6576   -0.7150 H       1  LIG1        0.2922
@<TRIPOS>BOND
     1    37    35    1
     2    36    35   ar
     3    36    32   ar
     4    35    34   ar
     5    11    10    1
     6    10     3    1
     7    19    18    1
     8    20    21    1
     9    20    14    1
    10    18    17    3
    11     9     8    1
    12    42    41    1
    13    34    41    1
    14    34    33   ar
    15    32    25    1
    16    32    33   ar
    17    17    13    1
    18    14    13   ar
    19    14    15   ar
    20    26    25   ar
    21    26    22   ar
    22     8     7    3
    23    25    24   ar
    24    13    12   ar
    25    33    38    1
    26    24    30    1
    27    24    23   ar
    28    30    31    1
    29    22    15    1
    30    22    23   ar
    31     3     2   ar
    32     3     4   ar
    33    15    16   ar
    34    23    27    1
    35     7     2    1
    36    12    16   ar
    37    12     4    1
    38    27    28    3
    39     2     1   ar
    40    28    29    1
    41     4     5   ar
    42    38    39    3
    43    39    40    1
    44     1     5   ar
    45     1     6    1
