@<TRIPOS>MOLECULE
mol_data/opt/cam/geoms/mol2/5ef5ef-.out
 22 23 0 0 0
SMALL
GASTEIGER

@<TRIPOS>ATOM
      1 C          -2.0085   -1.7702    0.6228 C.ar    1  LIG1       -0.0047
      2 C          -0.7685   -1.8313    0.0548 C.ar    1  LIG1        0.0737
      3 C          -0.2244   -0.5216   -0.1945 C.ar    1  LIG1        0.1474
      4 C          -1.0678    0.4955    0.1939 C.ar    1  LIG1        0.0698
      5 S          -2.5339   -0.1619    0.8871 S.2     1  LIG1       -0.0911
      6 H          -2.6246   -2.6063    0.9186 H       1  LIG1        0.0707
      7 C          -0.0811   -3.0378   -0.2604 C.1     1  LIG1       -0.0655
      8 C           0.4912   -4.0634   -0.5221 C.1     1  LIG1       -0.1138
      9 H           1.0037   -4.9673   -0.7577 H       1  LIG1        0.1232
     10 O           0.9671   -0.4240   -0.8046 O.3     1  LIG1       -0.5044
     11 H           1.4017    0.4159   -0.5813 H       1  LIG1        0.2922
     12 C          -0.9234    1.9289    0.0215 C.ar    1  LIG1        0.0484
     13 C           0.2113    2.7096    0.1152 C.ar    1  LIG1        0.0814
     14 C          -0.0525    4.0976   -0.1507 C.ar    1  LIG1        0.1398
     15 C          -1.3586    4.3528   -0.4205 C.ar    1  LIG1        0.0190
     16 S          -2.3006    2.9017   -0.3937 S.2     1  LIG1       -0.0910
     17 H          -1.8222    5.3055   -0.6307 H       1  LIG1        0.0731
     18 C           1.4980    2.2278    0.4759 C.1     1  LIG1       -0.0648
     19 C           2.5857    1.7925    0.7626 C.1     1  LIG1       -0.1138
     20 H           3.5433    1.4220    1.0498 H       1  LIG1        0.1232
     21 O           0.9725    4.9795   -0.0912 O.3     1  LIG1       -0.5050
     22 H           0.6463    5.8668   -0.2806 H       1  LIG1        0.2922
@<TRIPOS>BOND
     1    10    11    1
     2    10     3    1
     3     9     8    1
     4    17    15    1
     5     8     7    3
     6    15    16   ar
     7    15    14   ar
     8    16    12   ar
     9    22    21    1
    10     7     2    1
    11     3     2   ar
    12     3     4   ar
    13    14    21    1
    14    14    13   ar
    15    12    13   ar
    16    12     4    1
    17     2     1   ar
    18    13    18    1
    19     4     5   ar
    20    18    19    3
    21     1     5   ar
    22     1     6    1
    23    19    20    1
