@<TRIPOS>MOLECULE
mol_data/opt/cam/geoms/mol2/5ef5ef-5ef5ef.out
 42 45 0 0 0
SMALL
GASTEIGER

@<TRIPOS>ATOM
      1 C          -1.7985   -1.7729   -1.1532 C.ar    1  LIG1       -0.0047
      2 C          -0.9351   -1.8859   -0.1016 C.ar    1  LIG1        0.0737
      3 C          -0.3862   -0.6121    0.2848 C.ar    1  LIG1        0.1474
      4 C          -0.8490    0.4310   -0.4885 C.ar    1  LIG1        0.0698
      5 S          -1.9558   -0.1610   -1.7088 S.2     1  LIG1       -0.0911
      6 H          -2.3303   -2.5767   -1.6403 H       1  LIG1        0.0707
      7 C          -0.6046   -3.1096    0.5471 C.1     1  LIG1       -0.0655
      8 C          -0.3315   -4.1490    1.0880 C.1     1  LIG1       -0.1138
      9 H          -0.0853   -5.0655    1.5724 H       1  LIG1        0.1232
     10 O           0.4317   -0.5606    1.3460 O.3     1  LIG1       -0.5044
     11 H           1.0172    0.2137    1.2963 H       1  LIG1        0.2922
     12 C          -0.6149    1.8543   -0.3491 C.ar    1  LIG1        0.0490
     13 C           0.5344    2.5198    0.0247 C.ar    1  LIG1        0.0820
     14 C           0.3757    3.9470    0.0588 C.ar    1  LIG1        0.1481
     15 C          -0.8828    4.3629   -0.3112 C.ar    1  LIG1        0.0704
     16 S          -1.8909    2.9796   -0.6819 S.2     1  LIG1       -0.0820
     17 C           1.7771    1.8914    0.3063 C.1     1  LIG1       -0.0648
     18 C           2.8158    1.3327    0.5585 C.1     1  LIG1       -0.1138
     19 H           3.7473    0.8506    0.7503 H       1  LIG1        0.1232
     20 O           1.4118    4.6912    0.4704 O.3     1  LIG1       -0.5044
     21 H           1.3626    5.5906    0.1023 H       1  LIG1        0.2922
     22 C          -1.4499    5.6945   -0.3295 C.ar    1  LIG1        0.0491
     23 C          -0.8516    6.8992   -0.6382 C.ar    1  LIG1        0.0820
     24 C          -1.7402    8.0208   -0.5101 C.ar    1  LIG1        0.1481
     25 C          -3.0105    7.6657   -0.1212 C.ar    1  LIG1        0.0704
     26 S          -3.1004    5.9392    0.1454 S.2     1  LIG1       -0.0820
     27 C           0.4850    7.0446   -1.0969 C.1     1  LIG1       -0.0648
     28 C           1.6288    7.1454   -1.4667 C.1     1  LIG1       -0.1138
     29 H           2.6257    7.2426   -1.8323 H       1  LIG1        0.1232
     30 O          -1.2827    9.2358   -0.8474 O.3     1  LIG1       -0.5044
     31 H          -1.7890    9.9339   -0.3977 H       1  LIG1        0.2922
     32 C          -4.2038    8.4804   -0.0079 C.ar    1  LIG1        0.0484
     33 C          -4.3320    9.7845    0.4284 C.ar    1  LIG1        0.0814
     34 C          -5.6896   10.2531    0.3678 C.ar    1  LIG1        0.1398
     35 C          -6.5604    9.3152   -0.0859 C.ar    1  LIG1        0.0190
     36 S          -5.7465    7.8421   -0.4865 S.2     1  LIG1       -0.0910
     37 H          -7.6305    9.4010   -0.2052 H       1  LIG1        0.0731
     38 C          -3.2676   10.5792    0.9308 C.1     1  LIG1       -0.0648
     39 C          -2.3450   11.2434    1.3346 C.1     1  LIG1       -0.1138
     40 H          -1.5443   11.8267    1.7290 H       1  LIG1        0.1232
     41 O          -5.9613   11.5169    0.7678 O.3     1  LIG1       -0.5050
     42 H          -6.9072   11.6854    0.6863 H       1  LIG1        0.2922
@<TRIPOS>BOND
     1    29    28    1
     2     5     1   ar
     3     5     4   ar
     4     6     1    1
     5    28    27    3
     6     1     2   ar
     7    27    23    1
     8    30    24    1
     9    30    31    1
    10    16    12   ar
    11    16    15   ar
    12    23    24   ar
    13    23    22   ar
    14    24    25   ar
    15     4    12    1
    16     4     3   ar
    17    36    35   ar
    18    36    32   ar
    19    12    13   ar
    20    22    15    1
    21    22    26   ar
    22    15    14   ar
    23    37    35    1
    24    25    32    1
    25    25    26   ar
    26     2     3   ar
    27     2     7    1
    28    35    34   ar
    29    32    33   ar
    30    13    14   ar
    31    13    17    1
    32    14    20    1
    33    21    20    1
    34     3    10    1
    35    17    18    3
    36    34    33   ar
    37    34    41    1
    38    33    38    1
    39     7     8    3
    40    18    19    1
    41    42    41    1
    42    38    39    3
    43     8     9    1
    44    11    10    1
    45    39    40    1
