@<TRIPOS>MOLECULE
mol_data/opt/cam/geoms/mol2/5eg.out
 12 12 0 0 0
SMALL
GASTEIGER

@<TRIPOS>ATOM
      1 C          -2.1475   -1.7172    0.0001 C.ar    1  LIG1       -0.0078
      2 C          -0.7800   -1.6921   -0.0002 C.ar    1  LIG1        0.0448
      3 C          -0.2674   -0.3437   -0.0002 C.ar    1  LIG1        0.0272
      4 C          -1.2593    0.5861    0.0002 C.ar    1  LIG1       -0.0099
      5 S          -2.8252   -0.1431    0.0005 S.2     1  LIG1       -0.1027
      6 H          -2.7774   -2.5942    0.0002 H       1  LIG1        0.0706
      7 H          -1.1624    1.6618    0.0003 H       1  LIG1        0.0705
      8 C           0.0453   -2.8534   -0.0006 C.1     1  LIG1       -0.0680
      9 C           0.7594   -3.8222   -0.0009 C.1     1  LIG1       -0.1139
     10 H           1.3902   -4.6812   -0.0012 H       1  LIG1        0.1232
     11 S           1.4777   -0.0495   -0.0006 S.3     1  LIG1       -0.1409
     12 H           1.3919    1.2906   -0.0004 H       1  LIG1        0.1072
@<TRIPOS>BOND
     1    10     9    1
     2     9     8    3
     3     8     2    1
     4    11    12    1
     5    11     3    1
     6     2     3   ar
     7     2     1   ar
     8     3     4   ar
     9     1     6    1
    10     1     5   ar
    11     4     7    1
    12     4     5   ar
