@<TRIPOS>MOLECULE
mol_data/opt/cam/geoms/mol2/5eg5eg-5eg-5eg-.out
 42 45 0 0 0
SMALL
GASTEIGER

@<TRIPOS>ATOM
      1 C          -1.9149   -1.9441   -0.3531 C.ar    1  LIG1       -0.0072
      2 C          -0.6997   -1.9145    0.2720 C.ar    1  LIG1        0.0454
      3 C          -0.1654   -0.5785    0.3618 C.ar    1  LIG1        0.0355
      4 C          -0.9904    0.3560   -0.2076 C.ar    1  LIG1        0.0415
      5 S          -2.4317   -0.3917   -0.8493 S.2     1  LIG1       -0.0937
      6 H          -2.5198   -2.8183   -0.5430 H       1  LIG1        0.0706
      7 C          -0.0388   -3.0663    0.7881 C.1     1  LIG1       -0.0680
      8 C           0.5296   -4.0311    1.2290 C.1     1  LIG1       -0.1139
      9 H           1.0332   -4.8851    1.6200 H       1  LIG1        0.1232
     10 S           1.3641   -0.3104    1.1952 S.3     1  LIG1       -0.1403
     11 H           1.3984    1.0170    1.0001 H       1  LIG1        0.1072
     12 C          -0.8190    1.8015   -0.3061 C.ar    1  LIG1        0.0440
     13 C           0.1818    2.5008   -0.9444 C.ar    1  LIG1        0.0537
     14 C           0.0216    3.9277   -0.8414 C.ar    1  LIG1        0.0361
     15 C          -1.0962    4.2837   -0.1334 C.ar    1  LIG1        0.0421
     16 S          -1.9583    2.8763    0.4243 S.2     1  LIG1       -0.0848
     17 C           1.2405    1.8904   -1.6739 C.1     1  LIG1       -0.0674
     18 C           2.1459    1.3922   -2.2906 C.1     1  LIG1       -0.1138
     19 H           2.9434    0.9422   -2.8362 H       1  LIG1        0.1232
     20 S           1.1713    4.9866   -1.6558 S.3     1  LIG1       -0.1403
     21 H           0.5970    6.1362   -1.2689 H       1  LIG1        0.1072
     22 C          -1.6160    5.6144    0.1625 C.ar    1  LIG1        0.0440
     23 C          -1.0116    6.6263    0.8762 C.ar    1  LIG1        0.0537
     24 C          -1.8317    7.8048    0.9792 C.ar    1  LIG1        0.0361
     25 C          -3.0405    7.6640    0.3501 C.ar    1  LIG1        0.0421
     26 S          -3.1832    6.0922   -0.3868 S.2     1  LIG1       -0.0848
     27 C           0.2660    6.5144    1.4933 C.1     1  LIG1       -0.0674
     28 C           1.3467    6.4412    2.0178 C.1     1  LIG1       -0.1138
     29 H           2.3036    6.3691    2.4820 H       1  LIG1        0.1232
     30 S          -1.2509    9.1842    1.9103 S.3     1  LIG1       -0.1403
     31 H          -2.3250    9.9585    1.6909 H       1  LIG1        0.1072
     32 C          -4.1453    8.6126    0.2532 C.ar    1  LIG1        0.0434
     33 C          -4.1493    9.8586   -0.3368 C.ar    1  LIG1        0.0531
     34 C          -5.4317   10.5074   -0.2449 C.ar    1  LIG1        0.0278
     35 C          -6.3569    9.7397    0.3899 C.ar    1  LIG1       -0.0093
     36 S          -5.7029    8.2317    0.9071 S.2     1  LIG1       -0.0937
     37 H          -7.3928    9.9758    0.5852 H       1  LIG1        0.0705
     38 C          -3.0292   10.4379   -0.9963 C.1     1  LIG1       -0.0674
     39 C          -2.0950   10.9519   -1.5545 C.1     1  LIG1       -0.1138
     40 H          -1.2633   11.3996   -2.0487 H       1  LIG1        0.1232
     41 S          -5.6661   12.1203   -0.9335 S.3     1  LIG1       -0.1409
     42 H          -6.9578   12.2308   -0.5836 H       1  LIG1        0.1072
@<TRIPOS>BOND
     1    19    18    1
     2    18    17    3
     3    40    39    1
     4    17    13    1
     5    20    21    1
     6    20    14    1
     7    39    38    3
     8    38    33    1
     9    13    14   ar
    10    13    12   ar
    11    41    42    1
    12    41    34    1
    13     5     1   ar
    14     5     4   ar
    15    14    15   ar
    16     6     1    1
    17    26    22   ar
    18    26    25   ar
    19     1     2   ar
    20    33    34   ar
    21    33    32   ar
    22    12     4    1
    23    12    16   ar
    24    34    35   ar
    25     4     3   ar
    26    15    22    1
    27    15    16   ar
    28    22    23   ar
    29    32    25    1
    30    32    36   ar
    31     2     3   ar
    32     2     7    1
    33    25    24   ar
    34     3    10    1
    35    35    37    1
    36    35    36   ar
    37     7     8    3
    38    23    24   ar
    39    23    27    1
    40    24    30    1
    41    11    10    1
    42     8     9    1
    43    27    28    3
    44    31    30    1
    45    28    29    1
