@<TRIPOS>MOLECULE
mol_data/opt/cam/geoms/mol2/5eg5eg-5eg-.out
 32 34 0 0 0
SMALL
GASTEIGER

@<TRIPOS>ATOM
      1 C          -1.3439   -1.6033    1.7637 C.ar    1  LIG1       -0.0072
      2 C          -0.7724   -1.8505    0.5469 C.ar    1  LIG1        0.0454
      3 C          -0.4203   -0.6364   -0.1463 C.ar    1  LIG1        0.0355
      4 C          -0.7293    0.4877    0.5738 C.ar    1  LIG1        0.0415
      5 S          -1.4608    0.0683    2.1024 S.2     1  LIG1       -0.0937
      6 H          -1.6943   -2.3399    2.4716 H       1  LIG1        0.0706
      7 C          -0.5583   -3.1548    0.0151 C.1     1  LIG1       -0.0680
      8 C          -0.3730   -4.2510   -0.4457 C.1     1  LIG1       -0.1139
      9 H          -0.2088   -5.2214   -0.8545 H       1  LIG1        0.1232
     10 S           0.2706   -0.7313   -1.7650 S.3     1  LIG1       -0.1403
     11 H           0.4238    0.5917   -1.9298 H       1  LIG1        0.1072
     12 C          -0.5490    1.8912    0.2165 C.ar    1  LIG1        0.0440
     13 C           0.6267    2.5611   -0.0423 C.ar    1  LIG1        0.0537
     14 C           0.4207    3.9496   -0.3618 C.ar    1  LIG1        0.0361
     15 C          -0.8991    4.3129   -0.3149 C.ar    1  LIG1        0.0421
     16 S          -1.9075    2.9523    0.0930 S.2     1  LIG1       -0.0848
     17 C           1.9161    1.9614    0.0172 C.1     1  LIG1       -0.0674
     18 C           3.0139    1.4698    0.0557 C.1     1  LIG1       -0.1138
     19 H           3.9824    1.0262    0.0931 H       1  LIG1        0.1232
     20 S           1.8042    4.9551   -0.7890 S.3     1  LIG1       -0.1403
     21 H           1.1006    6.0835   -0.9716 H       1  LIG1        0.1072
     22 C          -1.5057    5.6153   -0.5730 C.ar    1  LIG1        0.0434
     23 C          -1.3114    6.7962    0.1112 C.ar    1  LIG1        0.0531
     24 C          -2.0908    7.8802   -0.4284 C.ar    1  LIG1        0.0278
     25 C          -2.8558    7.4938   -1.4838 C.ar    1  LIG1       -0.0093
     26 S          -2.6420    5.8265   -1.8626 S.2     1  LIG1       -0.0937
     27 H          -3.5374    8.0980   -2.0647 H       1  LIG1        0.0705
     28 C          -0.4637    6.9353    1.2458 C.1     1  LIG1       -0.0674
     29 C           0.2516    7.0782    2.2030 C.1     1  LIG1       -0.1138
     30 H           0.8870    7.1938    3.0511 H       1  LIG1        0.1232
     31 S          -1.9959    9.4926    0.2941 S.3     1  LIG1       -0.1409
     32 H          -2.8625   10.0717   -0.5526 H       1  LIG1        0.1072
@<TRIPOS>BOND
     1    27    25    1
     2    11    10    1
     3    26    25   ar
     4    26    22   ar
     5    10     3    1
     6    25    24   ar
     7    21    20    1
     8     9     8    1
     9    20    14    1
    10    22    15    1
    11    22    23   ar
    12    32    31    1
    13     8     7    3
    14    24    23   ar
    15    24    31    1
    16    14    15   ar
    17    14    13   ar
    18    15    16   ar
    19     3     2   ar
    20     3     4   ar
    21    13    17    1
    22    13    12   ar
    23     7     2    1
    24    17    18    3
    25    18    19    1
    26    16    12   ar
    27    23    28    1
    28    12     4    1
    29     2     1   ar
    30     4     5   ar
    31    28    29    3
    32     1     5   ar
    33     1     6    1
    34    29    30    1
