@<TRIPOS>MOLECULE
mol_data/opt/cam/geoms/mol2/5eg5eg5eg5eg.out
 42 45 0 0 0
SMALL
GASTEIGER

@<TRIPOS>ATOM
      1 C          -1.8738   -1.9402    0.4492 C.ar    1  LIG1       -0.0072
      2 C          -0.6687   -1.9137   -0.1952 C.ar    1  LIG1        0.0454
      3 C          -0.1430   -0.5765   -0.3132 C.ar    1  LIG1        0.0355
      4 C          -0.9639    0.3621    0.2552 C.ar    1  LIG1        0.0415
      5 S          -2.3911   -0.3833    0.9304 S.2     1  LIG1       -0.0937
      6 H          -2.4711   -2.8146    0.6615 H       1  LIG1        0.0706
      7 C          -0.0098   -3.0697   -0.7045 C.1     1  LIG1       -0.0680
      8 C           0.5567   -4.0381   -1.1399 C.1     1  LIG1       -0.1139
      9 H           1.0587   -4.8952   -1.5261 H       1  LIG1        0.1232
     10 S           1.3718   -0.3131   -1.1743 S.3     1  LIG1       -0.1403
     11 H           1.4022    1.0172   -0.9995 H       1  LIG1        0.1072
     12 C          -0.7988    1.8098    0.3295 C.ar    1  LIG1        0.0440
     13 C           0.2082    2.5236    0.9418 C.ar    1  LIG1        0.0537
     14 C           0.0388    3.9480    0.8201 C.ar    1  LIG1        0.0361
     15 C          -1.0918    4.2877    0.1245 C.ar    1  LIG1        0.0421
     16 S          -1.9549    2.8678   -0.3988 S.2     1  LIG1       -0.0848
     17 C           1.2813    1.9296    1.6635 C.1     1  LIG1       -0.0674
     18 C           2.1988    1.4451    2.2733 C.1     1  LIG1       -0.1138
     19 H           3.0070    1.0074    2.8130 H       1  LIG1        0.1232
     20 S           1.1954    5.0247    1.6007 S.3     1  LIG1       -0.1403
     21 H           0.6091    6.1655    1.2057 H       1  LIG1        0.1072
     22 C          -1.6232    5.6112   -0.1830 C.ar    1  LIG1        0.0440
     23 C          -1.0353    6.6154   -0.9209 C.ar    1  LIG1        0.0537
     24 C          -1.8632    7.7880   -1.0285 C.ar    1  LIG1        0.0361
     25 C          -3.0613    7.6505   -0.3786 C.ar    1  LIG1        0.0421
     26 S          -3.1841    6.0892    0.3838 S.2     1  LIG1       -0.0848
     27 C           0.2330    6.5008   -1.5562 C.1     1  LIG1       -0.0674
     28 C           1.3058    6.4252   -2.0965 C.1     1  LIG1       -0.1138
     29 H           2.2557    6.3511   -2.5745 H       1  LIG1        0.1232
     30 S          -1.3043    9.1563   -1.9889 S.3     1  LIG1       -0.1403
     31 H          -2.3789    9.9284   -1.7642 H       1  LIG1        0.1072
     32 C          -4.1695    8.5948   -0.2784 C.ar    1  LIG1        0.0434
     33 C          -4.1709    9.8495    0.2930 C.ar    1  LIG1        0.0531
     34 C          -5.4580   10.4904    0.2116 C.ar    1  LIG1        0.0278
     35 C          -6.3889    9.7085   -0.3971 C.ar    1  LIG1       -0.0093
     36 S          -5.7350    8.1963   -0.9022 S.2     1  LIG1       -0.0937
     37 H          -7.4289    9.9364   -0.5797 H       1  LIG1        0.0705
     38 C          -3.0437   10.4442    0.9262 C.1     1  LIG1       -0.0674
     39 C          -2.1036   10.9712    1.4620 C.1     1  LIG1       -0.1138
     40 H          -1.2667   11.4304    1.9364 H       1  LIG1        0.1232
     41 S          -5.6901   12.1121    0.8798 S.3     1  LIG1       -0.1409
     42 H          -6.9877   12.2108    0.5486 H       1  LIG1        0.1072
@<TRIPOS>BOND
     1    29    28    1
     2    28    27    3
     3    30    31    1
     4    30    24    1
     5    27    23    1
     6     9     8    1
     7    10    11    1
     8    10     3    1
     9     8     7    3
    10    24    23   ar
    11    24    25   ar
    12    23    22   ar
    13    36    35   ar
    14    36    32   ar
    15     7     2    1
    16    37    35    1
    17    16    15   ar
    18    16    12   ar
    19    35    34   ar
    20    25    32    1
    21    25    26   ar
    22     3     2   ar
    23     3     4   ar
    24    32    33   ar
    25     2     1   ar
    26    22    15    1
    27    22    26   ar
    28    15    14   ar
    29    34    33   ar
    30    34    41    1
    31     4    12    1
    32     4     5   ar
    33    33    38    1
    34    12    13   ar
    35     1     6    1
    36     1     5   ar
    37    42    41    1
    38    14    13   ar
    39    14    20    1
    40    38    39    3
    41    13    17    1
    42    21    20    1
    43    39    40    1
    44    17    18    3
    45    18    19    1
