@<TRIPOS>MOLECULE
mol_data/opt/cam/geoms/mol2/5eg5eg-.out
 22 23 0 0 0
SMALL
GASTEIGER

@<TRIPOS>ATOM
      1 C          -1.7995   -1.7589    1.0070 C.ar    1  LIG1       -0.0072
      2 C          -0.7458   -1.8694    0.1434 C.ar    1  LIG1        0.0454
      3 C          -0.2982   -0.5859   -0.3369 C.ar    1  LIG1        0.0355
      4 C          -1.0224    0.4527    0.1865 C.ar    1  LIG1        0.0414
      5 S          -2.2626   -0.1335    1.2661 S.2     1  LIG1       -0.0937
      6 H          -2.3147   -2.5697    1.5006 H       1  LIG1        0.0706
      7 C          -0.1615   -3.1081   -0.2493 C.1     1  LIG1       -0.0680
      8 C           0.3406   -4.1477   -0.5893 C.1     1  LIG1       -0.1139
      9 H           0.7854   -5.0679   -0.8910 H       1  LIG1        0.1232
     10 S           1.0121   -0.5064   -1.5132 S.3     1  LIG1       -0.1403
     11 H           1.0365    0.8325   -1.6029 H       1  LIG1        0.1072
     12 C          -0.8897    1.8853   -0.0589 C.ar    1  LIG1        0.0434
     13 C           0.1889    2.7007    0.2095 C.ar    1  LIG1        0.0531
     14 C          -0.0475    4.0703   -0.1679 C.ar    1  LIG1        0.0278
     15 C          -1.2879    4.2577   -0.6916 C.ar    1  LIG1       -0.0093
     16 S          -2.1890    2.7902   -0.7610 S.2     1  LIG1       -0.0937
     17 H          -1.7264    5.1803   -1.0431 H       1  LIG1        0.0705
     18 C           1.3954    2.2586    0.8212 C.1     1  LIG1       -0.0674
     19 C           2.4273    1.9075    1.3314 C.1     1  LIG1       -0.1138
     20 H           3.3368    1.5860    1.7848 H       1  LIG1        0.1232
     21 S           1.2057    5.2939    0.0846 S.3     1  LIG1       -0.1409
     22 H           0.4968    6.3189   -0.4155 H       1  LIG1        0.1072
@<TRIPOS>BOND
     1    11    10    1
     2    10     3    1
     3    17    15    1
     4     9     8    1
     5    16    15   ar
     6    16    12   ar
     7    15    14   ar
     8     8     7    3
     9    22    21    1
    10     3     2   ar
    11     3     4   ar
    12     7     2    1
    13    14    21    1
    14    14    13   ar
    15    12     4    1
    16    12    13   ar
    17     2     1   ar
    18     4     5   ar
    19    13    18    1
    20    18    19    3
    21     1     5   ar
    22     1     6    1
    23    19    20    1
