@<TRIPOS>MOLECULE
mol_data/opt/cam/geoms/mol2/5eg5eg5eg.out
 32 34 0 0 0
SMALL
GASTEIGER

@<TRIPOS>ATOM
      1 C          -1.8490   -1.9017    0.5605 C.ar    1  LIG1       -0.0072
      2 C          -0.7895   -1.8373   -0.3006 C.ar    1  LIG1        0.0454
      3 C          -0.2777   -0.4963   -0.4360 C.ar    1  LIG1        0.0355
      4 C          -0.9616    0.4066    0.3354 C.ar    1  LIG1        0.0415
      5 S          -2.2431   -0.3767    1.2254 S.2     1  LIG1       -0.0937
      6 H          -2.4065   -2.7865    0.8299 H       1  LIG1        0.0706
      7 C          -0.2563   -2.9606   -0.9961 C.1     1  LIG1       -0.0680
      8 C           0.2029   -3.9011   -1.5902 C.1     1  LIG1       -0.1139
      9 H           0.6096   -4.7336   -2.1169 H       1  LIG1        0.1232
     10 S           1.0481   -0.1827   -1.5538 S.3     1  LIG1       -0.1403
     11 H           1.1292    1.1341   -1.3078 H       1  LIG1        0.1072
     12 C          -0.7640    1.8463    0.4657 C.ar    1  LIG1        0.0440
     13 C           0.3519    2.5168    0.9170 C.ar    1  LIG1        0.0537
     14 C           0.1829    3.9464    0.9194 C.ar    1  LIG1        0.0361
     15 C          -1.0548    4.3332    0.4777 C.ar    1  LIG1        0.0421
     16 S          -2.0220    2.9522    0.0400 S.2     1  LIG1       -0.0848
     17 C           1.5345    1.8751    1.3808 C.1     1  LIG1       -0.0674
     18 C           2.5444    1.3503    1.7720 C.1     1  LIG1       -0.1138
     19 H           3.4345    0.8770    2.1182 H       1  LIG1        0.1232
     20 S           1.4839    4.9702    1.5249 S.3     1  LIG1       -0.1403
     21 H           0.8523    6.1346    1.3091 H       1  LIG1        0.1072
     22 C          -1.6132    5.6765    0.3609 C.ar    1  LIG1        0.0434
     23 C          -1.1707    6.7182   -0.4264 C.ar    1  LIG1        0.0531
     24 C          -1.9817    7.8997   -0.2838 C.ar    1  LIG1        0.0278
     25 C          -3.0123    7.7197    0.5843 C.ar    1  LIG1       -0.0093
     26 S          -3.0189    6.1353    1.2623 S.2     1  LIG1       -0.0937
     27 H          -3.7735    8.4323    0.8664 H       1  LIG1        0.0705
     28 C          -0.0585    6.6391   -1.3108 C.1     1  LIG1       -0.0674
     29 C           0.8817    6.5990   -2.0610 C.1     1  LIG1       -0.1138
     30 H           1.7150    6.5546   -2.7243 H       1  LIG1        0.1232
     31 S          -1.5950    9.3626   -1.2008 S.3     1  LIG1       -0.1409
     32 H          -2.6039   10.1007   -0.7104 H       1  LIG1        0.1072
@<TRIPOS>BOND
     1    30    29    1
     2     9     8    1
     3    29    28    3
     4     8     7    3
     5    10    11    1
     6    10     3    1
     7    28    23    1
     8    31    32    1
     9    31    24    1
    10     7     2    1
    11     3     2   ar
    12     3     4   ar
    13    23    24   ar
    14    23    22   ar
    15     2     1   ar
    16    24    25   ar
    17    16    12   ar
    18    16    15   ar
    19     4    12    1
    20     4     5   ar
    21    22    15    1
    22    22    26   ar
    23    12    13   ar
    24    15    14   ar
    25     1     6    1
    26     1     5   ar
    27    25    27    1
    28    25    26   ar
    29    13    14   ar
    30    13    17    1
    31    14    20    1
    32    21    20    1
    33    17    18    3
    34    18    19    1
