@<TRIPOS>MOLECULE
mol_data/opt/cam/geoms/mol2/5eg5eg5eg-.out
 32 34 0 0 0
SMALL
GASTEIGER

@<TRIPOS>ATOM
      1 C          -1.8314   -1.9103    0.5336 C.ar    1  LIG1       -0.0072
      2 C          -0.7517   -1.8391   -0.3014 C.ar    1  LIG1        0.0454
      3 C          -0.2453   -0.4949   -0.4243 C.ar    1  LIG1        0.0355
      4 C          -0.9534    0.4036    0.3302 C.ar    1  LIG1        0.0415
      5 S          -2.2514   -0.3879    1.1887 S.2     1  LIG1       -0.0937
      6 H          -2.3897   -2.7987    0.7893 H       1  LIG1        0.0706
      7 C          -0.1945   -2.9589   -0.9837 C.1     1  LIG1       -0.0680
      8 C           0.2850   -3.8964   -1.5663 C.1     1  LIG1       -0.1139
      9 H           0.7099   -4.7261   -2.0829 H       1  LIG1        0.1232
     10 S           1.1054   -0.1727   -1.5095 S.3     1  LIG1       -0.1403
     11 H           1.1721    1.1446   -1.2616 H       1  LIG1        0.1072
     12 C          -0.7682    1.8445    0.4653 C.ar    1  LIG1        0.0440
     13 C           0.3321    2.5220    0.9436 C.ar    1  LIG1        0.0537
     14 C           0.1540    3.9504    0.9420 C.ar    1  LIG1        0.0361
     15 C          -1.0750    4.3295    0.4702 C.ar    1  LIG1        0.0421
     16 S          -2.0224    2.9425    0.0091 S.2     1  LIG1       -0.0848
     17 C           1.5071    1.8877    1.4361 C.1     1  LIG1       -0.0674
     18 C           2.5104    1.3693    1.8518 C.1     1  LIG1       -0.1138
     19 H           3.3947    0.9015    2.2199 H       1  LIG1        0.1232
     20 S           1.4333    4.9824    1.5790 S.3     1  LIG1       -0.1403
     21 H           0.7998    6.1428    1.3480 H       1  LIG1        0.1072
     22 C          -1.6389    5.6693    0.3400 C.ar    1  LIG1        0.0434
     23 C          -1.1841    6.7139   -0.4363 C.ar    1  LIG1        0.0531
     24 C          -2.0058    7.8902   -0.3134 C.ar    1  LIG1        0.0278
     25 C          -3.0561    7.7034    0.5293 C.ar    1  LIG1       -0.0093
     26 S          -3.0691    6.1189    1.2069 S.2     1  LIG1       -0.0937
     27 H          -3.8285    8.4111    0.7928 H       1  LIG1        0.0705
     28 C          -0.0502    6.6420   -1.2933 C.1     1  LIG1       -0.0674
     29 C           0.9082    6.6081   -2.0205 C.1     1  LIG1       -0.1138
     30 H           1.7578    6.5692   -2.6631 H       1  LIG1        0.1232
     31 S          -1.6062    9.3557   -1.2207 S.3     1  LIG1       -0.1409
     32 H          -2.6315   10.0872   -0.7549 H       1  LIG1        0.1072
@<TRIPOS>BOND
     1    30    29    1
     2     9     8    1
     3    29    28    3
     4     8     7    3
     5    10    11    1
     6    10     3    1
     7    28    23    1
     8    31    32    1
     9    31    24    1
    10     7     2    1
    11    23    24   ar
    12    23    22   ar
    13     3     2   ar
    14     3     4   ar
    15    24    25   ar
    16     2     1   ar
    17    16    12   ar
    18    16    15   ar
    19     4    12    1
    20     4     5   ar
    21    22    15    1
    22    22    26   ar
    23    12    13   ar
    24    15    14   ar
    25    25    27    1
    26    25    26   ar
    27     1     6    1
    28     1     5   ar
    29    14    13   ar
    30    14    20    1
    31    13    17    1
    32    21    20    1
    33    17    18    3
    34    18    19    1
