@<TRIPOS>MOLECULE
mol_data/opt/cam/geoms/mol2/5eg5eg-5eg5eg-.out
 42 45 0 0 0
SMALL
GASTEIGER

@<TRIPOS>ATOM
      1 C          -0.7547   -1.2954    2.5036 C.ar    1  LIG1       -0.0072
      2 C          -0.7975   -1.6676    1.1891 C.ar    1  LIG1        0.0454
      3 C          -0.6692   -0.5406    0.2993 C.ar    1  LIG1        0.0355
      4 C          -0.5247    0.6448    0.9713 C.ar    1  LIG1        0.0415
      5 S          -0.5527    0.3910    2.6983 S.2     1  LIG1       -0.0937
      6 H          -0.8296   -1.9489    3.3602 H       1  LIG1        0.0706
      7 C          -0.9614   -3.0111    0.7442 C.1     1  LIG1       -0.0680
      8 C          -1.1004   -4.1416    0.3554 C.1     1  LIG1       -0.1139
      9 H          -1.2236   -5.1424    0.0104 H       1  LIG1        0.1232
     10 S          -0.7658   -0.7957   -1.4420 S.3     1  LIG1       -0.1403
     11 H          -0.5737    0.4880   -1.7828 H       1  LIG1        0.1072
     12 C          -0.3840    1.9964    0.4389 C.ar    1  LIG1        0.0440
     13 C           0.6194    2.4971   -0.3615 C.ar    1  LIG1        0.0537
     14 C           0.4314    3.8856   -0.6920 C.ar    1  LIG1        0.0361
     15 C          -0.6923    4.4179   -0.1171 C.ar    1  LIG1        0.0421
     16 S          -1.5494    3.2173    0.8099 S.2     1  LIG1       -0.0848
     17 C           1.7400    1.7393   -0.8034 C.1     1  LIG1       -0.0674
     18 C           2.6904    1.1118   -1.1923 C.1     1  LIG1       -0.1138
     19 H           3.5293    0.5485   -1.5317 H       1  LIG1        0.1232
     20 S           1.5790    4.6806   -1.7681 S.3     1  LIG1       -0.1403
     21 H           0.9876    5.8848   -1.7341 H       1  LIG1        0.1072
     22 C          -1.2216    5.7749   -0.2121 C.ar    1  LIG1        0.0440
     23 C          -0.6296    6.9497    0.1973 C.ar    1  LIG1        0.0537
     24 C          -1.4509    8.1055   -0.0512 C.ar    1  LIG1        0.0361
     25 C          -2.6561    7.7854   -0.6183 C.ar    1  LIG1        0.0421
     26 S          -2.7884    6.0684   -0.8794 S.2     1  LIG1       -0.0848
     27 C           0.6474    7.0243    0.8209 C.1     1  LIG1       -0.0674
     28 C           1.7284    7.1066    1.3433 C.1     1  LIG1       -0.1138
     29 H           2.6864    7.1706    1.8065 H       1  LIG1        0.1232
     30 S          -0.8328    9.7084    0.3429 S.3     1  LIG1       -0.1403
     31 H          -1.9267   10.3770   -0.0545 H       1  LIG1        0.1072
     32 C          -3.7502    8.6668   -1.0147 C.ar    1  LIG1        0.0434
     33 C          -4.5121    9.4904   -0.2137 C.ar    1  LIG1        0.0531
     34 C          -5.5129   10.2103   -0.9580 C.ar    1  LIG1        0.0278
     35 C          -5.4922    9.9063   -2.2831 C.ar    1  LIG1       -0.0093
     36 S          -4.2605    8.7640   -2.6666 S.2     1  LIG1       -0.0937
     37 H          -6.1347   10.2913   -3.0615 H       1  LIG1        0.0705
     38 C          -4.3594    9.6015    1.1967 C.1     1  LIG1       -0.0674
     39 C          -4.2447    9.7162    2.3892 C.1     1  LIG1       -0.1138
     40 H          -4.1363    9.8095    3.4456 H       1  LIG1        0.1232
     41 S          -6.6052   11.3298   -0.1312 S.3     1  LIG1       -0.1409
     42 H          -7.2880   11.6894   -1.2301 H       1  LIG1        0.1072
@<TRIPOS>BOND
     1    37    35    1
     2    36    35   ar
     3    36    32   ar
     4    35    34   ar
     5    11    10    1
     6    20    21    1
     7    20    14    1
     8    19    18    1
     9    10     3    1
    10    42    41    1
    11    18    17    3
    12    32    25    1
    13    32    33   ar
    14    34    33   ar
    15    34    41    1
    16    26    25   ar
    17    26    22   ar
    18    17    13    1
    19    14    13   ar
    20    14    15   ar
    21    25    24   ar
    22    13    12   ar
    23    33    38    1
    24    22    15    1
    25    22    23   ar
    26    15    16   ar
    27    31    30    1
    28    24    23   ar
    29    24    30    1
    30     9     8    1
    31    23    27    1
    32     3     4   ar
    33     3     2   ar
    34     8     7    3
    35    12    16   ar
    36    12     4    1
    37     7     2    1
    38    27    28    3
    39     4     5   ar
    40     2     1   ar
    41    38    39    3
    42    28    29    1
    43    39    40    1
    44     1     5   ar
    45     1     6    1
