@<TRIPOS>MOLECULE
mol_data/opt/cam/geoms/mol2/5eg5eg.out
 22 23 0 0 0
SMALL
GASTEIGER

@<TRIPOS>ATOM
      1 C          -1.8086   -1.7469    1.0335 C.ar    1  LIG1       -0.0072
      2 C          -0.7469   -1.8676    0.1810 C.ar    1  LIG1        0.0454
      3 C          -0.2951   -0.5899   -0.3106 C.ar    1  LIG1        0.0355
      4 C          -1.0241    0.4548    0.1935 C.ar    1  LIG1        0.0414
      5 S          -2.2742   -0.1185    1.2686 S.2     1  LIG1       -0.0937
      6 H          -2.3281   -2.5517    1.5322 H       1  LIG1        0.0706
      7 C          -0.1590   -3.1107   -0.1912 C.1     1  LIG1       -0.0680
      8 C           0.3462   -4.1543   -0.5141 C.1     1  LIG1       -0.1139
      9 H           0.7939   -5.0780   -0.8006 H       1  LIG1        0.1232
     10 S           1.0259   -0.5245   -1.4758 S.3     1  LIG1       -0.1403
     11 H           1.0513    0.8132   -1.5814 H       1  LIG1        0.1072
     12 C          -0.8894    1.8843   -0.0683 C.ar    1  LIG1        0.0434
     13 C           0.1867    2.7030    0.2000 C.ar    1  LIG1        0.0531
     14 C          -0.0462    4.0679   -0.1963 C.ar    1  LIG1        0.0278
     15 C          -1.2818    4.2487   -0.7337 C.ar    1  LIG1       -0.0093
     16 S          -2.1821    2.7803   -0.7932 S.2     1  LIG1       -0.0937
     17 H          -1.7170    5.1669   -1.1005 H       1  LIG1        0.0705
     18 C           1.3876    2.2688    0.8281 C.1     1  LIG1       -0.0674
     19 C           2.4147    1.9244    1.3524 C.1     1  LIG1       -0.1138
     20 H           3.3200    1.6086    1.8181 H       1  LIG1        0.1232
     21 S           1.2046    5.2946    0.0525 S.3     1  LIG1       -0.1409
     22 H           0.5004    6.3134   -0.4667 H       1  LIG1        0.1072
@<TRIPOS>BOND
     1    11    10    1
     2    10     3    1
     3    17    15    1
     4     9     8    1
     5    16    15   ar
     6    16    12   ar
     7    15    14   ar
     8     8     7    3
     9    22    21    1
    10     3     2   ar
    11     3     4   ar
    12    14    21    1
    13    14    13   ar
    14     7     2    1
    15    12     4    1
    16    12    13   ar
    17     2     1   ar
    18     4     5   ar
    19    13    18    1
    20    18    19    3
    21     1     5   ar
    22     1     6    1
    23    19    20    1
