@<TRIPOS>MOLECULE
mol_data/opt/cam/geoms/mol2/5eg5eg5eg5eg-.out
 42 45 0 0 0
SMALL
GASTEIGER

@<TRIPOS>ATOM
      1 C          -1.8294   -1.9383    0.5017 C.ar    1  LIG1       -0.0072
      2 C          -0.6438   -1.9112   -0.1779 C.ar    1  LIG1        0.0454
      3 C          -0.1279   -0.5725   -0.3205 C.ar    1  LIG1        0.0355
      4 C          -0.9362    0.3665    0.2651 C.ar    1  LIG1        0.0415
      5 S          -2.3396   -0.3804    0.9869 S.2     1  LIG1       -0.0937
      6 H          -2.4162   -2.8139    0.7374 H       1  LIG1        0.0706
      7 C           0.0053   -3.0678   -0.6982 C.1     1  LIG1       -0.0680
      8 C           0.5634   -4.0368   -1.1432 C.1     1  LIG1       -0.1139
      9 H           1.0577   -4.8944   -1.5379 H       1  LIG1        0.1232
     10 S           1.3599   -0.3086   -1.2274 S.3     1  LIG1       -0.1403
     11 H           1.3892    1.0231   -1.0628 H       1  LIG1        0.1072
     12 C          -0.7756    1.8153    0.3244 C.ar    1  LIG1        0.0440
     13 C           0.2455    2.5380    0.9019 C.ar    1  LIG1        0.0537
     14 C           0.0660    3.9607    0.7753 C.ar    1  LIG1        0.0361
     15 C          -1.0860    4.2905    0.1108 C.ar    1  LIG1        0.0421
     16 S          -1.9575    2.8630   -0.3771 S.2     1  LIG1       -0.0848
     17 C           1.3420    1.9538    1.5961 C.1     1  LIG1       -0.0674
     18 C           2.2791    1.4778    2.1821 C.1     1  LIG1       -0.1138
     19 H           3.1049    1.0475    2.7009 H       1  LIG1        0.1232
     20 S           1.2400    5.0480    1.5142 S.3     1  LIG1       -0.1403
     21 H           0.6371    6.1834    1.1287 H       1  LIG1        0.1072
     22 C          -1.6322    5.6094   -0.1902 C.ar    1  LIG1        0.0440
     23 C          -1.0708    6.6109   -0.9520 C.ar    1  LIG1        0.0537
     24 C          -1.9069    7.7791   -1.0435 C.ar    1  LIG1        0.0361
     25 C          -3.0849    7.6408   -0.3579 C.ar    1  LIG1        0.0421
     26 S          -3.1782    6.0845    0.4186 S.2     1  LIG1       -0.0848
     27 C           0.1789    6.4974   -1.6233 C.1     1  LIG1       -0.0674
     28 C           1.2357    6.4227   -2.1943 C.1     1  LIG1       -0.1138
     29 H           2.1716    6.3494   -2.6994 H       1  LIG1        0.1232
     30 S          -1.3827    9.1430   -2.0294 S.3     1  LIG1       -0.1403
     31 H          -2.4538    9.9118   -1.7788 H       1  LIG1        0.1072
     32 C          -4.1940    8.5810   -0.2319 C.ar    1  LIG1        0.0434
     33 C          -4.1845    9.8396    0.3305 C.ar    1  LIG1        0.0531
     34 C          -5.4764   10.4742    0.2824 C.ar    1  LIG1        0.0278
     35 C          -6.4211    9.6839   -0.2934 C.ar    1  LIG1       -0.0093
     36 S          -5.7752    8.1711   -0.8068 S.2     1  LIG1       -0.0937
     37 H          -7.4670    9.9059   -0.4470 H       1  LIG1        0.0705
     38 C          -3.0421   10.4438    0.9263 C.1     1  LIG1       -0.0674
     39 C          -2.0892   10.9787    1.4307 C.1     1  LIG1       -0.1138
     40 H          -1.2409   11.4451    1.8771 H       1  LIG1        0.1232
     41 S          -5.6964   12.0996    0.9457 S.3     1  LIG1       -0.1409
     42 H          -7.0036   12.1902    0.6520 H       1  LIG1        0.1072
@<TRIPOS>BOND
     1    29    28    1
     2    28    27    3
     3    30    31    1
     4    30    24    1
     5    27    23    1
     6     9     8    1
     7    10    11    1
     8    10     3    1
     9     8     7    3
    10    24    23   ar
    11    24    25   ar
    12    23    22   ar
    13    36    35   ar
    14    36    32   ar
    15     7     2    1
    16    37    35    1
    17    16    15   ar
    18    16    12   ar
    19    25    32    1
    20    25    26   ar
    21     3     2   ar
    22     3     4   ar
    23    35    34   ar
    24    32    33   ar
    25    22    15    1
    26    22    26   ar
    27     2     1   ar
    28    15    14   ar
    29     4    12    1
    30     4     5   ar
    31    34    33   ar
    32    34    41    1
    33    12    13   ar
    34    33    38    1
    35     1     6    1
    36     1     5   ar
    37    42    41    1
    38    14    13   ar
    39    14    20    1
    40    13    17    1
    41    38    39    3
    42    21    20    1
    43    39    40    1
    44    17    18    3
    45    18    19    1
