@<TRIPOS>MOLECULE
mol_data/opt/cam/geoms/mol2/5eg5eg-5eg-5eg.out
 42 45 0 0 0
SMALL
GASTEIGER

@<TRIPOS>ATOM
      1 C          -1.8348   -1.9419   -0.4591 C.ar    1  LIG1       -0.0072
      2 C          -0.6694   -1.9117    0.2546 C.ar    1  LIG1        0.0454
      3 C          -0.1538   -0.5732    0.3998 C.ar    1  LIG1        0.0355
      4 C          -0.9419    0.3625   -0.2178 C.ar    1  LIG1        0.0415
      5 S          -2.3259   -0.3871   -0.9733 S.2     1  LIG1       -0.0937
      6 H          -2.4171   -2.8180   -0.7038 H       1  LIG1        0.0706
      7 C          -0.0393   -3.0652    0.8042 C.1     1  LIG1       -0.0680
      8 C           0.5026   -4.0316    1.2742 C.1     1  LIG1       -0.1139
      9 H           0.9824   -4.8870    1.6911 H       1  LIG1        0.1232
     10 S           1.3076   -0.3049    1.3473 S.3     1  LIG1       -0.1403
     11 H           1.3457    1.0250    1.1714 H       1  LIG1        0.1072
     12 C          -0.7752    1.8103   -0.2858 C.ar    1  LIG1        0.0440
     13 C           0.2645    2.5247   -0.8398 C.ar    1  LIG1        0.0537
     14 C           0.0858    3.9490   -0.7316 C.ar    1  LIG1        0.0361
     15 C          -1.0841    4.2882   -0.1041 C.ar    1  LIG1        0.0421
     16 S          -1.9738    2.8678    0.3713 S.2     1  LIG1       -0.0848
     17 C           1.3791    1.9310   -1.4961 C.1     1  LIG1       -0.0674
     18 C           2.3315    1.4469   -2.0500 C.1     1  LIG1       -0.1138
     19 H           3.1708    1.0097   -2.5405 H       1  LIG1        0.1232
     20 S           1.2842    5.0261   -1.4458 S.3     1  LIG1       -0.1403
     21 H           0.6738    6.1667   -1.0886 H       1  LIG1        0.1072
     22 C          -1.6348    5.6114    0.1685 C.ar    1  LIG1        0.0440
     23 C          -1.0928    6.6184    0.9371 C.ar    1  LIG1        0.0537
     24 C          -1.9276    7.7897    0.9934 C.ar    1  LIG1        0.0361
     25 C          -3.0854    7.6484    0.2749 C.ar    1  LIG1        0.0421
     26 S          -3.1609    6.0851   -0.4895 S.2     1  LIG1       -0.0848
     27 C           0.1365    6.5076    1.6456 C.1     1  LIG1       -0.0674
     28 C           1.1760    6.4353    2.2478 C.1     1  LIG1       -0.1138
     29 H           2.0966    6.3634    2.7804 H       1  LIG1        0.1232
     30 S          -1.4281    9.1612    1.9815 S.3     1  LIG1       -0.1403
     31 H          -2.4891    9.9307    1.6927 H       1  LIG1        0.1072
     32 C          -4.1875    8.5905    0.1079 C.ar    1  LIG1        0.0434
     33 C          -4.1577    9.8437   -0.4658 C.ar    1  LIG1        0.0531
     34 C          -5.4485   10.4824   -0.4613 C.ar    1  LIG1        0.0278
     35 C          -6.4119    9.7003    0.0941 C.ar    1  LIG1       -0.0093
     36 S          -5.7860    8.1905    0.6402 S.2     1  LIG1       -0.0937
     37 H          -7.4613    9.9267    0.2152 H       1  LIG1        0.0705
     38 C          -2.9966   10.4390   -1.0338 C.1     1  LIG1       -0.0674
     39 C          -2.0278   10.9664   -1.5153 C.1     1  LIG1       -0.1138
     40 H          -1.1656   11.4263   -1.9413 H       1  LIG1        0.1232
     41 S          -5.6441   12.1020   -1.1459 S.3     1  LIG1       -0.1409
     42 H          -6.9589   12.1992   -0.8912 H       1  LIG1        0.1072
@<TRIPOS>BOND
     1    19    18    1
     2    18    17    3
     3    40    39    1
     4    39    38    3
     5    17    13    1
     6    20    21    1
     7    20    14    1
     8    41    42    1
     9    41    34    1
    10    38    33    1
    11     5     1   ar
    12     5     4   ar
    13    13    14   ar
    14    13    12   ar
    15    14    15   ar
    16     6     1    1
    17    26    22   ar
    18    26    25   ar
    19    33    34   ar
    20    33    32   ar
    21    34    35   ar
    22     1     2   ar
    23    12     4    1
    24    12    16   ar
    25     4     3   ar
    26    15    22    1
    27    15    16   ar
    28    35    37    1
    29    35    36   ar
    30    32    25    1
    31    32    36   ar
    32    22    23   ar
    33     2     3   ar
    34     2     7    1
    35    25    24   ar
    36     3    10    1
    37     7     8    3
    38    23    24   ar
    39    23    27    1
    40    24    30    1
    41    11    10    1
    42     8     9    1
    43    27    28    3
    44    31    30    1
    45    28    29    1
