@<TRIPOS>MOLECULE
mol_data/opt/cam/geoms/mol2/5eg5eg-5eg.out
 32 34 0 0 0
SMALL
GASTEIGER

@<TRIPOS>ATOM
      1 C          -1.3427   -1.5832    1.8089 C.ar    1  LIG1       -0.0072
      2 C          -0.7916   -1.8439    0.5855 C.ar    1  LIG1        0.0454
      3 C          -0.4433   -0.6378   -0.1233 C.ar    1  LIG1        0.0355
      4 C          -0.7346    0.4941    0.5919 C.ar    1  LIG1        0.0415
      5 S          -1.4448    0.0919    2.1352 S.2     1  LIG1       -0.0937
      6 H          -1.6864   -2.3117    2.5283 H       1  LIG1        0.0706
      7 C          -0.5932   -3.1539    0.0616 C.1     1  LIG1       -0.0680
      8 C          -0.4215   -4.2550   -0.3927 C.1     1  LIG1       -0.1139
      9 H          -0.2691   -5.2297   -0.7959 H       1  LIG1        0.1232
     10 S           0.2220   -0.7503   -1.7515 S.3     1  LIG1       -0.1403
     11 H           0.3802    0.5703   -1.9299 H       1  LIG1        0.1072
     12 C          -0.5518    1.8935    0.2200 C.ar    1  LIG1        0.0440
     13 C           0.6237    2.5543   -0.0624 C.ar    1  LIG1        0.0537
     14 C           0.4207    3.9412   -0.3905 C.ar    1  LIG1        0.0361
     15 C          -0.8961    4.3126   -0.3266 C.ar    1  LIG1        0.0421
     16 S          -1.9059    2.9614    0.1082 S.2     1  LIG1       -0.0848
     17 C           1.9104    1.9476   -0.0174 C.1     1  LIG1       -0.0674
     18 C           3.0058    1.4498    0.0085 C.1     1  LIG1       -0.1138
     19 H           3.9721    1.0008    0.0345 H       1  LIG1        0.1232
     20 S           1.8032    4.9351   -0.8472 S.3     1  LIG1       -0.1403
     21 H           1.1033    6.0659   -1.0286 H       1  LIG1        0.1072
     22 C          -1.4992    5.6163   -0.5865 C.ar    1  LIG1        0.0434
     23 C          -1.2878    6.8017    0.0846 C.ar    1  LIG1        0.0531
     24 C          -2.0692    7.8857   -0.4523 C.ar    1  LIG1        0.0278
     25 C          -2.8523    7.4949   -1.4927 C.ar    1  LIG1       -0.0093
     26 S          -2.6536    5.8232   -1.8607 S.2     1  LIG1       -0.0937
     27 H          -3.5392    8.0981   -2.0683 H       1  LIG1        0.0705
     28 C          -0.4222    6.9454    1.2050 C.1     1  LIG1       -0.0674
     29 C           0.3083    7.0920    2.1501 C.1     1  LIG1       -0.1138
     30 H           0.9570    7.2110    2.9875 H       1  LIG1        0.1232
     31 S          -1.9544    9.5034    0.2550 S.3     1  LIG1       -0.1409
     32 H          -2.8306   10.0804   -0.5832 H       1  LIG1        0.1072
@<TRIPOS>BOND
     1    27    25    1
     2    11    10    1
     3    26    25   ar
     4    26    22   ar
     5    10     3    1
     6    25    24   ar
     7    21    20    1
     8    20    14    1
     9     9     8    1
    10    22    15    1
    11    22    23   ar
    12    32    31    1
    13    24    23   ar
    14    24    31    1
    15     8     7    3
    16    14    15   ar
    17    14    13   ar
    18    15    16   ar
    19     3     2   ar
    20     3     4   ar
    21    13    17    1
    22    13    12   ar
    23    17    18    3
    24    18    19    1
    25     7     2    1
    26    23    28    1
    27    16    12   ar
    28    12     4    1
    29     2     1   ar
    30     4     5   ar
    31    28    29    3
    32     1     5   ar
    33     1     6    1
    34    29    30    1
