@<TRIPOS>MOLECULE
mol_data/opt/cam/geoms/mol2/5eg5eg-5eg5eg.out
 42 45 0 0 0
SMALL
GASTEIGER

@<TRIPOS>ATOM
      1 C          -1.9627   -1.9405    0.3683 C.ar    1  LIG1       -0.0072
      2 C          -0.7290   -1.9196   -0.2199 C.ar    1  LIG1        0.0454
      3 C          -0.1848   -0.5869   -0.2975 C.ar    1  LIG1        0.0355
      4 C          -1.0214    0.3539    0.2439 C.ar    1  LIG1        0.0415
      5 S          -2.4856   -0.3838    0.8439 S.2     1  LIG1       -0.0937
      6 H          -2.5780   -2.8108    0.5424 H       1  LIG1        0.0706
      7 C          -0.0592   -3.0766   -0.7123 C.1     1  LIG1       -0.0680
      8 C           0.5168   -4.0459   -1.1329 C.1     1  LIG1       -0.1139
      9 H           1.0272   -4.9039   -1.5059 H       1  LIG1        0.1232
     10 S           1.3706   -0.3298   -1.0851 S.3     1  LIG1       -0.1403
     11 H           1.4065    0.9980   -0.8931 H       1  LIG1        0.1072
     12 C          -0.8450    1.7988    0.3431 C.ar    1  LIG1        0.0440
     13 C           0.1400    2.4947    1.0093 C.ar    1  LIG1        0.0537
     14 C          -0.0091    3.9221    0.8971 C.ar    1  LIG1        0.0361
     15 C          -1.1030    4.2820    0.1546 C.ar    1  LIG1        0.0421
     16 S          -1.9556    2.8775   -0.4247 S.2     1  LIG1       -0.0848
     17 C           1.1727    1.8808    1.7723 C.1     1  LIG1       -0.0674
     18 C           2.0562    1.3796    2.4176 C.1     1  LIG1       -0.1138
     19 H           2.8343    0.9270    2.9885 H       1  LIG1        0.1232
     20 S           1.1213    4.9773    1.7428 S.3     1  LIG1       -0.1403
     21 H           0.5655    6.1287    1.3352 H       1  LIG1        0.1072
     22 C          -1.6062    5.6145   -0.1610 C.ar    1  LIG1        0.0440
     23 C          -0.9748    6.6208   -0.8591 C.ar    1  LIG1        0.0537
     24 C          -1.7848    7.8034   -0.9904 C.ar    1  LIG1        0.0361
     25 C          -3.0128    7.6713   -0.3978 C.ar    1  LIG1        0.0421
     26 S          -3.1865    6.1027    0.3393 S.2     1  LIG1       -0.0848
     27 C           0.3202    6.4999   -1.4369 C.1     1  LIG1       -0.0674
     28 C           1.4158    6.4190   -1.9284 C.1     1  LIG1       -0.1138
     29 H           2.3859    6.3402   -2.3632 H       1  LIG1        0.1232
     30 S          -1.1685    9.1766   -1.9077 S.3     1  LIG1       -0.1403
     31 H          -2.2443    9.9575   -1.7232 H       1  LIG1        0.1072
     32 C          -4.1147    8.6263   -0.3372 C.ar    1  LIG1        0.0434
     33 C          -4.1296    9.8742    0.2486 C.ar    1  LIG1        0.0531
     34 C          -5.4050   10.5298    0.1161 C.ar    1  LIG1        0.0278
     35 C          -6.3148    9.7651   -0.5441 C.ar    1  LIG1       -0.0093
     36 S          -5.6539    8.2518   -1.0368 S.2     1  LIG1       -0.0937
     37 H          -7.3430   10.0062   -0.7714 H       1  LIG1        0.0705
     38 C          -3.0267   10.4494    0.9399 C.1     1  LIG1       -0.0674
     39 C          -2.1069   10.9600    1.5246 C.1     1  LIG1       -0.1138
     40 H          -1.2880   11.4047    2.0422 H       1  LIG1        0.1232
     41 S          -5.6510   12.1461    0.7923 S.3     1  LIG1       -0.1409
     42 H          -6.9309   12.2626    0.4032 H       1  LIG1        0.1072
@<TRIPOS>BOND
     1    29    28    1
     2    28    27    3
     3    30    31    1
     4    30    24    1
     5     9     8    1
     6    27    23    1
     7     8     7    3
     8    10    11    1
     9    10     3    1
    10    36    35   ar
    11    36    32   ar
    12    24    23   ar
    13    24    25   ar
    14    23    22   ar
    15    37    35    1
    16     7     2    1
    17    35    34   ar
    18    16    15   ar
    19    16    12   ar
    20    25    32    1
    21    25    26   ar
    22    32    33   ar
    23     3     2   ar
    24     3     4   ar
    25     2     1   ar
    26    22    15    1
    27    22    26   ar
    28    34    33   ar
    29    34    41    1
    30    15    14   ar
    31     4    12    1
    32     4     5   ar
    33    33    38    1
    34    12    13   ar
    35     1     6    1
    36     1     5   ar
    37    42    41    1
    38    14    13   ar
    39    14    20    1
    40    38    39    3
    41    13    17    1
    42    21    20    1
    43    39    40    1
    44    17    18    3
    45    18    19    1
