@<TRIPOS>MOLECULE
mol_data/opt/cam/geoms/mol2/5eg5eg5eg-5eg.out
 42 45 0 0 0
SMALL
GASTEIGER

@<TRIPOS>ATOM
      1 C          -1.9128   -1.9385    0.4358 C.ar    1  LIG1       -0.0072
      2 C          -0.6816   -1.9163   -0.1574 C.ar    1  LIG1        0.0454
      3 C          -0.1473   -0.5808   -0.2544 C.ar    1  LIG1        0.0355
      4 C          -0.9886    0.3609    0.2781 C.ar    1  LIG1        0.0415
      5 S          -2.4451   -0.3796    0.8934 S.2     1  LIG1       -0.0937
      6 H          -2.5210   -2.8109    0.6236 H       1  LIG1        0.0706
      7 C          -0.0053   -3.0747   -0.6375 C.1     1  LIG1       -0.0680
      8 C           0.5761   -4.0453   -1.0478 C.1     1  LIG1       -0.1139
      9 H           1.0913   -4.9043   -1.4118 H       1  LIG1        0.1232
     10 S           1.4032   -0.3227   -1.0513 S.3     1  LIG1       -0.1403
     11 H           1.4301    1.0076   -0.8766 H       1  LIG1        0.1072
     12 C          -0.8223    1.8081    0.3580 C.ar    1  LIG1        0.0440
     13 C           0.1601    2.5196    1.0113 C.ar    1  LIG1        0.0537
     14 C           0.0002    3.9443    0.8813 C.ar    1  LIG1        0.0361
     15 C          -1.0990    4.2867    0.1385 C.ar    1  LIG1        0.0421
     16 S          -1.9437    2.8688   -0.4192 S.2     1  LIG1       -0.0848
     17 C           1.2002    1.9231    1.7780 C.1     1  LIG1       -0.0674
     18 C           2.0898    1.4366    2.4263 C.1     1  LIG1       -0.1138
     19 H           2.8734    0.9971    2.9998 H       1  LIG1        0.1232
     20 S           1.1263    5.0185    1.7088 S.3     1  LIG1       -0.1403
     21 H           0.5605    6.1606    1.2885 H       1  LIG1        0.1072
     22 C          -1.6131    5.6115   -0.1922 C.ar    1  LIG1        0.0440
     23 C          -0.9917    6.6131   -0.9057 C.ar    1  LIG1        0.0537
     24 C          -1.8108    7.7881   -1.0491 C.ar    1  LIG1        0.0361
     25 C          -3.0356    7.6548   -0.4500 C.ar    1  LIG1        0.0421
     26 S          -3.1951    6.0946    0.3080 S.2     1  LIG1       -0.0848
     27 C           0.3019    6.4941   -1.4870 C.1     1  LIG1       -0.0674
     28 C           1.3961    6.4148   -1.9817 C.1     1  LIG1       -0.1138
     29 H           2.3650    6.3374   -2.4193 H       1  LIG1        0.1232
     30 S          -1.2080    9.1537   -1.9864 S.3     1  LIG1       -0.1403
     31 H          -2.2888    9.9292   -1.8078 H       1  LIG1        0.1072
     32 C          -4.1442    8.6025   -0.3973 C.ar    1  LIG1        0.0434
     33 C          -4.1658    9.8577    0.1724 C.ar    1  LIG1        0.0531
     34 C          -5.4465   10.5023    0.0364 C.ar    1  LIG1        0.0278
     35 C          -6.3533    9.7226   -0.6102 C.ar    1  LIG1       -0.0093
     36 S          -5.6833    8.2079   -1.0860 S.2     1  LIG1       -0.0937
     37 H          -7.3841    9.9533   -0.8366 H       1  LIG1        0.0705
     38 C          -3.0645   10.4497    0.8519 C.1     1  LIG1       -0.0674
     39 C          -2.1462   10.9745    1.4262 C.1     1  LIG1       -0.1138
     40 H          -1.3286   11.4318    1.9349 H       1  LIG1        0.1232
     41 S          -5.7016   12.1254    0.6927 S.3     1  LIG1       -0.1409
     42 H          -6.9839   12.2276    0.3072 H       1  LIG1        0.1072
@<TRIPOS>BOND
     1    29    28    1
     2    30    31    1
     3    30    24    1
     4    28    27    3
     5    27    23    1
     6     9     8    1
     7    36    35   ar
     8    36    32   ar
     9    10    11    1
    10    10     3    1
    11    24    23   ar
    12    24    25   ar
    13     8     7    3
    14    23    22   ar
    15    37    35    1
    16     7     2    1
    17    35    34   ar
    18    25    32    1
    19    25    26   ar
    20    16    15   ar
    21    16    12   ar
    22    32    33   ar
    23     3     2   ar
    24     3     4   ar
    25    22    15    1
    26    22    26   ar
    27     2     1   ar
    28    34    33   ar
    29    34    41    1
    30    15    14   ar
    31    33    38    1
    32     4    12    1
    33     4     5   ar
    34    42    41    1
    35    12    13   ar
    36     1     6    1
    37     1     5   ar
    38    38    39    3
    39    14    13   ar
    40    14    20    1
    41    13    17    1
    42    21    20    1
    43    39    40    1
    44    17    18    3
    45    18    19    1
