@<TRIPOS>MOLECULE
mol_data/opt/cam/geoms/mol2/5eg5eg5eg-5eg-.out
 42 45 0 0 0
SMALL
GASTEIGER

@<TRIPOS>ATOM
      1 C          -0.6543   -1.7300    1.8497 C.ar    1  LIG1       -0.0072
      2 C          -0.6562   -1.8697    0.4899 C.ar    1  LIG1        0.0454
      3 C          -0.5784   -0.5999   -0.1883 C.ar    1  LIG1        0.0355
      4 C          -0.5110    0.4565    0.6819 C.ar    1  LIG1        0.0415
      5 S          -0.5506   -0.0948    2.3378 S.2     1  LIG1       -0.0937
      6 H          -0.7052   -2.5255    2.5784 H       1  LIG1        0.0706
      7 C          -0.7375   -3.1221   -0.1844 C.1     1  LIG1       -0.0680
      8 C          -0.8064   -4.1734   -0.7661 C.1     1  LIG1       -0.1139
      9 H          -0.8677   -5.1040   -1.2819 H       1  LIG1        0.1232
     10 S          -0.6345   -0.5524   -1.9492 S.3     1  LIG1       -0.1403
     11 H          -0.5152    0.7799   -2.0572 H       1  LIG1        0.1072
     12 C          -0.4380    1.8855    0.3945 C.ar    1  LIG1        0.0440
     13 C           0.5485    2.5699   -0.2811 C.ar    1  LIG1        0.0537
     14 C           0.2882    3.9828   -0.3717 C.ar    1  LIG1        0.0361
     15 C          -0.8730    4.3472    0.2573 C.ar    1  LIG1        0.0421
     16 S          -1.6766    2.9602    0.9400 S.2     1  LIG1       -0.0848
     17 C           1.7169    1.9602   -0.8183 C.1     1  LIG1       -0.0674
     18 C           2.7074    1.4609   -1.2851 C.1     1  LIG1       -0.1138
     19 H           3.5822    1.0103   -1.6949 H       1  LIG1        0.1232
     20 S           1.4061    5.0123   -1.2645 S.3     1  LIG1       -0.1403
     21 H           0.7398    6.1574   -1.0492 H       1  LIG1        0.1072
     22 C          -1.4765    5.6698    0.3845 C.ar    1  LIG1        0.0440
     23 C          -0.9560    6.7876    0.9993 C.ar    1  LIG1        0.0537
     24 C          -1.8422    7.9204    0.9425 C.ar    1  LIG1        0.0361
     25 C          -3.0157    7.6413    0.2929 C.ar    1  LIG1        0.0421
     26 S          -3.0444    5.9922   -0.2664 S.2     1  LIG1       -0.0848
     27 C           0.3013    6.8186    1.6653 C.1     1  LIG1       -0.0674
     28 C           1.3640    6.8646    2.2283 C.1     1  LIG1       -0.1138
     29 H           2.3058    6.8961    2.7265 H       1  LIG1        0.1232
     30 S          -1.3743    9.4254    1.7318 S.3     1  LIG1       -0.1403
     31 H          -2.4813   10.1052    1.3951 H       1  LIG1        0.1072
     32 C          -4.1643    8.5087    0.0513 C.ar    1  LIG1        0.0434
     33 C          -4.2097    9.6786   -0.6768 C.ar    1  LIG1        0.0531
     34 C          -5.5270   10.2598   -0.7036 C.ar    1  LIG1        0.0278
     35 C          -6.4356    9.5167   -0.0176 C.ar    1  LIG1       -0.0093
     36 S          -5.7251    8.1154    0.6901 S.2     1  LIG1       -0.0937
     37 H          -7.4895    9.7142    0.1141 H       1  LIG1        0.0705
     38 C          -3.0956   10.2429   -1.3590 C.1     1  LIG1       -0.0674
     39 C          -2.1675   10.7434   -1.9393 C.1     1  LIG1       -0.1138
     40 H          -1.3410   11.1797   -2.4520 H       1  LIG1        0.1232
     41 S          -5.8171   11.7696   -1.5791 S.3     1  LIG1       -0.1409
     42 H          -7.1272   11.8430   -1.2933 H       1  LIG1        0.1072
@<TRIPOS>BOND
     1    40    39    1
     2    11    10    1
     3    10     3    1
     4    39    38    3
     5    19    18    1
     6    41    42    1
     7    41    34    1
     8    38    33    1
     9    18    17    3
    10     9     8    1
    11    20    21    1
    12    20    14    1
    13    17    13    1
    14     8     7    3
    15    34    33   ar
    16    34    35   ar
    17    33    32   ar
    18    14    13   ar
    19    14    15   ar
    20    13    12   ar
    21    26    25   ar
    22    26    22   ar
    23     3     2   ar
    24     3     4   ar
    25     7     2    1
    26    35    37    1
    27    35    36   ar
    28    32    25    1
    29    32    36   ar
    30    15    22    1
    31    15    16   ar
    32    25    24   ar
    33    22    23   ar
    34    12     4    1
    35    12    16   ar
    36     2     1   ar
    37     4     5   ar
    38    24    23   ar
    39    24    30    1
    40    23    27    1
    41    31    30    1
    42    27    28    3
    43     1     5   ar
    44     1     6    1
    45    28    29    1
