@<TRIPOS>MOLECULE
mol_data/opt/cam/geoms/mol2/5eh.out
 13 13 0 0 0
SMALL
GASTEIGER

@<TRIPOS>ATOM
      1 C          -2.1445   -1.6984    0.0427 C.ar    1  LIG1       -0.0071
      2 C          -0.7776   -1.6838    0.0006 C.ar    1  LIG1        0.0523
      3 C          -0.2423   -0.3415   -0.0449 C.ar    1  LIG1        0.0472
      4 C          -1.2316    0.5973   -0.0441 C.ar    1  LIG1       -0.0024
      5 S          -2.8056   -0.1198    0.0255 S.2     1  LIG1       -0.1020
      6 H          -2.7812   -2.5698    0.0761 H       1  LIG1        0.0706
      7 H          -1.1221    1.6714   -0.0606 H       1  LIG1        0.0712
      8 C           0.0561   -2.8384   -0.0142 C.1     1  LIG1       -0.0673
      9 C           0.8012   -3.7851   -0.0407 C.1     1  LIG1       -0.1138
     10 H           1.4425   -4.6360   -0.0520 H       1  LIG1        0.1232
     11 N           1.1257   -0.1072   -0.0338 N.pl3   1  LIG1       -0.3566
     12 H           1.6777   -0.8908   -0.3543 H       1  LIG1        0.1424
     13 H           1.4166    0.7660   -0.4468 H       1  LIG1        0.1424
@<TRIPOS>BOND
     1    13    11    1
     2    12    11    1
     3     7     4    1
     4    10     9    1
     5     3     4   ar
     6     3    11    1
     7     3     2   ar
     8     4     5   ar
     9     9     8    3
    10     8     2    1
    11     2     1   ar
    12     5     1   ar
    13     1     6    1
