@<TRIPOS>MOLECULE
mol_data/opt/cam/geoms/mol2/5eh5eh.out
 24 25 0 0 0
SMALL
GASTEIGER

@<TRIPOS>ATOM
      1 C          -1.9564   -1.7709    0.8312 C.ar    1  LIG1       -0.0065
      2 C          -0.7603   -1.8589    0.1772 C.ar    1  LIG1        0.0529
      3 C          -0.2264   -0.5646   -0.1807 C.ar    1  LIG1        0.0556
      4 C          -1.0488    0.4648    0.2213 C.ar    1  LIG1        0.0489
      5 S          -2.4641   -0.1532    1.0478 S.2     1  LIG1       -0.0930
      6 H          -2.5496   -2.5941    1.2010 H       1  LIG1        0.0706
      7 C          -0.0957   -3.0731   -0.1569 C.1     1  LIG1       -0.0673
      8 C           0.4921   -4.0770   -0.4708 C.1     1  LIG1       -0.1138
      9 H           1.0018   -4.9766   -0.7289 H       1  LIG1        0.1232
     10 N           0.9728   -0.4587   -0.8401 N.pl3   1  LIG1       -0.3561
     11 H           1.2411   -1.2568   -1.3955 H       1  LIG1        0.1424
     12 H           1.2131    0.4413   -1.2231 H       1  LIG1        0.1424
     13 C          -0.9051    1.8893   -0.0211 C.ar    1  LIG1        0.0449
     14 C           0.2100    2.6902    0.1253 C.ar    1  LIG1        0.0606
     15 C          -0.0278    4.0678   -0.2418 C.ar    1  LIG1        0.0479
     16 C          -1.3108    4.2746   -0.6504 C.ar    1  LIG1       -0.0018
     17 S          -2.2437    2.8184   -0.6167 S.2     1  LIG1       -0.0930
     18 H          -1.7674    5.2091   -0.9410 H       1  LIG1        0.0712
     19 C           1.4697    2.2692    0.6332 C.1     1  LIG1       -0.0667
     20 C           2.5621    1.9589    1.0375 C.1     1  LIG1       -0.1138
     21 H           3.5073    1.6556    1.4250 H       1  LIG1        0.1232
     22 N           0.9595    5.0310   -0.0968 N.pl3   1  LIG1       -0.3566
     23 H           1.8983    4.6594   -0.0613 H       1  LIG1        0.1424
     24 H           0.8762    5.8334   -0.7020 H       1  LIG1        0.1424
@<TRIPOS>BOND
     1    11    10    1
     2    12    10    1
     3    18    16    1
     4    10     3    1
     5     9     8    1
     6    24    22    1
     7    16    17   ar
     8    16    15   ar
     9    17    13   ar
    10     8     7    3
    11    15    22    1
    12    15    14   ar
    13     3     2   ar
    14     3     4   ar
    15     7     2    1
    16    22    23    1
    17    13    14   ar
    18    13     4    1
    19    14    19    1
    20     2     1   ar
    21     4     5   ar
    22    19    20    3
    23     1     5   ar
    24     1     6    1
    25    20    21    1
