@<TRIPOS>MOLECULE
mol_data/opt/cam/geoms/mol2/5eh5eh-.out
 24 25 0 0 0
SMALL
GASTEIGER

@<TRIPOS>ATOM
      1 C          -1.9472   -1.7697    0.8463 C.ar    1  LIG1       -0.0065
      2 C          -0.7580   -1.8588    0.1799 C.ar    1  LIG1        0.0529
      3 C          -0.2279   -0.5650   -0.1857 C.ar    1  LIG1        0.0556
      4 C          -1.0460    0.4650    0.2234 C.ar    1  LIG1        0.0489
      5 S          -2.4525   -0.1516    1.0657 S.2     1  LIG1       -0.0930
      6 H          -2.5365   -2.5922    1.2237 H       1  LIG1        0.0706
      7 C          -0.0971   -3.0735   -0.1593 C.1     1  LIG1       -0.0673
      8 C           0.4873   -4.0780   -0.4778 C.1     1  LIG1       -0.1138
      9 H           0.9942   -4.9779   -0.7399 H       1  LIG1        0.1232
     10 N           0.9642   -0.4602   -0.8579 N.pl3   1  LIG1       -0.3561
     11 H           1.2267   -1.2593   -1.4147 H       1  LIG1        0.1424
     12 H           1.2006    0.4391   -1.2448 H       1  LIG1        0.1424
     13 C          -0.9048    1.8891   -0.0228 C.ar    1  LIG1        0.0449
     14 C           0.2118    2.6902    0.1106 C.ar    1  LIG1        0.0606
     15 C          -0.0298    4.0672   -0.2560 C.ar    1  LIG1        0.0479
     16 C          -1.3170    4.2735   -0.6515 C.ar    1  LIG1       -0.0018
     17 S          -2.2495    2.8174   -0.6057 S.2     1  LIG1       -0.0930
     18 H          -1.7766    5.2075   -0.9388 H       1  LIG1        0.0712
     19 C           1.4768    2.2699    0.6059 C.1     1  LIG1       -0.0667
     20 C           2.5734    1.9602    0.9992 C.1     1  LIG1       -0.1138
     21 H           3.5226    1.6575    1.3772 H       1  LIG1        0.1232
     22 N           0.9591    5.0306   -0.1230 N.pl3   1  LIG1       -0.3566
     23 H           1.8982    4.6590   -0.0968 H       1  LIG1        0.1424
     24 H           0.8694    5.8321   -0.7285 H       1  LIG1        0.1424
@<TRIPOS>BOND
     1    11    10    1
     2    12    10    1
     3    18    16    1
     4    10     3    1
     5     9     8    1
     6    24    22    1
     7    16    17   ar
     8    16    15   ar
     9    17    13   ar
    10     8     7    3
    11    15    22    1
    12    15    14   ar
    13     3     2   ar
    14     3     4   ar
    15     7     2    1
    16    22    23    1
    17    13    14   ar
    18    13     4    1
    19    14    19    1
    20     2     1   ar
    21     4     5   ar
    22    19    20    3
    23     1     5   ar
    24     1     6    1
    25    20    21    1
