@<TRIPOS>MOLECULE
mol_data/opt/cam/geoms/mol2/5eh5eh-5eh.out
 35 37 0 0 0
SMALL
GASTEIGER

@<TRIPOS>ATOM
      1 C          -1.8054   -1.6903   -1.4611 C.ar    1  LIG1       -0.0065
      2 C          -0.8521   -1.8870   -0.5034 C.ar    1  LIG1        0.0529
      3 C          -0.3055   -0.6487    0.0053 C.ar    1  LIG1        0.0556
      4 C          -0.8651    0.4519   -0.6106 C.ar    1  LIG1        0.0490
      5 S          -2.0605   -0.0347   -1.7963 S.2     1  LIG1       -0.0930
      6 H          -2.3501   -2.4551   -1.9948 H       1  LIG1        0.0706
      7 C          -0.4175   -3.1573   -0.0288 C.1     1  LIG1       -0.0673
      8 C          -0.0146   -4.2090    0.3997 C.1     1  LIG1       -0.1138
      9 H           0.3228   -5.1507    0.7673 H       1  LIG1        0.1232
     10 N           0.5921   -0.6497    1.0463 N.pl3   1  LIG1       -0.3561
     11 H           0.9854   -1.5568    1.2529 H       1  LIG1        0.1424
     12 H           1.2657    0.1017    1.0686 H       1  LIG1        0.1424
     13 C          -0.6554    1.8593   -0.3320 C.ar    1  LIG1        0.0455
     14 C           0.5256    2.5377   -0.1120 C.ar    1  LIG1        0.0612
     15 C           0.3467    3.9462    0.1523 C.ar    1  LIG1        0.0563
     16 C          -0.9761    4.3232    0.0888 C.ar    1  LIG1        0.0496
     17 S          -2.0012    2.9432   -0.2456 S.2     1  LIG1       -0.0840
     18 C           1.8240    1.9657   -0.1901 C.1     1  LIG1       -0.0666
     19 C           2.9440    1.5181   -0.2365 C.1     1  LIG1       -0.1138
     20 H           3.9275    1.1147   -0.3161 H       1  LIG1        0.1232
     21 N           1.4169    4.7421    0.4918 N.pl3   1  LIG1       -0.3561
     22 H           2.3177    4.3245    0.3060 H       1  LIG1        0.1424
     23 H           1.3608    5.7120    0.2171 H       1  LIG1        0.1424
     24 C          -1.5726    5.6203    0.3430 C.ar    1  LIG1        0.0449
     25 C          -1.1604    6.8699   -0.0773 C.ar    1  LIG1        0.0606
     26 C          -2.0095    7.9396    0.3926 C.ar    1  LIG1        0.0479
     27 C          -3.0549    7.4739    1.1306 C.ar    1  LIG1       -0.0018
     28 S          -3.0045    5.7544    1.3112 S.2     1  LIG1       -0.0930
     29 H          -3.8459    8.0475    1.5901 H       1  LIG1        0.0712
     30 C          -0.0662    7.1230   -0.9478 C.1     1  LIG1       -0.0667
     31 C           0.8580    7.3825   -1.6794 C.1     1  LIG1       -0.1138
     32 H           1.6587    7.5924   -2.3509 H       1  LIG1        0.1232
     33 N          -1.7171    9.2683    0.1159 N.pl3   1  LIG1       -0.3566
     34 H          -1.1482    9.4010   -0.7088 H       1  LIG1        0.1424
     35 H          -2.5085    9.8937    0.1421 H       1  LIG1        0.1424
@<TRIPOS>BOND
     1    32    31    1
     2     6     1    1
     3     5     1   ar
     4     5     4   ar
     5    31    30    3
     6     1     2   ar
     7    30    25    1
     8    34    33    1
     9     4    13    1
    10     4     3   ar
    11     2     7    1
    12     2     3   ar
    13    13    17   ar
    14    13    14   ar
    15    20    19    1
    16    17    16   ar
    17    19    18    3
    18    18    14    1
    19    14    15   ar
    20    25    24   ar
    21    25    26   ar
    22     7     8    3
    23     3    10    1
    24    16    15   ar
    25    16    24    1
    26    33    35    1
    27    33    26    1
    28    15    21    1
    29    23    21    1
    30    22    21    1
    31    24    28   ar
    32    26    27   ar
    33     8     9    1
    34    10    12    1
    35    10    11    1
    36    27    28   ar
    37    27    29    1
