@<TRIPOS>MOLECULE
mol_data/opt/cam/geoms/mol2/5eh5eh5eh5eh-.out
 46 49 0 0 0
SMALL
GASTEIGER

@<TRIPOS>ATOM
      1 C          -1.5146   -1.4827   -2.1454 C.ar    1  LIG1       -0.0065
      2 C          -0.9256   -1.7836   -0.9507 C.ar    1  LIG1        0.0529
      3 C          -0.4653   -0.6101   -0.2420 C.ar    1  LIG1        0.0556
      4 C          -0.7145    0.5483   -0.9495 C.ar    1  LIG1        0.0490
      5 S          -1.5181    0.1950   -2.4665 S.2     1  LIG1       -0.0930
      6 H          -1.9262   -2.1846   -2.8556 H       1  LIG1        0.0706
      7 C          -0.7649   -3.0968   -0.4241 C.1     1  LIG1       -0.0673
      8 C          -0.6022   -4.1887    0.0589 C.1     1  LIG1       -0.1138
      9 H          -0.4749   -5.1636    0.4701 H       1  LIG1        0.1232
     10 N           0.0600   -0.7129    1.0234 N.pl3   1  LIG1       -0.3561
     11 H           0.2921   -1.6560    1.3007 H       1  LIG1        0.1424
     12 H           0.7505   -0.0265    1.2894 H       1  LIG1        0.1424
     13 C          -0.4900    1.9253   -0.5555 C.ar    1  LIG1        0.0455
     14 C           0.6130    2.4898    0.0514 C.ar    1  LIG1        0.0612
     15 C           0.4757    3.9043    0.3078 C.ar    1  LIG1        0.0563
     16 C          -0.7252    4.4014   -0.1502 C.ar    1  LIG1        0.0496
     17 S          -1.7030    3.1245   -0.8450 S.2     1  LIG1       -0.0840
     18 C           1.8197    1.8044    0.3564 C.1     1  LIG1       -0.0666
     19 C           2.8576    1.2585    0.6422 C.1     1  LIG1       -0.1138
     20 H           3.7805    0.7695    0.8552 H       1  LIG1        0.1232
     21 N           1.4442    4.5906    1.0015 N.pl3   1  LIG1       -0.3561
     22 H           2.3182    4.0935    1.0963 H       1  LIG1        0.1424
     23 H           1.5577    5.5678    0.7747 H       1  LIG1        0.1424
     24 C          -1.2672    5.7399   -0.0327 C.ar    1  LIG1        0.0455
     25 C          -0.6454    6.9559   -0.2339 C.ar    1  LIG1        0.0612
     26 C          -1.5058    8.0935   -0.0090 C.ar    1  LIG1        0.0563
     27 C          -2.7885    7.7182    0.3226 C.ar    1  LIG1        0.0496
     28 S          -2.9245    5.9746    0.4075 S.2     1  LIG1       -0.0840
     29 C           0.6905    7.1275   -0.6862 C.1     1  LIG1       -0.0666
     30 C           1.8227    7.3190   -1.0585 C.1     1  LIG1       -0.1138
     31 H           2.8129    7.4697   -1.4231 H       1  LIG1        0.1232
     32 N          -1.0102    9.3763   -0.0682 N.pl3   1  LIG1       -0.3561
     33 H          -0.1010    9.4476   -0.5024 H       1  LIG1        0.1424
     34 H          -1.6545   10.0928   -0.3698 H       1  LIG1        0.1424
     35 C          -3.9244    8.5488    0.6725 C.ar    1  LIG1        0.0449
     36 C          -4.3806    9.7052    0.0700 C.ar    1  LIG1        0.0606
     37 C          -5.5443   10.2655    0.7163 C.ar    1  LIG1        0.0479
     38 C          -5.9560    9.5083    1.7706 C.ar    1  LIG1       -0.0018
     39 S          -4.9246    8.1441    2.0296 S.2     1  LIG1       -0.0930
     40 H          -6.8018    9.6832    2.4187 H       1  LIG1        0.0712
     41 C          -3.8434   10.2807   -1.1128 C.1     1  LIG1       -0.0667
     42 C          -3.4135   10.8058   -2.1110 C.1     1  LIG1       -0.1138
     43 H          -3.0421   11.2391   -3.0112 H       1  LIG1        0.1232
     44 N          -6.1074   11.4582    0.2827 N.pl3   1  LIG1       -0.3566
     45 H          -5.9138   11.6759   -0.6851 H       1  LIG1        0.1424
     46 H          -7.0815   11.5794    0.5163 H       1  LIG1        0.1424
@<TRIPOS>BOND
     1    43    42    1
     2     6     1    1
     3     5     1   ar
     4     5     4   ar
     5     1     2   ar
     6    42    41    3
     7    31    30    1
     8    41    36    1
     9    30    29    3
    10     2     7    1
    11     2     3   ar
    12     4    13    1
    13     4     3   ar
    14    17    13   ar
    15    17    16   ar
    16    29    25    1
    17    45    44    1
    18    13    14   ar
    19    33    32    1
    20     7     8    3
    21    34    32    1
    22     3    10    1
    23    25    24   ar
    24    25    26   ar
    25    16    24    1
    26    16    15   ar
    27    32    26    1
    28    24    28   ar
    29    26    27   ar
    30    14    15   ar
    31    14    18    1
    32     8     9    1
    33    36    35   ar
    34    36    37   ar
    35    44    46    1
    36    44    37    1
    37    15    21    1
    38    27    28   ar
    39    27    35    1
    40    18    19    3
    41    19    20    1
    42    35    39   ar
    43    37    38   ar
    44    23    21    1
    45    21    22    1
    46    10    12    1
    47    10    11    1
    48    38    39   ar
    49    38    40    1
