@<TRIPOS>MOLECULE
mol_data/opt/cam/geoms/mol2/5eh5eh5eh-5eh-.out
 46 49 0 0 0
SMALL
GASTEIGER

@<TRIPOS>ATOM
      1 C          -1.4957   -1.4800   -2.1576 C.ar    1  LIG1       -0.0065
      2 C          -0.9166   -1.7822   -0.9584 C.ar    1  LIG1        0.0529
      3 C          -0.4626   -0.6096   -0.2445 C.ar    1  LIG1        0.0556
      4 C          -0.7062    0.5497   -0.9525 C.ar    1  LIG1        0.0490
      5 S          -1.4971    0.1981   -2.4766 S.2     1  LIG1       -0.0930
      6 H          -1.9013   -2.1811   -2.8721 H       1  LIG1        0.0706
      7 C          -0.7599   -3.0961   -0.4322 C.1     1  LIG1       -0.0673
      8 C          -0.6009   -4.1886    0.0507 C.1     1  LIG1       -0.1138
      9 H          -0.4767   -5.1640    0.4617 H       1  LIG1        0.1232
     10 N           0.0522   -0.7138    1.0252 N.pl3   1  LIG1       -0.3561
     11 H           0.2824   -1.6572    1.3031 H       1  LIG1        0.1424
     12 H           0.7404   -0.0276    1.2977 H       1  LIG1        0.1424
     13 C          -0.4853    1.9262   -0.5549 C.ar    1  LIG1        0.0455
     14 C           0.6125    2.4902    0.0618 C.ar    1  LIG1        0.0612
     15 C           0.4727    3.9044    0.3189 C.ar    1  LIG1        0.0563
     16 C          -0.7245    4.4018   -0.1484 C.ar    1  LIG1        0.0496
     17 S          -1.6962    3.1254   -0.8529 S.2     1  LIG1       -0.0840
     18 C           1.8168    1.8047    0.3759 C.1     1  LIG1       -0.0666
     19 C           2.8525    1.2587    0.6696 C.1     1  LIG1       -0.1138
     20 H           3.7737    0.7696    0.8895 H       1  LIG1        0.1232
     21 N           1.4352    4.5901    1.0214 N.pl3   1  LIG1       -0.3561
     22 H           2.3085    4.0930    1.1228 H       1  LIG1        0.1424
     23 H           1.5504    5.5675    0.7967 H       1  LIG1        0.1424
     24 C          -1.2678    5.7400   -0.0336 C.ar    1  LIG1        0.0455
     25 C          -0.6447    6.9564   -0.2282 C.ar    1  LIG1        0.0612
     26 C          -1.5073    8.0934   -0.0089 C.ar    1  LIG1        0.0563
     27 C          -2.7925    7.7174    0.3116 C.ar    1  LIG1        0.0496
     28 S          -2.9288    5.9736    0.3932 S.2     1  LIG1       -0.0840
     29 C           0.6948    7.1288   -0.6692 C.1     1  LIG1       -0.0666
     30 C           1.8300    7.3210   -1.0318 C.1     1  LIG1       -0.1138
     31 H           2.8232    7.4722   -1.3880 H       1  LIG1        0.1232
     32 N          -1.0115    9.3764   -0.0624 N.pl3   1  LIG1       -0.3561
     33 H          -0.0988    9.4485   -0.4890 H       1  LIG1        0.1424
     34 H          -1.6535   10.0932   -0.3684 H       1  LIG1        0.1424
     35 C          -3.9316    8.5473    0.6532 C.ar    1  LIG1        0.0449
     36 C          -4.3831    9.7043    0.0484 C.ar    1  LIG1        0.0606
     37 C          -5.5522   10.2635    0.6857 C.ar    1  LIG1        0.0479
     38 C          -5.9724    9.5048    1.7357 C.ar    1  LIG1       -0.0018
     39 S          -4.9428    8.1406    2.0015 S.2     1  LIG1       -0.0930
     40 H          -6.8235    9.6787    2.3770 H       1  LIG1        0.0712
     41 C          -3.8363   10.2814   -1.1293 C.1     1  LIG1       -0.0667
     42 C          -3.3984   10.8078   -2.1233 C.1     1  LIG1       -0.1138
     43 H          -3.0197   11.2423   -3.0198 H       1  LIG1        0.1232
     44 N          -6.1121   11.4566    0.2489 N.pl3   1  LIG1       -0.3566
     45 H          -5.9105   11.6755   -0.7170 H       1  LIG1        0.1424
     46 H          -7.0880   11.5772    0.4748 H       1  LIG1        0.1424
@<TRIPOS>BOND
     1    43    42    1
     2     6     1    1
     3     5     1   ar
     4     5     4   ar
     5     1     2   ar
     6    42    41    3
     7    31    30    1
     8    41    36    1
     9    30    29    3
    10     2     7    1
    11     2     3   ar
    12     4    13    1
    13     4     3   ar
    14    17    13   ar
    15    17    16   ar
    16    45    44    1
    17    29    25    1
    18    13    14   ar
    19    33    32    1
    20     7     8    3
    21    34    32    1
    22     3    10    1
    23    25    24   ar
    24    25    26   ar
    25    16    24    1
    26    16    15   ar
    27    32    26    1
    28    24    28   ar
    29    26    27   ar
    30    36    35   ar
    31    36    37   ar
    32     8     9    1
    33    14    15   ar
    34    14    18    1
    35    44    46    1
    36    44    37    1
    37    27    28   ar
    38    27    35    1
    39    15    21    1
    40    18    19    3
    41    35    39   ar
    42    19    20    1
    43    37    38   ar
    44    23    21    1
    45    21    22    1
    46    10    12    1
    47    10    11    1
    48    38    39   ar
    49    38    40    1
