@<TRIPOS>MOLECULE
mol_data/opt/cam/geoms/mol2/5eh5eh-5eh5eh.out
 46 49 0 0 0
SMALL
GASTEIGER

@<TRIPOS>ATOM
      1 C          -1.5392   -1.4725   -2.1509 C.ar    1  LIG1       -0.0065
      2 C          -0.9395   -1.7795   -0.9631 C.ar    1  LIG1        0.0529
      3 C          -0.4717   -0.6098   -0.2532 C.ar    1  LIG1        0.0556
      4 C          -0.7264    0.5522   -0.9528 C.ar    1  LIG1        0.0490
      5 S          -1.5443    0.2067   -2.4640 S.2     1  LIG1       -0.0930
      6 H          -1.9580   -2.1707   -2.8605 H       1  LIG1        0.0706
      7 C          -0.7751   -3.0954   -0.4442 C.1     1  LIG1       -0.0673
      8 C          -0.6089   -4.1896    0.0321 C.1     1  LIG1       -0.1138
      9 H          -0.4786   -5.1667    0.4375 H       1  LIG1        0.1232
     10 N           0.0651   -0.7190    1.0069 N.pl3   1  LIG1       -0.3561
     11 H           0.2991   -1.6636    1.2775 H       1  LIG1        0.1424
     12 H           0.7587   -0.0344    1.2698 H       1  LIG1        0.1424
     13 C          -0.4971    1.9270   -0.5544 C.ar    1  LIG1        0.0455
     14 C           0.6119    2.4878    0.0449 C.ar    1  LIG1        0.0612
     15 C           0.4782    3.9012    0.3093 C.ar    1  LIG1        0.0563
     16 C          -0.7264    4.4014   -0.1352 C.ar    1  LIG1        0.0496
     17 S          -1.7117    3.1286   -0.8270 S.2     1  LIG1       -0.0840
     18 C           1.8208    1.7999    0.3356 C.1     1  LIG1       -0.0666
     19 C           2.8609    1.2519    0.6092 C.1     1  LIG1       -0.1138
     20 H           3.7853    0.7610    0.8113 H       1  LIG1        0.1232
     21 N           1.4536    4.5834    0.9973 N.pl3   1  LIG1       -0.3561
     22 H           2.3280    4.0851    1.0816 H       1  LIG1        0.1424
     23 H           1.5659    5.5615    0.7741 H       1  LIG1        0.1424
     24 C          -1.2662    5.7398   -0.0063 C.ar    1  LIG1        0.0455
     25 C          -0.6452    6.9562   -0.2076 C.ar    1  LIG1        0.0612
     26 C          -1.5025    8.0934    0.0307 C.ar    1  LIG1        0.0563
     27 C          -2.7824    7.7176    0.3724 C.ar    1  LIG1        0.0496
     28 S          -2.9192    5.9737    0.4502 S.2     1  LIG1       -0.0840
     29 C           0.6866    7.1289   -0.6713 C.1     1  LIG1       -0.0666
     30 C           1.8155    7.3212   -1.0532 C.1     1  LIG1       -0.1138
     31 H           2.8024    7.4729   -1.4262 H       1  LIG1        0.1232
     32 N          -1.0064    9.3761   -0.0270 N.pl3   1  LIG1       -0.3561
     33 H          -0.1012    9.4487   -0.4693 H       1  LIG1        0.1424
     34 H          -1.6528   10.0945   -0.3192 H       1  LIG1        0.1424
     35 C          -3.9144    8.5475    0.7367 C.ar    1  LIG1        0.0449
     36 C          -4.3751    9.7070    0.1439 C.ar    1  LIG1        0.0606
     37 C          -5.5323   10.2652    0.8036 C.ar    1  LIG1        0.0479
     38 C          -5.9349    9.5033    1.8581 C.ar    1  LIG1       -0.0018
     39 S          -4.9023    8.1372    2.1011 S.2     1  LIG1       -0.0930
     40 H          -6.7744    9.6759    2.5148 H       1  LIG1        0.0712
     41 C          -3.8484   10.2877   -1.0411 C.1     1  LIG1       -0.0667
     42 C          -3.4273   10.8172   -2.0407 C.1     1  LIG1       -0.1138
     43 H          -3.0638   11.2544   -2.9422 H       1  LIG1        0.1232
     44 N          -6.0984   11.4604    0.3808 N.pl3   1  LIG1       -0.3566
     45 H          -5.9135   11.6826   -0.5877 H       1  LIG1        0.1424
     46 H          -7.0701   11.5813    0.6241 H       1  LIG1        0.1424
@<TRIPOS>BOND
     1    43    42    1
     2     6     1    1
     3     5     1   ar
     4     5     4   ar
     5     1     2   ar
     6    42    41    3
     7    31    30    1
     8    30    29    3
     9    41    36    1
    10     2     7    1
    11     2     3   ar
    12     4    13    1
    13     4     3   ar
    14    17    13   ar
    15    17    16   ar
    16    29    25    1
    17    45    44    1
    18    13    14   ar
    19    33    32    1
    20     7     8    3
    21    34    32    1
    22     3    10    1
    23    25    24   ar
    24    25    26   ar
    25    16    24    1
    26    16    15   ar
    27    32    26    1
    28    24    28   ar
    29    26    27   ar
    30     8     9    1
    31    14    15   ar
    32    14    18    1
    33    36    35   ar
    34    36    37   ar
    35    15    21    1
    36    18    19    3
    37    27    28   ar
    38    27    35    1
    39    44    46    1
    40    44    37    1
    41    19    20    1
    42    35    39   ar
    43    23    21    1
    44    37    38   ar
    45    21    22    1
    46    10    12    1
    47    10    11    1
    48    38    39   ar
    49    38    40    1
