@<TRIPOS>MOLECULE
mol_data/opt/cam/geoms/mol2/5eh5eh5eh5eh.out
 46 49 0 0 0
SMALL
GASTEIGER

@<TRIPOS>ATOM
      1 C          -1.5189   -1.4785   -2.1522 C.ar    1  LIG1       -0.0065
      2 C          -0.9290   -1.7818   -0.9585 C.ar    1  LIG1        0.0529
      3 C          -0.4677   -0.6099   -0.2481 C.ar    1  LIG1        0.0556
      4 C          -0.7170    0.5500   -0.9531 C.ar    1  LIG1        0.0490
      5 S          -1.5221    0.1999   -2.4700 S.2     1  LIG1       -0.0930
      6 H          -1.9315   -2.1788   -2.8633 H       1  LIG1        0.0706
      7 C          -0.7683   -3.0962   -0.4346 C.1     1  LIG1       -0.0673
      8 C          -0.6056   -4.1890    0.0461 C.1     1  LIG1       -0.1138
      9 H          -0.4782   -5.1648    0.4553 H       1  LIG1        0.1232
     10 N           0.0587   -0.7153    1.0167 N.pl3   1  LIG1       -0.3561
     11 H           0.2909   -1.6590    1.2919 H       1  LIG1        0.1424
     12 H           0.7499   -0.0297    1.2833 H       1  LIG1        0.1424
     13 C          -0.4917    1.9261   -0.5567 C.ar    1  LIG1        0.0455
     14 C           0.6121    2.4890    0.0502 C.ar    1  LIG1        0.0612
     15 C           0.4756    3.9031    0.3095 C.ar    1  LIG1        0.0563
     16 C          -0.7255    4.4015   -0.1464 C.ar    1  LIG1        0.0496
     17 S          -1.7045    3.1263   -0.8427 S.2     1  LIG1       -0.0840
     18 C           1.8189    1.8025    0.3528 C.1     1  LIG1       -0.0666
     19 C           2.8568    1.2557    0.6365 C.1     1  LIG1       -0.1138
     20 H           3.7796    0.7655    0.8475 H       1  LIG1        0.1232
     21 N           1.4450    4.5878    1.0036 N.pl3   1  LIG1       -0.3561
     22 H           2.3190    4.0901    1.0965 H       1  LIG1        0.1424
     23 H           1.5588    5.5653    0.7783 H       1  LIG1        0.1424
     24 C          -1.2669    5.7400   -0.0257 C.ar    1  LIG1        0.0455
     25 C          -0.6448    6.9561   -0.2253 C.ar    1  LIG1        0.0612
     26 C          -1.5045    8.0936    0.0027 C.ar    1  LIG1        0.0563
     27 C          -2.7870    7.7182    0.3349 C.ar    1  LIG1        0.0496
     28 S          -2.9236    5.9745    0.4166 S.2     1  LIG1       -0.0840
     29 C           0.6907    7.1280   -0.6785 C.1     1  LIG1       -0.0666
     30 C           1.8226    7.3196   -1.0515 C.1     1  LIG1       -0.1138
     31 H           2.8126    7.4706   -1.4169 H       1  LIG1        0.1232
     32 N          -1.0085    9.3763   -0.0545 N.pl3   1  LIG1       -0.3561
     33 H          -0.0997    9.4481   -0.4896 H       1  LIG1        0.1424
     34 H          -1.6528   10.0937   -0.3542 H       1  LIG1        0.1424
     35 C          -3.9223    8.5486    0.6876 C.ar    1  LIG1        0.0449
     36 C          -4.3787    9.7062    0.0877 C.ar    1  LIG1        0.0606
     37 C          -5.5414   10.2658    0.7363 C.ar    1  LIG1        0.0479
     38 C          -5.9522    9.5068    1.7897 C.ar    1  LIG1       -0.0018
     39 S          -4.9211    8.1418    2.0450 S.2     1  LIG1       -0.0930
     40 H          -6.7972    9.6809    2.4390 H       1  LIG1        0.0712
     41 C          -3.8425   10.2837   -1.0947 C.1     1  LIG1       -0.0667
     42 C          -3.4135   10.8104   -2.0924 C.1     1  LIG1       -0.1138
     43 H          -3.0429   11.2452   -2.9922 H       1  LIG1        0.1232
     44 N          -6.1046   11.4595    0.3054 N.pl3   1  LIG1       -0.3566
     45 H          -5.9119   11.6790   -0.6622 H       1  LIG1        0.1424
     46 H          -7.0783   11.5808    0.5405 H       1  LIG1        0.1424
@<TRIPOS>BOND
     1    43    42    1
     2     6     1    1
     3     5     1   ar
     4     5     4   ar
     5     1     2   ar
     6    42    41    3
     7    31    30    1
     8    41    36    1
     9    30    29    3
    10     2     7    1
    11     2     3   ar
    12     4    13    1
    13     4     3   ar
    14    17    13   ar
    15    17    16   ar
    16    29    25    1
    17    45    44    1
    18    13    14   ar
    19    33    32    1
    20     7     8    3
    21    34    32    1
    22     3    10    1
    23    25    24   ar
    24    25    26   ar
    25    16    24    1
    26    16    15   ar
    27    32    26    1
    28    24    28   ar
    29    26    27   ar
    30     8     9    1
    31    14    15   ar
    32    14    18    1
    33    36    35   ar
    34    36    37   ar
    35    44    46    1
    36    44    37    1
    37    15    21    1
    38    27    28   ar
    39    27    35    1
    40    18    19    3
    41    19    20    1
    42    35    39   ar
    43    37    38   ar
    44    23    21    1
    45    21    22    1
    46    10    12    1
    47    10    11    1
    48    38    39   ar
    49    38    40    1
