@<TRIPOS>MOLECULE
mol_data/opt/cam/geoms/mol2/5eh5eh5eh-5eh.out
 46 49 0 0 0
SMALL
GASTEIGER

@<TRIPOS>ATOM
      1 C          -1.4962   -1.4764   -2.1628 C.ar    1  LIG1       -0.0065
      2 C          -0.9168   -1.7805   -0.9643 C.ar    1  LIG1        0.0529
      3 C          -0.4625   -0.6090   -0.2486 C.ar    1  LIG1        0.0556
      4 C          -0.7064    0.5514   -0.9546 C.ar    1  LIG1        0.0490
      5 S          -1.4978    0.2023   -2.4790 S.2     1  LIG1       -0.0930
      6 H          -1.9020   -2.1762   -2.8783 H       1  LIG1        0.0706
      7 C          -0.7598   -3.0953   -0.4403 C.1     1  LIG1       -0.0673
      8 C          -0.6007   -4.1885    0.0408 C.1     1  LIG1       -0.1138
      9 H          -0.4762   -5.1647    0.4500 H       1  LIG1        0.1232
     10 N           0.0527   -0.7154    1.0208 N.pl3   1  LIG1       -0.3561
     11 H           0.2830   -1.6592    1.2970 H       1  LIG1        0.1424
     12 H           0.7409   -0.0296    1.2942 H       1  LIG1        0.1424
     13 C          -0.4855    1.9272   -0.5548 C.ar    1  LIG1        0.0455
     14 C           0.6125    2.4903    0.0625 C.ar    1  LIG1        0.0612
     15 C           0.4728    3.9040    0.3219 C.ar    1  LIG1        0.0563
     16 C          -0.7246    4.4021   -0.1441 C.ar    1  LIG1        0.0496
     17 S          -1.6965    3.1269   -0.8503 S.2     1  LIG1       -0.0840
     18 C           1.8170    1.8043    0.3750 C.1     1  LIG1       -0.0666
     19 C           2.8527    1.2579    0.6674 C.1     1  LIG1       -0.1138
     20 H           3.7740    0.7682    0.8862 H       1  LIG1        0.1232
     21 N           1.4355    4.5886    1.0253 N.pl3   1  LIG1       -0.3561
     22 H           2.3089    4.0914    1.1255 H       1  LIG1        0.1424
     23 H           1.5506    5.5664    0.8021 H       1  LIG1        0.1424
     24 C          -1.2680    5.7401   -0.0268 C.ar    1  LIG1        0.0455
     25 C          -0.6450    6.9568   -0.2197 C.ar    1  LIG1        0.0612
     26 C          -1.5075    8.0935    0.0018 C.ar    1  LIG1        0.0563
     27 C          -2.7926    7.7169    0.3222 C.ar    1  LIG1        0.0496
     28 S          -2.9288    5.9730    0.4010 S.2     1  LIG1       -0.0840
     29 C           0.6944    7.1301   -0.6609 C.1     1  LIG1       -0.0666
     30 C           1.8295    7.3229   -1.0236 C.1     1  LIG1       -0.1138
     31 H           2.8225    7.4747   -1.3800 H       1  LIG1        0.1232
     32 N          -1.0118    9.3766   -0.0497 N.pl3   1  LIG1       -0.3561
     33 H          -0.0992    9.4494   -0.4766 H       1  LIG1        0.1424
     34 H          -1.6539   10.0938   -0.3543 H       1  LIG1        0.1424
     35 C          -3.9315    8.5462    0.6657 C.ar    1  LIG1        0.0449
     36 C          -4.3833    9.7041    0.0629 C.ar    1  LIG1        0.0606
     37 C          -5.5521   10.2623    0.7017 C.ar    1  LIG1        0.0479
     38 C          -5.9718    9.5019    1.7506 C.ar    1  LIG1       -0.0018
     39 S          -4.9421    8.1373    2.0138 S.2     1  LIG1       -0.0930
     40 H          -6.8227    9.6748    2.3926 H       1  LIG1        0.0712
     41 C          -3.8370   10.2832   -1.1141 C.1     1  LIG1       -0.0667
     42 C          -3.3996   10.8113   -2.1073 C.1     1  LIG1       -0.1138
     43 H          -3.0213   11.2473   -3.0033 H       1  LIG1        0.1232
     44 N          -6.1123   11.4561    0.2671 N.pl3   1  LIG1       -0.3566
     45 H          -5.9112   11.6766   -0.6986 H       1  LIG1        0.1424
     46 H          -7.0881   11.5764    0.4936 H       1  LIG1        0.1424
@<TRIPOS>BOND
     1    43    42    1
     2     6     1    1
     3     5     1   ar
     4     5     4   ar
     5     1     2   ar
     6    42    41    3
     7    31    30    1
     8    41    36    1
     9    30    29    3
    10     2     7    1
    11     2     3   ar
    12     4    13    1
    13     4     3   ar
    14    17    13   ar
    15    17    16   ar
    16    45    44    1
    17    29    25    1
    18    13    14   ar
    19    33    32    1
    20     7     8    3
    21    34    32    1
    22     3    10    1
    23    25    24   ar
    24    25    26   ar
    25    16    24    1
    26    16    15   ar
    27    32    26    1
    28    24    28   ar
    29    26    27   ar
    30     8     9    1
    31    14    15   ar
    32    14    18    1
    33    36    35   ar
    34    36    37   ar
    35    44    46    1
    36    44    37    1
    37    15    21    1
    38    27    28   ar
    39    27    35    1
    40    18    19    3
    41    35    39   ar
    42    19    20    1
    43    37    38   ar
    44    23    21    1
    45    10    12    1
    46    10    11    1
    47    21    22    1
    48    38    39   ar
    49    38    40    1
