@<TRIPOS>MOLECULE
mol_data/opt/cam/geoms/mol2/5eh5eh5eh-.out
 35 37 0 0 0
SMALL
GASTEIGER

@<TRIPOS>ATOM
      1 C          -1.7800   -1.6903   -1.4832 C.ar    1  LIG1       -0.0065
      2 C          -0.8423   -1.8868   -0.5101 C.ar    1  LIG1        0.0529
      3 C          -0.3047   -0.6484    0.0078 C.ar    1  LIG1        0.0556
      4 C          -0.8548    0.4521   -0.6169 C.ar    1  LIG1        0.0490
      5 S          -2.0304   -0.0348   -1.8220 S.2     1  LIG1       -0.0930
      6 H          -2.3154   -2.4552   -2.0259 H       1  LIG1        0.0706
      7 C          -0.4148   -3.1570   -0.0289 C.1     1  LIG1       -0.0673
      8 C          -0.0185   -4.2086    0.4058 C.1     1  LIG1       -0.1138
      9 H           0.3133   -5.1501    0.7791 H       1  LIG1        0.1232
     10 N           0.5758   -0.6491    1.0632 N.pl3   1  LIG1       -0.3561
     11 H           0.9662   -1.5561    1.2759 H       1  LIG1        0.1424
     12 H           1.2488    0.1025    1.0965 H       1  LIG1        0.1424
     13 C          -0.6504    1.8595   -0.3345 C.ar    1  LIG1        0.0455
     14 C           0.5265    2.5385   -0.0951 C.ar    1  LIG1        0.0612
     15 C           0.3426    3.9468    0.1666 C.ar    1  LIG1        0.0563
     16 C          -0.9792    4.3231    0.0817 C.ar    1  LIG1        0.0496
     17 S          -1.9979    2.9428   -0.2697 S.2     1  LIG1       -0.0840
     18 C           1.8263    1.9672   -0.1522 C.1     1  LIG1       -0.0666
     19 C           2.9471    1.5201   -0.1808 C.1     1  LIG1       -0.1138
     20 H           3.9319    1.1171   -0.2444 H       1  LIG1        0.1232
     21 N           1.4067    4.7432    0.5237 N.pl3   1  LIG1       -0.3561
     22 H           2.3106    4.3262    0.3524 H       1  LIG1        0.1424
     23 H           1.3546    5.7132    0.2483 H       1  LIG1        0.1424
     24 C          -1.5804    5.6198    0.3267 C.ar    1  LIG1        0.0449
     25 C          -1.1620    6.8698   -0.0865 C.ar    1  LIG1        0.0606
     26 C          -2.0191    7.9389    0.3699 C.ar    1  LIG1        0.0479
     27 C          -3.0762    7.4724    1.0907 C.ar    1  LIG1       -0.0018
     28 S          -3.0279    5.7529    1.2715 S.2     1  LIG1       -0.0930
     29 H          -3.8748    8.0455    1.5375 H       1  LIG1        0.0712
     30 C          -0.0539    7.1237   -0.9389 C.1     1  LIG1       -0.0667
     31 C           0.8820    7.3837   -1.6554 C.1     1  LIG1       -0.1138
     32 H           1.6934    7.5942   -2.3136 H       1  LIG1        0.1232
     33 N          -1.7230    9.2678    0.0985 N.pl3   1  LIG1       -0.3566
     34 H          -1.1407    9.4012   -0.7167 H       1  LIG1        0.1424
     35 H          -2.5149    9.8929    0.1121 H       1  LIG1        0.1424
@<TRIPOS>BOND
     1    32    31    1
     2     6     1    1
     3     5     1   ar
     4     5     4   ar
     5    31    30    3
     6     1     2   ar
     7    30    25    1
     8    34    33    1
     9     4    13    1
    10     4     3   ar
    11     2     7    1
    12     2     3   ar
    13    13    17   ar
    14    13    14   ar
    15    17    16   ar
    16    20    19    1
    17    19    18    3
    18    18    14    1
    19    14    15   ar
    20    25    24   ar
    21    25    26   ar
    22     7     8    3
    23     3    10    1
    24    16    15   ar
    25    16    24    1
    26    33    35    1
    27    33    26    1
    28    15    21    1
    29    23    21    1
    30    24    28   ar
    31    22    21    1
    32    26    27   ar
    33     8     9    1
    34    10    12    1
    35    10    11    1
    36    27    28   ar
    37    27    29    1
