@<TRIPOS>MOLECULE
mol_data/opt/cam/geoms/mol2/5eh5eh-5eh-5eh.out
 46 49 0 0 0
SMALL
GASTEIGER

@<TRIPOS>ATOM
      1 C          -1.5137   -1.4690   -2.1662 C.ar    1  LIG1       -0.0065
      2 C          -0.9258   -1.7775   -0.9730 C.ar    1  LIG1        0.0529
      3 C          -0.4660   -0.6087   -0.2564 C.ar    1  LIG1        0.0556
      4 C          -0.7145    0.5543   -0.9566 C.ar    1  LIG1        0.0490
      5 S          -1.5169    0.2108   -2.4765 S.2     1  LIG1       -0.0930
      6 H          -1.9249   -2.1662   -2.8812 H       1  LIG1        0.0706
      7 C          -0.7656   -3.0942   -0.4547 C.1     1  LIG1       -0.0673
      8 C          -0.6033   -4.1891    0.0214 C.1     1  LIG1       -0.1138
      9 H          -0.4763   -5.1668    0.4262 H       1  LIG1        0.1232
     10 N           0.0583   -0.7197    1.0088 N.pl3   1  LIG1       -0.3561
     11 H           0.2903   -1.6645    1.2801 H       1  LIG1        0.1424
     12 H           0.7488   -0.0351    1.2796 H       1  LIG1        0.1424
     13 C          -0.4902    1.9286   -0.5536 C.ar    1  LIG1        0.0455
     14 C           0.6125    2.4891    0.0577 C.ar    1  LIG1        0.0612
     15 C           0.4751    3.9020    0.3231 C.ar    1  LIG1        0.0563
     16 C          -0.7255    4.4022   -0.1325 C.ar    1  LIG1        0.0496
     17 S          -1.7029    3.1298   -0.8362 S.2     1  LIG1       -0.0840
     18 C           1.8189    1.8017    0.3592 C.1     1  LIG1       -0.0666
     19 C           2.8565    1.2538    0.6422 C.1     1  LIG1       -0.1138
     20 H           3.7791    0.7631    0.8526 H       1  LIG1        0.1232
     21 N           1.4431    4.5838    1.0219 N.pl3   1  LIG1       -0.3561
     22 H           2.3170    4.0859    1.1141 H       1  LIG1        0.1424
     23 H           1.5569    5.5623    0.8014 H       1  LIG1        0.1424
     24 C          -1.2674    5.7399   -0.0067 C.ar    1  LIG1        0.0455
     25 C          -0.6454    6.9571   -0.1997 C.ar    1  LIG1        0.0612
     26 C          -1.5058    8.0933    0.0320 C.ar    1  LIG1        0.0563
     27 C          -2.7888    7.7160    0.3603 C.ar    1  LIG1        0.0496
     28 S          -2.9250    5.9719    0.4339 S.2     1  LIG1       -0.0840
     29 C           0.6909    7.1314   -0.6500 C.1     1  LIG1       -0.0666
     30 C           1.8233    7.3251   -1.0202 C.1     1  LIG1       -0.1138
     31 H           2.8138    7.4779   -1.3832 H       1  LIG1        0.1232
     32 N          -1.0101    9.3764   -0.0187 N.pl3   1  LIG1       -0.3561
     33 H          -0.1006    9.4504   -0.4519 H       1  LIG1        0.1424
     34 H          -1.6541   10.0949   -0.3161 H       1  LIG1        0.1424
     35 C          -3.9249    8.5445    0.7148 C.ar    1  LIG1        0.0449
     36 C          -4.3806    9.7047    0.1194 C.ar    1  LIG1        0.0606
     37 C          -5.5446   10.2609    0.7685 C.ar    1  LIG1        0.0479
     38 C          -5.9570    9.4971    1.8177 C.ar    1  LIG1       -0.0018
     39 S          -4.9259    8.1312    2.0687 S.2     1  LIG1       -0.0930
     40 H          -6.8032    9.6680    2.4664 H       1  LIG1        0.0712
     41 C          -3.8426   10.2877   -1.0595 C.1     1  LIG1       -0.0667
     42 C          -3.4120   10.8191   -2.0540 C.1     1  LIG1       -0.1138
     43 H          -3.0400   11.2581   -2.9512 H       1  LIG1        0.1232
     44 N          -6.1073   11.4565    0.3421 N.pl3   1  LIG1       -0.3566
     45 H          -5.9131   11.6803   -0.6242 H       1  LIG1        0.1424
     46 H          -7.0815   11.5763    0.5760 H       1  LIG1        0.1424
@<TRIPOS>BOND
     1    43    42    1
     2     6     1    1
     3     5     1   ar
     4     5     4   ar
     5     1     2   ar
     6    42    41    3
     7    31    30    1
     8    41    36    1
     9    30    29    3
    10     2     7    1
    11     2     3   ar
    12     4    13    1
    13     4     3   ar
    14    17    13   ar
    15    17    16   ar
    16    29    25    1
    17    45    44    1
    18    13    14   ar
    19     7     8    3
    20    33    32    1
    21    34    32    1
    22     3    10    1
    23    25    24   ar
    24    25    26   ar
    25    16    24    1
    26    16    15   ar
    27    32    26    1
    28    24    28   ar
    29     8     9    1
    30    26    27   ar
    31    14    15   ar
    32    14    18    1
    33    36    35   ar
    34    36    37   ar
    35    15    21    1
    36    44    46    1
    37    44    37    1
    38    18    19    3
    39    27    28   ar
    40    27    35    1
    41    19    20    1
    42    35    39   ar
    43    37    38   ar
    44    23    21    1
    45    10    12    1
    46    10    11    1
    47    21    22    1
    48    38    39   ar
    49    38    40    1
