@<TRIPOS>MOLECULE
mol_data/opt/cam/geoms/mol2/5eh5eh-5eh-.out
 35 37 0 0 0
SMALL
GASTEIGER

@<TRIPOS>ATOM
      1 C          -1.8041   -1.6851   -1.4722 C.ar    1  LIG1       -0.0065
      2 C          -0.8541   -1.8852   -0.5118 C.ar    1  LIG1        0.0529
      3 C          -0.3084   -0.6487    0.0022 C.ar    1  LIG1        0.0556
      4 C          -0.8651    0.4540   -0.6126 C.ar    1  LIG1        0.0490
      5 S          -2.0568   -0.0284   -1.8036 S.2     1  LIG1       -0.0930
      6 H          -2.3474   -2.4480   -2.0099 H       1  LIG1        0.0706
      7 C          -0.4220   -3.1571   -0.0393 C.1     1  LIG1       -0.0673
      8 C          -0.0214   -4.2103    0.3877 C.1     1  LIG1       -0.1138
      9 H           0.3138   -5.1531    0.7545 H       1  LIG1        0.1232
     10 N           0.5857   -0.6533    1.0462 N.pl3   1  LIG1       -0.3561
     11 H           0.9776   -1.5612    1.2516 H       1  LIG1        0.1424
     12 H           1.2598    0.0976    1.0729 H       1  LIG1        0.1424
     13 C          -0.6554    1.8605   -0.3293 C.ar    1  LIG1        0.0455
     14 C           0.5254    2.5374   -0.1034 C.ar    1  LIG1        0.0612
     15 C           0.3466    3.9453    0.1641 C.ar    1  LIG1        0.0563
     16 C          -0.9757    4.3234    0.0971 C.ar    1  LIG1        0.0496
     17 S          -2.0006    2.9451   -0.2445 S.2     1  LIG1       -0.0840
     18 C           1.8237    1.9647   -0.1786 C.1     1  LIG1       -0.0666
     19 C           2.9435    1.5164   -0.2225 C.1     1  LIG1       -0.1138
     20 H           3.9269    1.1126   -0.2998 H       1  LIG1        0.1232
     21 N           1.4162    4.7395    0.5094 N.pl3   1  LIG1       -0.3561
     22 H           2.3173    4.3218    0.3257 H       1  LIG1        0.1424
     23 H           1.3618    5.7102    0.2372 H       1  LIG1        0.1424
     24 C          -1.5721    5.6203    0.3528 C.ar    1  LIG1        0.0449
     25 C          -1.1575    6.8707   -0.0626 C.ar    1  LIG1        0.0606
     26 C          -2.0074    7.9398    0.4073 C.ar    1  LIG1        0.0479
     27 C          -3.0557    7.4728    1.1404 C.ar    1  LIG1       -0.0018
     28 S          -3.0073    5.7528    1.3164 S.2     1  LIG1       -0.0930
     29 H          -3.8479    8.0457    1.5988 H       1  LIG1        0.0712
     30 C          -0.0601    7.1254   -0.9286 C.1     1  LIG1       -0.0667
     31 C           0.8668    7.3862   -1.6563 C.1     1  LIG1       -0.1138
     32 H           1.6700    7.5974   -2.3243 H       1  LIG1        0.1232
     33 N          -1.7131    9.2690    0.1354 N.pl3   1  LIG1       -0.3566
     34 H          -1.1412    9.4036   -0.6870 H       1  LIG1        0.1424
     35 H          -2.5041    9.8949    0.1605 H       1  LIG1        0.1424
@<TRIPOS>BOND
     1    32    31    1
     2     6     1    1
     3     5     1   ar
     4     5     4   ar
     5    31    30    3
     6     1     2   ar
     7    30    25    1
     8    34    33    1
     9     4    13    1
    10     4     3   ar
    11     2     7    1
    12     2     3   ar
    13    13    17   ar
    14    13    14   ar
    15    20    19    1
    16    17    16   ar
    17    19    18    3
    18    18    14    1
    19    14    15   ar
    20    25    24   ar
    21    25    26   ar
    22     7     8    3
    23     3    10    1
    24    16    15   ar
    25    16    24    1
    26    33    35    1
    27    33    26    1
    28    15    21    1
    29    23    21    1
    30    22    21    1
    31    24    28   ar
    32     8     9    1
    33    26    27   ar
    34    10    12    1
    35    10    11    1
    36    27    28   ar
    37    27    29    1
