@<TRIPOS>MOLECULE
mol_data/opt/cam/geoms/mol2/5eh5eh-5eh5eh-.out
 46 49 0 0 0
SMALL
GASTEIGER

@<TRIPOS>ATOM
      1 C          -1.5258   -1.4752   -2.1501 C.ar    1  LIG1       -0.0065
      2 C          -0.9287   -1.7801   -0.9605 C.ar    1  LIG1        0.0529
      3 C          -0.4643   -0.6091   -0.2506 C.ar    1  LIG1        0.0556
      4 C          -0.7187    0.5518   -0.9521 C.ar    1  LIG1        0.0490
      5 S          -1.5323    0.2037   -2.4650 S.2     1  LIG1       -0.0930
      6 H          -1.9420   -2.1746   -2.8600 H       1  LIG1        0.0706
      7 C          -0.7639   -3.0952   -0.4398 C.1     1  LIG1       -0.0673
      8 C          -0.5975   -4.1888    0.0380 C.1     1  LIG1       -0.1138
      9 H          -0.4666   -5.1653    0.4443 H       1  LIG1        0.1232
     10 N           0.0696   -0.7163    1.0109 N.pl3   1  LIG1       -0.3561
     11 H           0.3041   -1.6602    1.2831 H       1  LIG1        0.1424
     12 H           0.7615   -0.0304    1.2748 H       1  LIG1        0.1424
     13 C          -0.4922    1.9274   -0.5545 C.ar    1  LIG1        0.0455
     14 C           0.6147    2.4902    0.0469 C.ar    1  LIG1        0.0612
     15 C           0.4785    3.9038    0.3094 C.ar    1  LIG1        0.0563
     16 C          -0.7258    4.4020   -0.1385 C.ar    1  LIG1        0.0496
     17 S          -1.7077    3.1271   -0.8312 S.2     1  LIG1       -0.0840
     18 C           1.8237    1.8043    0.3412 C.1     1  LIG1       -0.0666
     19 C           2.8639    1.2580    0.6177 C.1     1  LIG1       -0.1138
     20 H           3.7886    0.7689    0.8227 H       1  LIG1        0.1232
     21 N           1.4513    4.5880    0.9990 N.pl3   1  LIG1       -0.3561
     22 H           2.3262    4.0909    1.0861 H       1  LIG1        0.1424
     23 H           1.5628    5.5661    0.7751 H       1  LIG1        0.1424
     24 C          -1.2675    5.7397   -0.0123 C.ar    1  LIG1        0.0455
     25 C          -0.6477    6.9567   -0.2133 C.ar    1  LIG1        0.0612
     26 C          -1.5070    8.0931    0.0217 C.ar    1  LIG1        0.0563
     27 C          -2.7872    7.7160    0.3607 C.ar    1  LIG1        0.0496
     28 S          -2.9219    5.9720    0.4402 S.2     1  LIG1       -0.0840
     29 C           0.6850    7.1306   -0.6741 C.1     1  LIG1       -0.0666
     30 C           1.8145    7.3240   -1.0535 C.1     1  LIG1       -0.1138
     31 H           2.8017    7.4770   -1.4251 H       1  LIG1        0.1232
     32 N          -1.0124    9.3763   -0.0362 N.pl3   1  LIG1       -0.3561
     33 H          -0.1062    9.4497   -0.4764 H       1  LIG1        0.1424
     34 H          -1.6591   10.0937   -0.3307 H       1  LIG1        0.1424
     35 C          -3.9211    8.5448    0.7216 C.ar    1  LIG1        0.0449
     36 C          -4.3819    9.7031    0.1264 C.ar    1  LIG1        0.0606
     37 C          -5.5413   10.2606    0.7827 C.ar    1  LIG1        0.0479
     38 C          -5.9453    9.4994    1.8371 C.ar    1  LIG1       -0.0018
     39 S          -4.9116    8.1348    2.0841 S.2     1  LIG1       -0.0930
     40 H          -6.7866    9.6717    2.4917 H       1  LIG1        0.0712
     41 C          -3.8531   10.2832   -1.0581 C.1     1  LIG1       -0.0667
     42 C          -3.4304   10.8120   -2.0573 C.1     1  LIG1       -0.1138
     43 H          -3.0646   11.2491   -2.9580 H       1  LIG1        0.1232
     44 N          -6.1079   11.4546    0.3573 N.pl3   1  LIG1       -0.3566
     45 H          -5.9211   11.6759   -0.6110 H       1  LIG1        0.1424
     46 H          -7.0804   11.5746    0.5982 H       1  LIG1        0.1424
@<TRIPOS>BOND
     1    43    42    1
     2     6     1    1
     3     5     1   ar
     4     5     4   ar
     5     1     2   ar
     6    42    41    3
     7    31    30    1
     8    41    36    1
     9    30    29    3
    10     2     7    1
    11     2     3   ar
    12     4    13    1
    13     4     3   ar
    14    17    13   ar
    15    17    16   ar
    16    29    25    1
    17    45    44    1
    18    13    14   ar
    19    33    32    1
    20     7     8    3
    21    34    32    1
    22     3    10    1
    23    25    24   ar
    24    25    26   ar
    25    16    24    1
    26    16    15   ar
    27    32    26    1
    28    24    28   ar
    29    26    27   ar
    30     8     9    1
    31    14    15   ar
    32    14    18    1
    33    36    35   ar
    34    36    37   ar
    35    15    21    1
    36    18    19    3
    37    44    46    1
    38    44    37    1
    39    27    28   ar
    40    27    35    1
    41    19    20    1
    42    35    39   ar
    43    23    21    1
    44    37    38   ar
    45    21    22    1
    46    10    12    1
    47    10    11    1
    48    38    39   ar
    49    38    40    1
