@<TRIPOS>MOLECULE
mol_data/opt/cam/geoms/mol2/5eh5eh-5eh-5eh-.out
 46 49 0 0 0
SMALL
GASTEIGER

@<TRIPOS>ATOM
      1 C          -1.5107   -1.4710   -2.1663 C.ar    1  LIG1       -0.0065
      2 C          -0.9237   -1.7785   -0.9723 C.ar    1  LIG1        0.0529
      3 C          -0.4647   -0.6089   -0.2564 C.ar    1  LIG1        0.0556
      4 C          -0.7129    0.5534   -0.9578 C.ar    1  LIG1        0.0490
      5 S          -1.5140    0.2085   -2.4780 S.2     1  LIG1       -0.0930
      6 H          -1.9211   -2.1689   -2.8811 H       1  LIG1        0.0706
      7 C          -0.7637   -3.0946   -0.4529 C.1     1  LIG1       -0.0673
      8 C          -0.6017   -4.1892    0.0243 C.1     1  LIG1       -0.1138
      9 H          -0.4749   -5.1664    0.4301 H       1  LIG1        0.1232
     10 N           0.0585   -0.7187    1.0093 N.pl3   1  LIG1       -0.3561
     11 H           0.2904   -1.6633    1.2817 H       1  LIG1        0.1424
     12 H           0.7486   -0.0338    1.2802 H       1  LIG1        0.1424
     13 C          -0.4892    1.9281   -0.5557 C.ar    1  LIG1        0.0455
     14 C           0.6128    2.4894    0.0560 C.ar    1  LIG1        0.0612
     15 C           0.4750    3.9025    0.3201 C.ar    1  LIG1        0.0563
     16 C          -0.7253    4.4020   -0.1369 C.ar    1  LIG1        0.0496
     17 S          -1.7018    3.1288   -0.8403 S.2     1  LIG1       -0.0840
     18 C           1.8192    1.8024    0.3591 C.1     1  LIG1       -0.0666
     19 C           2.8567    1.2551    0.6434 C.1     1  LIG1       -0.1138
     20 H           3.7797    0.7656    0.8553 H       1  LIG1        0.1232
     21 N           1.4423    4.5850    1.0191 N.pl3   1  LIG1       -0.3561
     22 H           2.3162    4.0874    1.1124 H       1  LIG1        0.1424
     23 H           1.5561    5.5634    0.7979 H       1  LIG1        0.1424
     24 C          -1.2676    5.7397   -0.0127 C.ar    1  LIG1        0.0455
     25 C          -0.6456    6.9569   -0.2062 C.ar    1  LIG1        0.0612
     26 C          -1.5065    8.0931    0.0238 C.ar    1  LIG1        0.0563
     27 C          -2.7896    7.7158    0.3513 C.ar    1  LIG1        0.0496
     28 S          -2.9256    5.9718    0.4263 S.2     1  LIG1       -0.0840
     29 C           0.6910    7.1311   -0.6554 C.1     1  LIG1       -0.0666
     30 C           1.8238    7.3246   -1.0248 C.1     1  LIG1       -0.1138
     31 H           2.8145    7.4772   -1.3871 H       1  LIG1        0.1232
     32 N          -1.0109    9.3763   -0.0275 N.pl3   1  LIG1       -0.3561
     33 H          -0.1010    9.4501   -0.4600 H       1  LIG1        0.1424
     34 H          -1.6548   10.0944   -0.3261 H       1  LIG1        0.1424
     35 C          -3.9262    8.5444    0.7042 C.ar    1  LIG1        0.0449
     36 C          -4.3816    9.7040    0.1074 C.ar    1  LIG1        0.0606
     37 C          -5.5462   10.2606    0.7551 C.ar    1  LIG1        0.0479
     38 C          -5.9594    9.4976    1.8046 C.ar    1  LIG1       -0.0018
     39 S          -4.9282    8.1321    2.0576 S.2     1  LIG1       -0.0930
     40 H          -6.8061    9.6689    2.4525 H       1  LIG1        0.0712
     41 C          -3.8427   10.2861   -1.0715 C.1     1  LIG1       -0.0667
     42 C          -3.4115   10.8167   -2.0661 C.1     1  LIG1       -0.1138
     43 H          -3.0388   11.2550   -2.9633 H       1  LIG1        0.1232
     44 N          -6.1089   11.4557    0.3272 N.pl3   1  LIG1       -0.3566
     45 H          -5.9139   11.6788   -0.6390 H       1  LIG1        0.1424
     46 H          -7.0832   11.5756    0.5603 H       1  LIG1        0.1424
@<TRIPOS>BOND
     1    43    42    1
     2     6     1    1
     3     5     1   ar
     4     5     4   ar
     5     1     2   ar
     6    42    41    3
     7    31    30    1
     8    41    36    1
     9    30    29    3
    10     2     7    1
    11     2     3   ar
    12     4    13    1
    13     4     3   ar
    14    17    13   ar
    15    17    16   ar
    16    29    25    1
    17    45    44    1
    18    13    14   ar
    19    33    32    1
    20     7     8    3
    21    34    32    1
    22     3    10    1
    23    25    24   ar
    24    25    26   ar
    25    16    24    1
    26    16    15   ar
    27    32    26    1
    28    24    28   ar
    29    26    27   ar
    30     8     9    1
    31    14    15   ar
    32    14    18    1
    33    36    35   ar
    34    36    37   ar
    35    15    21    1
    36    44    46    1
    37    44    37    1
    38    27    28   ar
    39    27    35    1
    40    18    19    3
    41    19    20    1
    42    35    39   ar
    43    37    38   ar
    44    23    21    1
    45    10    12    1
    46    10    11    1
    47    21    22    1
    48    38    39   ar
    49    38    40    1
