@<TRIPOS>MOLECULE
mol_data/opt/cam/geoms/mol2/5eh5eh5eh.out
 35 37 0 0 0
SMALL
GASTEIGER

@<TRIPOS>ATOM
      1 C          -1.7888   -1.6933   -1.4718 C.ar    1  LIG1       -0.0065
      2 C          -0.8466   -1.8879   -0.5027 C.ar    1  LIG1        0.0529
      3 C          -0.3060   -0.6485    0.0096 C.ar    1  LIG1        0.0556
      4 C          -0.8586    0.4507   -0.6150 C.ar    1  LIG1        0.0490
      5 S          -2.0403   -0.0385   -1.8131 S.2     1  LIG1       -0.0930
      6 H          -2.3271   -2.4593   -2.0102 H       1  LIG1        0.0706
      7 C          -0.4173   -3.1572   -0.0206 C.1     1  LIG1       -0.0673
      8 C          -0.0192   -4.2079    0.4147 C.1     1  LIG1       -0.1138
      9 H           0.3135   -5.1486    0.7892 H       1  LIG1        0.1232
     10 N           0.5797   -0.6472    1.0608 N.pl3   1  LIG1       -0.3561
     11 H           0.9706   -1.5539    1.2737 H       1  LIG1        0.1424
     12 H           1.2531    0.1042    1.0890 H       1  LIG1        0.1424
     13 C          -0.6522    1.8587   -0.3370 C.ar    1  LIG1        0.0455
     14 C           0.5262    2.5377   -0.1049 C.ar    1  LIG1        0.0612
     15 C           0.3442    3.9468    0.1542 C.ar    1  LIG1        0.0563
     16 C          -0.9779    4.3235    0.0748 C.ar    1  LIG1        0.0496
     17 S          -1.9989    2.9427   -0.2683 S.2     1  LIG1       -0.0840
     18 C           1.8254    1.9657   -0.1670 C.1     1  LIG1       -0.0666
     19 C           2.9458    1.5179   -0.1993 C.1     1  LIG1       -0.1138
     20 H           3.9302    1.1145   -0.2666 H       1  LIG1        0.1232
     21 N           1.4104    4.7435    0.5042 N.pl3   1  LIG1       -0.3561
     22 H           2.3132    4.3256    0.3295 H       1  LIG1        0.1424
     23 H           1.3574    5.7128    0.2267 H       1  LIG1        0.1424
     24 C          -1.5773    5.6211    0.3194 C.ar    1  LIG1        0.0449
     25 C          -1.1605    6.8698   -0.0989 C.ar    1  LIG1        0.0606
     26 C          -2.0149    7.9405    0.3589 C.ar    1  LIG1        0.0479
     27 C          -3.0686    7.4762    1.0860 C.ar    1  LIG1       -0.0018
     28 S          -3.0202    5.7572    1.2709 S.2     1  LIG1       -0.0930
     29 H          -3.8649    8.0508    1.5353 H       1  LIG1        0.0712
     30 C          -0.0565    7.1211   -0.9575 C.1     1  LIG1       -0.0667
     31 C           0.8761    7.3792   -1.6788 C.1     1  LIG1       -0.1138
     32 H           1.6845    7.5877   -2.3414 H       1  LIG1        0.1232
     33 N          -1.7195    9.2686    0.0828 N.pl3   1  LIG1       -0.3566
     34 H          -1.1412    9.3996   -0.7357 H       1  LIG1        0.1424
     35 H          -2.5111    9.8940    0.0987 H       1  LIG1        0.1424
@<TRIPOS>BOND
     1    32    31    1
     2     6     1    1
     3     5     1   ar
     4     5     4   ar
     5    31    30    3
     6     1     2   ar
     7    30    25    1
     8    34    33    1
     9     4    13    1
    10     4     3   ar
    11     2     7    1
    12     2     3   ar
    13    13    17   ar
    14    13    14   ar
    15    17    16   ar
    16    20    19    1
    17    19    18    3
    18    18    14    1
    19    14    15   ar
    20    25    24   ar
    21    25    26   ar
    22     7     8    3
    23     3    10    1
    24    16    15   ar
    25    16    24    1
    26    33    35    1
    27    33    26    1
    28    15    21    1
    29    23    21    1
    30    24    28   ar
    31    22    21    1
    32    26    27   ar
    33     8     9    1
    34    10    12    1
    35    10    11    1
    36    27    28   ar
    37    27    29    1
