@<TRIPOS>MOLECULE
mol_data/opt/cam/geoms/mol2/5ei.out
 14 14 0 0 0
SMALL
GASTEIGER

@<TRIPOS>ATOM
      1 C          -2.1554   -1.7236   -0.0073 C.ar    1  LIG1       -0.0087
      2 C          -0.7879   -1.6958   -0.0159 C.ar    1  LIG1        0.0346
      3 C          -0.2587   -0.3531    0.0261 C.ar    1  LIG1       -0.0281
      4 C          -1.2548    0.5704    0.0646 C.ar    1  LIG1       -0.0202
      5 S          -2.8267   -0.1454    0.0513 S.2     1  LIG1       -0.1036
      6 H          -2.7897   -2.5972   -0.0327 H       1  LIG1        0.0706
      7 H          -1.1505    1.6455    0.1004 H       1  LIG1        0.0696
      8 C           0.0332   -2.8613   -0.0614 C.1     1  LIG1       -0.0689
      9 C           0.7443   -3.8323   -0.0995 C.1     1  LIG1       -0.1139
     10 H           1.3658   -4.6971   -0.1335 H       1  LIG1        0.1232
     11 C           1.2078   -0.0491    0.0260 C.3     1  LIG1       -0.0380
     12 H           1.3871    1.0269    0.0623 H       1  LIG1        0.0278
     13 H           1.6907   -0.4476   -0.8710 H       1  LIG1        0.0278
     14 H           1.7035   -0.5091    0.8858 H       1  LIG1        0.0278
@<TRIPOS>BOND
     1    13    11    1
     2    10     9    1
     3     9     8    3
     4     8     2    1
     5     6     1    1
     6     2     1   ar
     7     2     3   ar
     8     1     5   ar
     9    11     3    1
    10    11    12    1
    11    11    14    1
    12     3     4   ar
    13     5     4   ar
    14     4     7    1
