@<TRIPOS>MOLECULE
mol_data/opt/cam/geoms/mol2/5ei5ei-5ei-5ei.out
 50 53 0 0 0
SMALL
GASTEIGER

@<TRIPOS>ATOM
      1 C          -0.9569   -1.3071   -2.5726 C.ar    1  LIG1       -0.0081
      2 C          -0.6943   -1.6635   -1.2786 C.ar    1  LIG1        0.0352
      3 C          -0.4632   -0.5300   -0.4187 C.ar    1  LIG1       -0.0198
      4 C          -0.5497    0.6511   -1.1062 C.ar    1  LIG1        0.0312
      5 S          -0.9214    0.3899   -2.7909 S.2     1  LIG1       -0.0946
      6 H          -1.1694   -1.9695   -3.3988 H       1  LIG1        0.0706
      7 C          -0.6701   -3.0139   -0.8195 C.1     1  LIG1       -0.0688
      8 C          -0.6484   -4.1490   -0.4183 C.1     1  LIG1       -0.1139
      9 H          -0.6299   -5.1559   -0.0701 H       1  LIG1        0.1232
     10 C          -0.2002   -0.6722    1.0474 C.3     1  LIG1       -0.0374
     11 H          -0.3950    0.2614    1.5764 H       1  LIG1        0.0278
     12 H           0.8427   -0.9444    1.2337 H       1  LIG1        0.0278
     13 H          -0.8290   -1.4589    1.4708 H       1  LIG1        0.0278
     14 C          -0.3769    2.0095   -0.6023 C.ar    1  LIG1        0.0424
     15 C           0.6958    2.5386    0.0811 C.ar    1  LIG1        0.0435
     16 C           0.5267    3.9231    0.4374 C.ar    1  LIG1       -0.0191
     17 C          -0.6667    4.4218   -0.0102 C.ar    1  LIG1        0.0318
     18 S          -1.6022    3.2076   -0.8379 S.2     1  LIG1       -0.0856
     19 C           1.8837    1.8121    0.3849 C.1     1  LIG1       -0.0682
     20 C           2.9023    1.2271    0.6510 C.1     1  LIG1       -0.1139
     21 H           3.8046    0.7050    0.8721 H       1  LIG1        0.1232
     22 C           1.5518    4.6812    1.2204 C.3     1  LIG1       -0.0374
     23 H           1.1242    5.5827    1.6604 H       1  LIG1        0.0278
     24 H           2.3841    4.9890    0.5811 H       1  LIG1        0.0278
     25 H           1.9603    4.0553    2.0173 H       1  LIG1        0.0278
     26 C          -1.1958    5.7741    0.1324 C.ar    1  LIG1        0.0424
     27 C          -0.6111    6.9646   -0.2402 C.ar    1  LIG1        0.0435
     28 C          -1.4165    8.1202    0.0566 C.ar    1  LIG1       -0.0191
     29 C          -2.6119    7.7751    0.6269 C.ar    1  LIG1        0.0318
     30 S          -2.7537    6.0513    0.8315 S.2     1  LIG1       -0.0856
     31 C           0.6535    7.0615   -0.8903 C.1     1  LIG1       -0.0682
     32 C           1.7161    7.1750   -1.4458 C.1     1  LIG1       -0.1139
     33 H           2.6516    7.2652   -1.9481 H       1  LIG1        0.1232
     34 C          -0.9553    9.5152   -0.2265 C.3     1  LIG1       -0.0374
     35 H          -1.5243   10.2427    0.3533 H       1  LIG1        0.0278
     36 H          -1.0842    9.7633   -1.2839 H       1  LIG1        0.0278
     37 H           0.1056    9.6209    0.0118 H       1  LIG1        0.0278
     38 C          -3.7001    8.6491    1.0524 C.ar    1  LIG1        0.0418
     39 C          -4.3763    9.5948    0.3129 C.ar    1  LIG1        0.0428
     40 C          -5.4032   10.2756    1.0616 C.ar    1  LIG1       -0.0274
     41 C          -5.4780    9.8147    2.3373 C.ar    1  LIG1       -0.0196
     42 S          -4.3221    8.5802    2.6698 S.2     1  LIG1       -0.0946
     43 H          -6.1603   10.1391    3.1104 H       1  LIG1        0.0696
     44 C          -4.1389    9.8536   -1.0681 C.1     1  LIG1       -0.0682
     45 C          -3.9709   10.0935   -2.2364 C.1     1  LIG1       -0.1139
     46 H          -3.8220   10.2904   -3.2731 H       1  LIG1        0.1232
     47 C          -6.2745   11.3416    0.4727 C.3     1  LIG1       -0.0380
     48 H          -6.9903   11.7141    1.2076 H       1  LIG1        0.0278
     49 H          -6.8317   10.9608   -0.3879 H       1  LIG1        0.0278
     50 H          -5.6763   12.1856    0.1172 H       1  LIG1        0.0278
@<TRIPOS>BOND
     1     6     1    1
     2    46    45    1
     3     5     1   ar
     4     5     4   ar
     5     1     2   ar
     6    45    44    3
     7    33    32    1
     8    32    31    3
     9    36    34    1
    10     2     7    1
    11     2     3   ar
    12     4    14    1
    13     4     3   ar
    14    44    39    1
    15    31    27    1
    16    18    14   ar
    17    18    17   ar
    18     7     8    3
    19    14    15   ar
    20     3    10    1
    21     8     9    1
    22    49    47    1
    23    27    28   ar
    24    27    26   ar
    25    34    37    1
    26    34    28    1
    27    34    35    1
    28    17    26    1
    29    17    16   ar
    30    28    29   ar
    31    15    19    1
    32    15    16   ar
    33    50    47    1
    34    26    30   ar
    35    39    38   ar
    36    39    40   ar
    37    19    20    3
    38    16    22    1
    39    47    40    1
    40    47    48    1
    41    24    22    1
    42    29    30   ar
    43    29    38    1
    44    20    21    1
    45    10    12    1
    46    10    13    1
    47    10    11    1
    48    38    42   ar
    49    40    41   ar
    50    22    23    1
    51    22    25    1
    52    41    42   ar
    53    41    43    1
