@<TRIPOS>MOLECULE
mol_data/opt/cam/geoms/mol2/5ei5ei-5ei-5ei-.out
 50 53 0 0 0
SMALL
GASTEIGER

@<TRIPOS>ATOM
      1 C          -0.9609   -1.3119   -2.5668 C.ar    1  LIG1       -0.0081
      2 C          -0.7006   -1.6664   -1.2719 C.ar    1  LIG1        0.0352
      3 C          -0.4694   -0.5318   -0.4135 C.ar    1  LIG1       -0.0198
      4 C          -0.5535    0.6483   -1.1031 C.ar    1  LIG1        0.0312
      5 S          -0.9231    0.3847   -2.7879 S.2     1  LIG1       -0.0946
      6 H          -1.1730   -1.9754   -3.3922 H       1  LIG1        0.0706
      7 C          -0.6786   -3.0161   -0.8105 C.1     1  LIG1       -0.0688
      8 C          -0.6588   -4.1505   -0.4074 C.1     1  LIG1       -0.1139
      9 H          -0.6422   -5.1569   -0.0575 H       1  LIG1        0.1232
     10 C          -0.2086   -0.6720    1.0531 C.3     1  LIG1       -0.0374
     11 H          -0.4023    0.2629    1.5803 H       1  LIG1        0.0278
     12 H           0.8335   -0.9459    1.2413 H       1  LIG1        0.0278
     13 H          -0.8395   -1.4567    1.4771 H       1  LIG1        0.0278
     14 C          -0.3797    2.0073   -0.6013 C.ar    1  LIG1        0.0424
     15 C           0.6928    2.5363    0.0828 C.ar    1  LIG1        0.0435
     16 C           0.5249    3.9216    0.4364 C.ar    1  LIG1       -0.0191
     17 C          -0.6673    4.4210   -0.0137 C.ar    1  LIG1        0.0318
     18 S          -1.6031    3.2066   -0.8406 S.2     1  LIG1       -0.0856
     19 C           1.8793    1.8088    0.3895 C.1     1  LIG1       -0.0682
     20 C           2.8968    1.2229    0.6580 C.1     1  LIG1       -0.1139
     21 H           3.7981    0.7001    0.8813 H       1  LIG1        0.1232
     22 C           1.5499    4.6797    1.2196 C.3     1  LIG1       -0.0374
     23 H           1.1229    5.5827    1.6572 H       1  LIG1        0.0278
     24 H           2.3836    4.9851    0.5810 H       1  LIG1        0.0278
     25 H           1.9562    4.0548    2.0183 H       1  LIG1        0.0278
     26 C          -1.1949    5.7742    0.1258 C.ar    1  LIG1        0.0424
     27 C          -0.6082    6.9633   -0.2479 C.ar    1  LIG1        0.0435
     28 C          -1.4126    8.1204    0.0456 C.ar    1  LIG1       -0.0191
     29 C          -2.6093    7.7778    0.6148 C.ar    1  LIG1        0.0318
     30 S          -2.7535    6.0545    0.8222 S.2     1  LIG1       -0.0856
     31 C           0.6575    7.0575   -0.8962 C.1     1  LIG1       -0.0682
     32 C           1.7210    7.1688   -1.4504 C.1     1  LIG1       -0.1139
     33 H           2.6575    7.2571   -1.9514 H       1  LIG1        0.1232
     34 C          -0.9492    9.5143   -0.2391 C.3     1  LIG1       -0.0374
     35 H          -1.5186   10.2437    0.3381 H       1  LIG1        0.0278
     36 H          -1.0755    9.7606   -1.2972 H       1  LIG1        0.0278
     37 H           0.1113    9.6193    0.0013 H       1  LIG1        0.0278
     38 C          -3.6971    8.6538    1.0371 C.ar    1  LIG1        0.0418
     39 C          -4.3710    9.5991    0.2950 C.ar    1  LIG1        0.0428
     40 C          -5.3983   10.2823    1.0410 C.ar    1  LIG1       -0.0274
     41 C          -5.4756    9.8237    2.3173 C.ar    1  LIG1       -0.0196
     42 S          -4.3217    8.5883    2.6537 S.2     1  LIG1       -0.0946
     43 H          -6.1587   10.1502    3.0888 H       1  LIG1        0.0696
     44 C          -4.1312    9.8553   -1.0861 C.1     1  LIG1       -0.0682
     45 C          -3.9611   10.0930   -2.2545 C.1     1  LIG1       -0.1139
     46 H          -3.8105   10.2880   -3.2913 H       1  LIG1        0.1232
     47 C          -6.2674   11.3484    0.4489 C.3     1  LIG1       -0.0380
     48 H          -6.9838   11.7230    1.1821 H       1  LIG1        0.0278
     49 H          -6.8239   10.9667   -0.4119 H       1  LIG1        0.0278
     50 H          -5.6677   12.1911    0.0928 H       1  LIG1        0.0278
@<TRIPOS>BOND
     1     6     1    1
     2    46    45    1
     3     5     1   ar
     4     5     4   ar
     5     1     2   ar
     6    45    44    3
     7    33    32    1
     8    32    31    3
     9    36    34    1
    10     2     7    1
    11     2     3   ar
    12     4    14    1
    13     4     3   ar
    14    44    39    1
    15    31    27    1
    16    18    14   ar
    17    18    17   ar
    18     7     8    3
    19    14    15   ar
    20     3    10    1
    21    49    47    1
    22     8     9    1
    23    27    28   ar
    24    27    26   ar
    25    34    37    1
    26    34    28    1
    27    34    35    1
    28    17    26    1
    29    17    16   ar
    30    28    29   ar
    31    15    19    1
    32    15    16   ar
    33    50    47    1
    34    26    30   ar
    35    39    38   ar
    36    39    40   ar
    37    19    20    3
    38    16    22    1
    39    47    40    1
    40    47    48    1
    41    24    22    1
    42    29    30   ar
    43    29    38    1
    44    20    21    1
    45    38    42   ar
    46    40    41   ar
    47    10    12    1
    48    10    13    1
    49    10    11    1
    50    22    23    1
    51    22    25    1
    52    41    42   ar
    53    41    43    1
