@<TRIPOS>MOLECULE
mol_data/opt/cam/geoms/mol2/5ei5ei5ei.out
 38 40 0 0 0
SMALL
GASTEIGER

@<TRIPOS>ATOM
      1 C          -1.4849   -1.6050   -1.7807 C.ar    1  LIG1       -0.0081
      2 C          -0.7134   -1.8380   -0.6757 C.ar    1  LIG1        0.0352
      3 C          -0.3010   -0.6269   -0.0119 C.ar    1  LIG1       -0.0198
      4 C          -0.7720    0.4867   -0.6546 C.ar    1  LIG1        0.0312
      5 S          -1.7232    0.0671   -2.0561 S.2     1  LIG1       -0.0946
      6 H          -1.9198   -2.3441   -2.4373 H       1  LIG1        0.0706
      7 C          -0.3671   -3.1425   -0.2138 C.1     1  LIG1       -0.0688
      8 C          -0.0692   -4.2377    0.1882 C.1     1  LIG1       -0.1139
      9 H           0.1916   -5.2099    0.5378 H       1  LIG1        0.1232
     10 C           0.5125   -0.6338    1.2438 C.3     1  LIG1       -0.0374
     11 H           0.4258    0.3143    1.7759 H       1  LIG1        0.0278
     12 H           1.5722   -0.7914    1.0232 H       1  LIG1        0.0278
     13 H           0.1869   -1.4424    1.9023 H       1  LIG1        0.0278
     14 C          -0.5740    1.8890   -0.3039 C.ar    1  LIG1        0.0424
     15 C           0.6112    2.5627   -0.1057 C.ar    1  LIG1        0.0435
     16 C           0.4357    3.9490    0.2410 C.ar    1  LIG1       -0.0191
     17 C          -0.8860    4.3029    0.2723 C.ar    1  LIG1        0.0318
     18 S          -1.9228    2.9510   -0.0899 S.2     1  LIG1       -0.0856
     19 C           1.8987    1.9711   -0.2589 C.1     1  LIG1       -0.0682
     20 C           3.0005    1.5016   -0.3864 C.1     1  LIG1       -0.1139
     21 H           3.9714    1.0810   -0.5130 H       1  LIG1        0.1232
     22 C           1.5888    4.8546    0.5397 C.3     1  LIG1       -0.0374
     23 H           1.2635    5.7362    1.0932 H       1  LIG1        0.0278
     24 H           2.0637    5.2014   -0.3826 H       1  LIG1        0.0278
     25 H           2.3459    4.3265    1.1239 H       1  LIG1        0.0278
     26 C          -1.4690    5.6089    0.5613 C.ar    1  LIG1        0.0418
     27 C          -1.2053    6.8170   -0.0465 C.ar    1  LIG1        0.0428
     28 C          -1.9750    7.9081    0.4971 C.ar    1  LIG1       -0.0274
     29 C          -2.8031    7.4882    1.4887 C.ar    1  LIG1       -0.0196
     30 S          -2.6685    5.7981    1.7996 S.2     1  LIG1       -0.0946
     31 H          -3.4951    8.0900    2.0609 H       1  LIG1        0.0696
     32 C          -0.3071    6.9856   -1.1398 C.1     1  LIG1       -0.0682
     33 C           0.4377    7.1642   -2.0693 C.1     1  LIG1       -0.1139
     34 H           1.0911    7.3095   -2.8986 H       1  LIG1        0.1232
     35 C          -1.8656    9.3154   -0.0029 C.3     1  LIG1       -0.0380
     36 H          -2.5435    9.9780    0.5380 H       1  LIG1        0.0278
     37 H          -2.1062    9.3721   -1.0684 H       1  LIG1        0.0278
     38 H          -0.8467    9.6959    0.1147 H       1  LIG1        0.0278
@<TRIPOS>BOND
     1    34    33    1
     2     6     1    1
     3    33    32    3
     4     5     1   ar
     5     5     4   ar
     6     1     2   ar
     7    32    27    1
     8    37    35    1
     9     2     7    1
    10     2     3   ar
    11     4    14    1
    12     4     3   ar
    13    21    20    1
    14    20    19    3
    15    24    22    1
    16    14    15   ar
    17    14    18   ar
    18    19    15    1
    19     7     8    3
    20    15    16   ar
    21    18    17   ar
    22    27    28   ar
    23    27    26   ar
    24     3    10    1
    25    35    38    1
    26    35    28    1
    27    35    36    1
    28     8     9    1
    29    16    17   ar
    30    16    22    1
    31    17    26    1
    32    28    29   ar
    33    22    23    1
    34    22    25    1
    35    26    30   ar
    36    12    10    1
    37    10    11    1
    38    10    13    1
    39    29    30   ar
    40    29    31    1
