@<TRIPOS>MOLECULE
mol_data/opt/cam/geoms/mol2/5ei5ei-5ei-.out
 38 40 0 0 0
SMALL
GASTEIGER

@<TRIPOS>ATOM
      1 C          -1.5142   -1.5892   -1.7914 C.ar    1  LIG1       -0.0081
      2 C          -0.7330   -1.8320   -0.6954 C.ar    1  LIG1        0.0352
      3 C          -0.3112   -0.6267   -0.0270 C.ar    1  LIG1       -0.0198
      4 C          -0.7853    0.4927   -0.6574 C.ar    1  LIG1        0.0312
      5 S          -1.7507    0.0854   -2.0528 S.2     1  LIG1       -0.0946
      6 H          -1.9572   -2.3225   -2.4491 H       1  LIG1        0.0706
      7 C          -0.3858   -3.1406   -0.2459 C.1     1  LIG1       -0.0688
      8 C          -0.0871   -4.2394    0.1456 C.1     1  LIG1       -0.1139
      9 H           0.1744   -5.2147    0.4859 H       1  LIG1        0.1232
     10 C           0.5140   -0.6445    1.2210 C.3     1  LIG1       -0.0374
     11 H           0.4348    0.3001    1.7605 H       1  LIG1        0.0278
     12 H           1.5711   -0.8031    0.9893 H       1  LIG1        0.0278
     13 H           0.1924   -1.4568    1.8768 H       1  LIG1        0.0278
     14 C          -0.5803    1.8920   -0.2988 C.ar    1  LIG1        0.0424
     15 C           0.6084    2.5612   -0.1070 C.ar    1  LIG1        0.0435
     16 C           0.4399    3.9454    0.2511 C.ar    1  LIG1       -0.0191
     17 C          -0.8805    4.3026    0.2974 C.ar    1  LIG1        0.0318
     18 S          -1.9243    2.9559   -0.0646 S.2     1  LIG1       -0.0856
     19 C           1.8929    1.9674   -0.2764 C.1     1  LIG1       -0.0682
     20 C           2.9922    1.4959   -0.4177 C.1     1  LIG1       -0.1139
     21 H           3.9607    1.0737   -0.5564 H       1  LIG1        0.1232
     22 C           1.5982    4.8459    0.5452 C.3     1  LIG1       -0.0374
     23 H           1.2804    5.7244    1.1080 H       1  LIG1        0.0278
     24 H           2.0652    5.1980   -0.3790 H       1  LIG1        0.0278
     25 H           2.3593    4.3117    1.1185 H       1  LIG1        0.0278
     26 C          -1.4573    5.6079    0.6010 C.ar    1  LIG1        0.0418
     27 C          -1.1961    6.8196   -0.0008 C.ar    1  LIG1        0.0428
     28 C          -1.9578    7.9089    0.5577 C.ar    1  LIG1       -0.0274
     29 C          -2.7776    7.4841    1.5541 C.ar    1  LIG1       -0.0196
     30 S          -2.6445    5.7916    1.8519 S.2     1  LIG1       -0.0946
     31 H          -3.4625    8.0837    2.1371 H       1  LIG1        0.0696
     32 C          -0.3080    6.9935   -1.1014 C.1     1  LIG1       -0.0682
     33 C           0.4285    7.1767   -2.0366 C.1     1  LIG1       -0.1139
     34 H           1.0744    7.3262   -2.8710 H       1  LIG1        0.1232
     35 C          -1.8494    9.3193    0.0665 C.3     1  LIG1       -0.0380
     36 H          -2.5204    9.9799    0.6184 H       1  LIG1        0.0278
     37 H          -2.0999    9.3841   -0.9962 H       1  LIG1        0.0278
     38 H          -0.8285    9.6963    0.1770 H       1  LIG1        0.0278
@<TRIPOS>BOND
     1    34    33    1
     2     6     1    1
     3     5     1   ar
     4     5     4   ar
     5    33    32    3
     6     1     2   ar
     7    32    27    1
     8    37    35    1
     9     2     7    1
    10     2     3   ar
    11     4    14    1
    12     4     3   ar
    13    21    20    1
    14    20    19    3
    15    24    22    1
    16    14    15   ar
    17    14    18   ar
    18    19    15    1
    19     7     8    3
    20    15    16   ar
    21    18    17   ar
    22     3    10    1
    23    27    28   ar
    24    27    26   ar
    25    35    38    1
    26    35    28    1
    27    35    36    1
    28     8     9    1
    29    16    17   ar
    30    16    22    1
    31    17    26    1
    32    22    23    1
    33    22    25    1
    34    28    29   ar
    35    26    30   ar
    36    12    10    1
    37    10    11    1
    38    10    13    1
    39    29    30   ar
    40    29    31    1
