@<TRIPOS>MOLECULE
mol_data/opt/cam/geoms/mol2/5ei5ei5ei-5ei.out
 50 53 0 0 0
SMALL
GASTEIGER

@<TRIPOS>ATOM
      1 C          -0.9439   -1.3242   -2.5467 C.ar    1  LIG1       -0.0081
      2 C          -0.6901   -1.6722   -1.2486 C.ar    1  LIG1        0.0352
      3 C          -0.4639   -0.5332   -0.3947 C.ar    1  LIG1       -0.0198
      4 C          -0.5451    0.6434   -1.0905 C.ar    1  LIG1        0.0312
      5 S          -0.9058    0.3712   -2.7759 S.2     1  LIG1       -0.0946
      6 H          -1.1514   -1.9919   -3.3698 H       1  LIG1        0.0706
      7 C          -0.6698   -3.0196   -0.7805 C.1     1  LIG1       -0.0688
      8 C          -0.6516   -4.1520   -0.3717 C.1     1  LIG1       -0.1139
      9 H          -0.6361   -5.1566   -0.0168 H       1  LIG1        0.1232
     10 C          -0.2107   -0.6659    1.0739 C.3     1  LIG1       -0.0374
     11 H          -0.4087    0.2712    1.5956 H       1  LIG1        0.0278
     12 H           0.8309   -0.9371    1.2689 H       1  LIG1        0.0278
     13 H          -0.8425   -1.4496    1.4984 H       1  LIG1        0.0278
     14 C          -0.3747    2.0049   -0.5945 C.ar    1  LIG1        0.0424
     15 C           0.6938    2.5379    0.0925 C.ar    1  LIG1        0.0435
     16 C           0.5232    3.9248    0.4385 C.ar    1  LIG1       -0.0191
     17 C          -0.6669    4.4213   -0.0203 C.ar    1  LIG1        0.0318
     18 S          -1.5976    3.2023   -0.8461 S.2     1  LIG1       -0.0856
     19 C           1.8792    1.8127    0.4090 C.1     1  LIG1       -0.0682
     20 C           2.8956    1.2288    0.6856 C.1     1  LIG1       -0.1139
     21 H           3.7961    0.7077    0.9161 H       1  LIG1        0.1232
     22 C           1.5436    4.6874    1.2234 C.3     1  LIG1       -0.0374
     23 H           1.1137    5.5920    1.6547 H       1  LIG1        0.0278
     24 H           2.3803    4.9906    0.5876 H       1  LIG1        0.0278
     25 H           1.9465    4.0665    2.0269 H       1  LIG1        0.0278
     26 C          -1.1960    5.7748    0.1099 C.ar    1  LIG1        0.0424
     27 C          -0.6080    6.9625   -0.2665 C.ar    1  LIG1        0.0435
     28 C          -1.4146    8.1205    0.0173 C.ar    1  LIG1       -0.0191
     29 C          -2.6141    7.7799    0.5818 C.ar    1  LIG1        0.0318
     30 S          -2.7583    6.0576    0.7968 S.2     1  LIG1       -0.0856
     31 C           0.6610    7.0543   -0.9088 C.1     1  LIG1       -0.0682
     32 C           1.7273    7.1635   -1.4579 C.1     1  LIG1       -0.1139
     33 H           2.6662    7.2499   -1.9546 H       1  LIG1        0.1232
     34 C          -0.9506    9.5133   -0.2718 C.3     1  LIG1       -0.0374
     35 H          -1.5228   10.2450    0.2996 H       1  LIG1        0.0278
     36 H          -1.0726    9.7547   -1.3316 H       1  LIG1        0.0278
     37 H           0.1088    9.6199   -0.0274 H       1  LIG1        0.0278
     38 C          -3.7045    8.6573    0.9943 C.ar    1  LIG1        0.0418
     39 C          -4.3751    9.5986    0.2442 C.ar    1  LIG1        0.0428
     40 C          -5.4065   10.2849    0.9816 C.ar    1  LIG1       -0.0274
     41 C          -5.4901    9.8324    2.2597 C.ar    1  LIG1       -0.0196
     42 S          -4.3373    8.5993    2.6080 S.2     1  LIG1       -0.0946
     43 H          -6.1773   10.1622    3.0261 H       1  LIG1        0.0696
     44 C          -4.1283    9.8482   -1.1369 C.1     1  LIG1       -0.0682
     45 C          -3.9524   10.0804   -2.3055 C.1     1  LIG1       -0.1139
     46 H          -3.7965   10.2704   -3.3425 H       1  LIG1        0.1232
     47 C          -6.2731   11.3476    0.3799 C.3     1  LIG1       -0.0380
     48 H          -6.9936   11.7252    1.1075 H       1  LIG1        0.0278
     49 H          -6.8248   10.9615   -0.4820 H       1  LIG1        0.0278
     50 H          -5.6721   12.1889    0.0230 H       1  LIG1        0.0278
@<TRIPOS>BOND
     1     6     1    1
     2    46    45    1
     3     5     1   ar
     4     5     4   ar
     5     1     2   ar
     6    45    44    3
     7    33    32    1
     8    32    31    3
     9    36    34    1
    10     2     7    1
    11     2     3   ar
    12    44    39    1
    13     4    14    1
    14     4     3   ar
    15    31    27    1
    16    18    14   ar
    17    18    17   ar
    18     7     8    3
    19    14    15   ar
    20    49    47    1
    21     3    10    1
    22     8     9    1
    23    34    37    1
    24    34    28    1
    25    34    35    1
    26    27    28   ar
    27    27    26   ar
    28    17    26    1
    29    17    16   ar
    30    28    29   ar
    31    50    47    1
    32    15    19    1
    33    15    16   ar
    34    26    30   ar
    35    39    40   ar
    36    39    38   ar
    37    47    40    1
    38    47    48    1
    39    19    20    3
    40    16    22    1
    41    29    30   ar
    42    29    38    1
    43    24    22    1
    44    20    21    1
    45    40    41   ar
    46    38    42   ar
    47    10    12    1
    48    10    13    1
    49    10    11    1
    50    22    23    1
    51    22    25    1
    52    41    42   ar
    53    41    43    1
