@<TRIPOS>MOLECULE
mol_data/opt/cam/geoms/mol2/5ei5ei5ei-.out
 38 40 0 0 0
SMALL
GASTEIGER

@<TRIPOS>ATOM
      1 C          -1.4801   -1.5940   -1.8060 C.ar    1  LIG1       -0.0081
      2 C          -0.7155   -1.8338   -0.6977 C.ar    1  LIG1        0.0352
      3 C          -0.3056   -0.6267   -0.0251 C.ar    1  LIG1       -0.0198
      4 C          -0.7714    0.4909   -0.6646 C.ar    1  LIG1        0.0312
      5 S          -1.7148    0.0799   -2.0739 S.2     1  LIG1       -0.0946
      6 H          -1.9120   -2.3290   -2.4691 H       1  LIG1        0.0706
      7 C          -0.3735   -3.1412   -0.2406 C.1     1  LIG1       -0.0688
      8 C          -0.0794   -4.2389    0.1572 C.1     1  LIG1       -0.1139
      9 H           0.1782   -5.2132    0.5033 H       1  LIG1        0.1232
     10 C           0.5004   -0.6413    1.2355 C.3     1  LIG1       -0.0374
     11 H           0.4116    0.3041    1.7720 H       1  LIG1        0.0278
     12 H           1.5612   -0.7989    1.0203 H       1  LIG1        0.0278
     13 H           0.1699   -1.4530    1.8877 H       1  LIG1        0.0278
     14 C          -0.5738    1.8911   -0.3053 C.ar    1  LIG1        0.0424
     15 C           0.6110    2.5622   -0.0964 C.ar    1  LIG1        0.0435
     16 C           0.4351    3.9468    0.2566 C.ar    1  LIG1       -0.0191
     17 C          -0.8863    4.3023    0.2819 C.ar    1  LIG1        0.0318
     18 S          -1.9226    2.9535   -0.0936 S.2     1  LIG1       -0.0856
     19 C           1.8987    1.9698   -0.2451 C.1     1  LIG1       -0.0682
     20 C           3.0006    1.4996   -0.3686 C.1     1  LIG1       -0.1139
     21 H           3.9717    1.0785   -0.4918 H       1  LIG1        0.1232
     22 C           1.5875    4.8494    0.5669 C.3     1  LIG1       -0.0374
     23 H           1.2600    5.7284    1.1233 H       1  LIG1        0.0278
     24 H           2.0682    5.2006   -0.3507 H       1  LIG1        0.0278
     25 H           2.3405    4.3172    1.1527 H       1  LIG1        0.0278
     26 C          -1.4694    5.6074    0.5744 C.ar    1  LIG1        0.0418
     27 C          -1.2007    6.8183   -0.0254 C.ar    1  LIG1        0.0428
     28 C          -1.9722    7.9075    0.5195 C.ar    1  LIG1       -0.0274
     29 C          -2.8067    7.4834    1.5039 C.ar    1  LIG1       -0.0196
     30 S          -2.6760    5.7916    1.8066 S.2     1  LIG1       -0.0946
     31 H          -3.5012    8.0830    2.0752 H       1  LIG1        0.0696
     32 C          -0.2960    6.9916   -1.1126 C.1     1  LIG1       -0.0682
     33 C           0.4546    7.1742   -2.0367 C.1     1  LIG1       -0.1139
     34 H           1.1129    7.3230   -2.8614 H       1  LIG1        0.1232
     35 C          -1.8582    9.3173    0.0275 C.3     1  LIG1       -0.0380
     36 H          -2.5385    9.9779    0.5679 H       1  LIG1        0.0278
     37 H          -2.0925    9.3799   -1.0390 H       1  LIG1        0.0278
     38 H          -0.8396    9.6959    0.1531 H       1  LIG1        0.0278
@<TRIPOS>BOND
     1    34    33    1
     2     6     1    1
     3     5     1   ar
     4     5     4   ar
     5    33    32    3
     6     1     2   ar
     7    32    27    1
     8    37    35    1
     9     2     7    1
    10     2     3   ar
    11     4    14    1
    12     4     3   ar
    13    21    20    1
    14    20    19    3
    15    24    22    1
    16    14    15   ar
    17    14    18   ar
    18    19    15    1
    19     7     8    3
    20    15    16   ar
    21    18    17   ar
    22    27    28   ar
    23    27    26   ar
    24     3    10    1
    25    35    38    1
    26    35    28    1
    27    35    36    1
    28     8     9    1
    29    16    17   ar
    30    16    22    1
    31    17    26    1
    32    28    29   ar
    33    22    23    1
    34    22    25    1
    35    26    30   ar
    36    12    10    1
    37    10    11    1
    38    10    13    1
    39    29    30   ar
    40    29    31    1
