@<TRIPOS>MOLECULE
mol_data/opt/cam/geoms/mol2/5ei5ei5ei-5ei-.out
 50 53 0 0 0
SMALL
GASTEIGER

@<TRIPOS>ATOM
      1 C          -0.9310   -1.3269   -2.5435 C.ar    1  LIG1       -0.0081
      2 C          -0.6788   -1.6729   -1.2446 C.ar    1  LIG1        0.0352
      3 C          -0.4557   -0.5325   -0.3918 C.ar    1  LIG1       -0.0198
      4 C          -0.5373    0.6431   -1.0892 C.ar    1  LIG1        0.0312
      5 S          -0.8948    0.3683   -2.7749 S.2     1  LIG1       -0.0946
      6 H          -1.1361   -1.9959   -3.3662 H       1  LIG1        0.0706
      7 C          -0.6574   -3.0197   -0.7747 C.1     1  LIG1       -0.0688
      8 C          -0.6382   -4.1515   -0.3645 C.1     1  LIG1       -0.1139
      9 H          -0.6220   -5.1556   -0.0083 H       1  LIG1        0.1232
     10 C          -0.2047   -0.6631    1.0775 C.3     1  LIG1       -0.0374
     11 H          -0.4046    0.2745    1.5976 H       1  LIG1        0.0278
     12 H           0.8367   -0.9329    1.2745 H       1  LIG1        0.0278
     13 H          -0.8364   -1.4469    1.5019 H       1  LIG1        0.0278
     14 C          -0.3697    2.0055   -0.5946 C.ar    1  LIG1        0.0424
     15 C           0.6969    2.5408    0.0936 C.ar    1  LIG1        0.0435
     16 C           0.5239    3.9279    0.4376 C.ar    1  LIG1       -0.0191
     17 C          -0.6661    4.4222   -0.0239 C.ar    1  LIG1        0.0318
     18 S          -1.5937    3.2008   -0.8498 S.2     1  LIG1       -0.0856
     19 C           1.8828    1.8176    0.4129 C.1     1  LIG1       -0.0682
     20 C           2.8995    1.2355    0.6921 C.1     1  LIG1       -0.1139
     21 H           3.8004    0.7159    0.9248 H       1  LIG1        0.1232
     22 C           1.5419    4.6928    1.2232 C.3     1  LIG1       -0.0374
     23 H           1.1100    5.5974    1.6526 H       1  LIG1        0.0278
     24 H           2.3793    4.9963    0.5885 H       1  LIG1        0.0278
     25 H           1.9442    4.0736    2.0283 H       1  LIG1        0.0278
     26 C          -1.1973    5.7752    0.1037 C.ar    1  LIG1        0.0424
     27 C          -0.6102    6.9631   -0.2732 C.ar    1  LIG1        0.0435
     28 C          -1.4189    8.1204    0.0077 C.ar    1  LIG1       -0.0191
     29 C          -2.6189    7.7789    0.5706 C.ar    1  LIG1        0.0318
     30 S          -2.7612    6.0566    0.7875 S.2     1  LIG1       -0.0856
     31 C           0.6597    7.0559   -0.9134 C.1     1  LIG1       -0.0682
     32 C           1.7268    7.1659   -1.4608 C.1     1  LIG1       -0.1139
     33 H           2.6665    7.2530   -1.9559 H       1  LIG1        0.1232
     34 C          -0.9562    9.5135   -0.2823 C.3     1  LIG1       -0.0374
     35 H          -1.5306   10.2451    0.2870 H       1  LIG1        0.0278
     36 H          -1.0764    9.7533   -1.3427 H       1  LIG1        0.0278
     37 H           0.1025    9.6218   -0.0360 H       1  LIG1        0.0278
     38 C          -3.7111    8.6554    0.9801 C.ar    1  LIG1        0.0418
     39 C          -4.3817    9.5948    0.2275 C.ar    1  LIG1        0.0428
     40 C          -5.4154   10.2806    0.9622 C.ar    1  LIG1       -0.0274
     41 C          -5.5006    9.8296    2.2408 C.ar    1  LIG1       -0.0196
     42 S          -4.3467    8.5986    2.5927 S.2     1  LIG1       -0.0946
     43 H          -6.1896   10.1596    3.0055 H       1  LIG1        0.0696
     44 C          -4.1329    9.8429   -1.1534 C.1     1  LIG1       -0.0682
     45 C          -3.9552   10.0740   -2.3220 C.1     1  LIG1       -0.1139
     46 H          -3.7977   10.2628   -3.3590 H       1  LIG1        0.1232
     47 C          -6.2823   11.3414    0.3577 C.3     1  LIG1       -0.0380
     48 H          -7.0046   11.7191    1.0836 H       1  LIG1        0.0278
     49 H          -6.8321   10.9534   -0.5046 H       1  LIG1        0.0278
     50 H          -5.6818   12.1830    0.0007 H       1  LIG1        0.0278
@<TRIPOS>BOND
     1     6     1    1
     2    46    45    1
     3     5     1   ar
     4     5     4   ar
     5     1     2   ar
     6    45    44    3
     7    33    32    1
     8    32    31    3
     9    36    34    1
    10     2     7    1
    11     2     3   ar
    12    44    39    1
    13     4    14    1
    14     4     3   ar
    15    31    27    1
    16    18    14   ar
    17    18    17   ar
    18     7     8    3
    19    14    15   ar
    20    49    47    1
    21     3    10    1
    22     8     9    1
    23    34    37    1
    24    34    28    1
    25    34    35    1
    26    27    28   ar
    27    27    26   ar
    28    17    26    1
    29    17    16   ar
    30    50    47    1
    31    28    29   ar
    32    15    19    1
    33    15    16   ar
    34    26    30   ar
    35    39    40   ar
    36    39    38   ar
    37    47    40    1
    38    47    48    1
    39    19    20    3
    40    16    22    1
    41    29    30   ar
    42    29    38    1
    43    24    22    1
    44    20    21    1
    45    40    41   ar
    46    38    42   ar
    47    10    12    1
    48    10    13    1
    49    10    11    1
    50    22    23    1
    51    22    25    1
    52    41    42   ar
    53    41    43    1
