@<TRIPOS>MOLECULE
mol_data/opt/cam/geoms/mol2/5ei5ei.out
 26 27 0 0 0
SMALL
GASTEIGER

@<TRIPOS>ATOM
      1 C          -1.8965   -1.7365   -0.9854 C.ar    1  LIG1       -0.0081
      2 C          -0.7303   -1.8502   -0.2803 C.ar    1  LIG1        0.0352
      3 C          -0.2330   -0.5828    0.1931 C.ar    1  LIG1       -0.0198
      4 C          -1.0450    0.4523   -0.1866 C.ar    1  LIG1        0.0312
      5 S          -2.4158   -0.1102   -1.1082 S.2     1  LIG1       -0.0946
      6 H          -2.4666   -2.5376   -1.4322 H       1  LIG1        0.0706
      7 C          -0.0813   -3.0938   -0.0210 C.1     1  LIG1       -0.0688
      8 C           0.4756   -4.1368    0.2067 C.1     1  LIG1       -0.1139
      9 H           0.9637   -5.0633    0.4035 H       1  LIG1        0.1232
     10 C           1.0053   -0.4628    1.0244 C.3     1  LIG1       -0.0374
     11 H           1.0241    0.4815    1.5699 H       1  LIG1        0.0278
     12 H           1.9021   -0.4990    0.3992 H       1  LIG1        0.0278
     13 H           1.0648   -1.2877    1.7381 H       1  LIG1        0.0278
     14 C          -0.8875    1.8769    0.0864 C.ar    1  LIG1        0.0418
     15 C           0.1960    2.6853   -0.1798 C.ar    1  LIG1        0.0428
     16 C           0.0003    4.0539    0.2298 C.ar    1  LIG1       -0.0274
     17 C          -1.2276    4.2386    0.7805 C.ar    1  LIG1       -0.0196
     18 S          -2.1587    2.7888    0.8352 S.2     1  LIG1       -0.0946
     19 H          -1.6405    5.1617    1.1623 H       1  LIG1        0.0696
     20 C           1.3800    2.2482   -0.8412 C.1     1  LIG1       -0.0682
     21 C           2.3921    1.9169   -1.4039 C.1     1  LIG1       -0.1139
     22 H           3.2791    1.6156   -1.9119 H       1  LIG1        0.1232
     23 C           1.0351    5.1199    0.0420 C.3     1  LIG1       -0.0380
     24 H           0.6768    6.0836    0.4084 H       1  LIG1        0.0278
     25 H           1.2977    5.2293   -1.0141 H       1  LIG1        0.0278
     26 H           1.9569    4.8706    0.5756 H       1  LIG1        0.0278
@<TRIPOS>BOND
     1    22    21    1
     2     6     1    1
     3    21    20    3
     4     5     1   ar
     5     5     4   ar
     6    25    23    1
     7     1     2   ar
     8    20    15    1
     9     2     7    1
    10     2     3   ar
    11     4    14    1
    12     4     3   ar
    13    15    14   ar
    14    15    16   ar
    15     7     8    3
    16    23    16    1
    17    23    24    1
    18    23    26    1
    19    14    18   ar
    20     3    10    1
    21     8     9    1
    22    16    17   ar
    23    12    10    1
    24    17    18   ar
    25    17    19    1
    26    10    11    1
    27    10    13    1
