@<TRIPOS>MOLECULE
mol_data/opt/cam/geoms/mol2/5ei5ei5ei5ei-.out
 50 53 0 0 0
SMALL
GASTEIGER

@<TRIPOS>ATOM
      1 C          -0.9651   -1.3390   -2.5155 C.ar    1  LIG1       -0.0081
      2 C          -0.7021   -1.6796   -1.2173 C.ar    1  LIG1        0.0352
      3 C          -0.4693   -0.5358   -0.3716 C.ar    1  LIG1       -0.0198
      4 C          -0.5549    0.6368   -1.0736 C.ar    1  LIG1        0.0312
      5 S          -0.9278    0.3551   -2.7548 S.2     1  LIG1       -0.0946
      6 H          -1.1787   -2.0113   -3.3332 H       1  LIG1        0.0706
      7 C          -0.6790   -3.0243   -0.7415 C.1     1  LIG1       -0.0688
      8 C          -0.6584   -4.1543   -0.3264 C.1     1  LIG1       -0.1139
      9 H          -0.6408   -5.1568    0.0342 H       1  LIG1        0.1232
     10 C          -0.2056   -0.6602    1.0959 C.3     1  LIG1       -0.0374
     11 H          -0.3992    0.2800    1.6135 H       1  LIG1        0.0278
     12 H           0.8371   -0.9311    1.2850 H       1  LIG1        0.0278
     13 H          -0.8349   -1.4410    1.5294 H       1  LIG1        0.0278
     14 C          -0.3804    2.0011   -0.5867 C.ar    1  LIG1        0.0424
     15 C           0.6933    2.5374    0.0897 C.ar    1  LIG1        0.0435
     16 C           0.5258    3.9264    0.4289 C.ar    1  LIG1       -0.0191
     17 C          -0.6672    4.4209   -0.0243 C.ar    1  LIG1        0.0318
     18 S          -1.6044    3.1976   -0.8365 S.2     1  LIG1       -0.0856
     19 C           1.8805    1.8135    0.4019 C.1     1  LIG1       -0.0682
     20 C           2.8986    1.2307    0.6747 C.1     1  LIG1       -0.1139
     21 H           3.8005    0.7105    0.9018 H       1  LIG1        0.1232
     22 C           1.5521    4.6929    1.2021 C.3     1  LIG1       -0.0374
     23 H           1.1257    5.6003    1.6312 H       1  LIG1        0.0278
     24 H           2.3845    4.9920    0.5587 H       1  LIG1        0.0278
     25 H           1.9604    4.0765    2.0064 H       1  LIG1        0.0278
     26 C          -1.1948    5.7754    0.1019 C.ar    1  LIG1        0.0424
     27 C          -0.6088    6.9606   -0.2855 C.ar    1  LIG1        0.0435
     28 C          -1.4129    8.1206   -0.0027 C.ar    1  LIG1       -0.0191
     29 C          -2.6085    7.7839    0.5722 C.ar    1  LIG1        0.0318
     30 S          -2.7521    6.0629    0.7981 S.2     1  LIG1       -0.0856
     31 C           0.6556    7.0480   -0.9372 C.1     1  LIG1       -0.0682
     32 C           1.7181    7.1536   -1.4945 C.1     1  LIG1       -0.1139
     33 H           2.6536    7.2366   -1.9982 H       1  LIG1        0.1232
     34 C          -0.9501    9.5115   -0.3031 C.3     1  LIG1       -0.0374
     35 H          -1.5181   10.2468    0.2680 H       1  LIG1        0.0278
     36 H          -1.0793    9.7468   -1.3634 H       1  LIG1        0.0278
     37 H           0.1109    9.6189   -0.0666 H       1  LIG1        0.0278
     38 C          -3.6955    8.6643    0.9872 C.ar    1  LIG1        0.0418
     39 C          -4.3708    9.6017    0.2364 C.ar    1  LIG1        0.0428
     40 C          -5.3967   10.2927    0.9771 C.ar    1  LIG1       -0.0274
     41 C          -5.4716    9.8476    2.2583 C.ar    1  LIG1       -0.0196
     42 S          -4.3170    8.6160    2.6056 S.2     1  LIG1       -0.0946
     43 H          -6.1533   10.1823    3.0276 H       1  LIG1        0.0696
     44 C          -4.1337    9.8431   -1.1477 C.1     1  LIG1       -0.0682
     45 C          -3.9658   10.0686   -2.3189 C.1     1  LIG1       -0.1139
     46 H          -3.8170   10.2525   -3.3580 H       1  LIG1        0.1232
     47 C          -6.2670   11.3524    0.3753 C.3     1  LIG1       -0.0380
     48 H          -6.9822   11.7347    1.1058 H       1  LIG1        0.0278
     49 H          -6.8250   10.9616   -0.4804 H       1  LIG1        0.0278
     50 H          -5.6680   12.1913    0.0093 H       1  LIG1        0.0278
@<TRIPOS>BOND
     1    46    45    1
     2     6     1    1
     3     5     1   ar
     4     5     4   ar
     5     1     2   ar
     6    45    44    3
     7    33    32    1
     8    32    31    3
     9    36    34    1
    10     2     7    1
    11     2     3   ar
    12    44    39    1
    13     4    14    1
    14     4     3   ar
    15    31    27    1
    16    18    14   ar
    17    18    17   ar
    18     7     8    3
    19    14    15   ar
    20    49    47    1
    21     3    10    1
    22     8     9    1
    23    34    37    1
    24    34    28    1
    25    34    35    1
    26    27    28   ar
    27    27    26   ar
    28    17    26    1
    29    17    16   ar
    30    28    29   ar
    31    50    47    1
    32    15    19    1
    33    15    16   ar
    34    26    30   ar
    35    39    40   ar
    36    39    38   ar
    37    47    40    1
    38    47    48    1
    39    19    20    3
    40    16    22    1
    41    24    22    1
    42    29    30   ar
    43    29    38    1
    44    20    21    1
    45    40    41   ar
    46    38    42   ar
    47    10    12    1
    48    10    13    1
    49    10    11    1
    50    22    23    1
    51    22    25    1
    52    41    42   ar
    53    41    43    1
