@<TRIPOS>MOLECULE
mol_data/opt/cam/geoms/mol2/5ei5ei-5ei.out
 38 40 0 0 0
SMALL
GASTEIGER

@<TRIPOS>ATOM
      1 C          -1.5000   -1.5990   -1.7823 C.ar    1  LIG1       -0.0081
      2 C          -0.7186   -1.8357   -0.6850 C.ar    1  LIG1        0.0352
      3 C          -0.3005   -0.6268   -0.0208 C.ar    1  LIG1       -0.0198
      4 C          -0.7774    0.4889   -0.6553 C.ar    1  LIG1        0.0312
      5 S          -1.7410    0.0740   -2.0498 S.2     1  LIG1       -0.0946
      6 H          -1.9406   -2.3359   -2.4375 H       1  LIG1        0.0706
      7 C          -0.3681   -3.1418   -0.2307 C.1     1  LIG1       -0.0688
      8 C          -0.0664   -4.2383    0.1648 C.1     1  LIG1       -0.1139
      9 H           0.1976   -5.2116    0.5087 H       1  LIG1        0.1232
     10 C           0.5241   -0.6379    1.2277 C.3     1  LIG1       -0.0374
     11 H           0.4420    0.3084    1.7638 H       1  LIG1        0.0278
     12 H           1.5818   -0.7944    0.9971 H       1  LIG1        0.0278
     13 H           0.2045   -1.4488    1.8862 H       1  LIG1        0.0278
     14 C          -0.5765    1.8901   -0.3016 C.ar    1  LIG1        0.0424
     15 C           0.6103    2.5633   -0.1116 C.ar    1  LIG1        0.0435
     16 C           0.4377    3.9483    0.2414 C.ar    1  LIG1       -0.0191
     17 C          -0.8837    4.3019    0.2858 C.ar    1  LIG1        0.0318
     18 S          -1.9235    2.9510   -0.0719 S.2     1  LIG1       -0.0856
     19 C           1.8965    1.9724   -0.2783 C.1     1  LIG1       -0.0682
     20 C           2.9971    1.5036   -0.4173 C.1     1  LIG1       -0.1139
     21 H           3.9669    1.0835   -0.5541 H       1  LIG1        0.1232
     22 C           1.5933    4.8531    0.5329 C.3     1  LIG1       -0.0374
     23 H           1.2728    5.7326    1.0925 H       1  LIG1        0.0278
     24 H           2.0598    5.2032   -0.3923 H       1  LIG1        0.0278
     25 H           2.3557    4.3231    1.1085 H       1  LIG1        0.0278
     26 C          -1.4643    5.6067    0.5845 C.ar    1  LIG1        0.0418
     27 C          -1.2062    6.8170   -0.0215 C.ar    1  LIG1        0.0428
     28 C          -1.9712    7.9061    0.5328 C.ar    1  LIG1       -0.0274
     29 C          -2.7903    7.4826    1.5303 C.ar    1  LIG1       -0.0196
     30 S          -2.6527    5.7915    1.8341 S.2     1  LIG1       -0.0946
     31 H          -3.4771    8.0823    2.1108 H       1  LIG1        0.0696
     32 C          -0.3180    6.9895   -1.1222 C.1     1  LIG1       -0.0682
     33 C           0.4185    7.1714   -2.0578 C.1     1  LIG1       -0.1139
     34 H           1.0643    7.3197   -2.8924 H       1  LIG1        0.1232
     35 C          -1.8665    9.3151    0.0366 C.3     1  LIG1       -0.0380
     36 H          -2.5396    9.9758    0.5859 H       1  LIG1        0.0278
     37 H          -2.1167    9.3754   -1.0264 H       1  LIG1        0.0278
     38 H          -0.8467    9.6953    0.1463 H       1  LIG1        0.0278
@<TRIPOS>BOND
     1    34    33    1
     2     6     1    1
     3    33    32    3
     4     5     1   ar
     5     5     4   ar
     6     1     2   ar
     7    32    27    1
     8    37    35    1
     9     2     7    1
    10     2     3   ar
    11     4    14    1
    12     4     3   ar
    13    21    20    1
    14    20    19    3
    15    24    22    1
    16    14    15   ar
    17    14    18   ar
    18    19    15    1
    19     7     8    3
    20    15    16   ar
    21    18    17   ar
    22    27    28   ar
    23    27    26   ar
    24     3    10    1
    25    35    38    1
    26    35    28    1
    27    35    36    1
    28     8     9    1
    29    16    17   ar
    30    16    22    1
    31    17    26    1
    32    28    29   ar
    33    22    23    1
    34    22    25    1
    35    26    30   ar
    36    12    10    1
    37    10    11    1
    38    10    13    1
    39    29    30   ar
    40    29    31    1
