@<TRIPOS>MOLECULE
mol_data/opt/cam/geoms/mol2/5ei5ei-5ei5ei-.out
 50 53 0 0 0
SMALL
GASTEIGER

@<TRIPOS>ATOM
      1 C          -0.9904   -1.3233   -2.5402 C.ar    1  LIG1       -0.0081
      2 C          -0.7173   -1.6723   -1.2464 C.ar    1  LIG1        0.0352
      3 C          -0.4767   -0.5341   -0.3954 C.ar    1  LIG1       -0.0198
      4 C          -0.5670    0.6430   -1.0893 C.ar    1  LIG1        0.0312
      5 S          -0.9536    0.3723   -2.7691 S.2     1  LIG1       -0.0946
      6 H          -1.2113   -1.9903   -3.3604 H       1  LIG1        0.0706
      7 C          -0.6916   -3.0200   -0.7793 C.1     1  LIG1       -0.0688
      8 C          -0.6686   -4.1526   -0.3714 C.1     1  LIG1       -0.1139
      9 H          -0.6490   -5.1574   -0.0174 H       1  LIG1        0.1232
     10 C          -0.2013   -0.6679    1.0692 C.3     1  LIG1       -0.0374
     11 H          -0.3905    0.2691    1.5943 H       1  LIG1        0.0278
     12 H           0.8429   -0.9401    1.2481 H       1  LIG1        0.0278
     13 H          -0.8272   -1.4513    1.5027 H       1  LIG1        0.0278
     14 C          -0.3874    2.0041   -0.5952 C.ar    1  LIG1        0.0424
     15 C           0.6921    2.5353    0.0759 C.ar    1  LIG1        0.0435
     16 C           0.5285    3.9223    0.4252 C.ar    1  LIG1       -0.0191
     17 C          -0.6678    4.4205   -0.0152 C.ar    1  LIG1        0.0318
     18 S          -1.6124    3.2030   -0.8276 S.2     1  LIG1       -0.0856
     19 C           1.8812    1.8086    0.3739 C.1     1  LIG1       -0.0682
     20 C           2.9010    1.2233    0.6348 C.1     1  LIG1       -0.1139
     21 H           3.8043    0.7010    0.8513 H       1  LIG1        0.1232
     22 C           1.5616    4.6831    1.1949 C.3     1  LIG1       -0.0374
     23 H           1.1393    5.5879    1.6333 H       1  LIG1        0.0278
     24 H           2.3888    4.9859    0.5467 H       1  LIG1        0.0278
     25 H           1.9760    4.0613    1.9918 H       1  LIG1        0.0278
     26 C          -1.1933    5.7746    0.1238 C.ar    1  LIG1        0.0424
     27 C          -0.6096    6.9617   -0.2608 C.ar    1  LIG1        0.0435
     28 C          -1.4104    8.1206    0.0358 C.ar    1  LIG1       -0.0191
     29 C          -2.6016    7.7810    0.6182 C.ar    1  LIG1        0.0318
     30 S          -2.7447    6.0588    0.8343 S.2     1  LIG1       -0.0856
     31 C           0.6497    7.0524   -0.9221 C.1     1  LIG1       -0.0682
     32 C           1.7077    7.1607   -1.4872 C.1     1  LIG1       -0.1139
     33 H           2.6391    7.2461   -1.9980 H       1  LIG1        0.1232
     34 C          -0.9491    9.5130   -0.2594 C.3     1  LIG1       -0.0374
     35 H          -1.5115   10.2450    0.3213 H       1  LIG1        0.0278
     36 H          -1.0871    9.7553   -1.3170 H       1  LIG1        0.0278
     37 H           0.1141    9.6180   -0.0313 H       1  LIG1        0.0278
     38 C          -3.6845    8.6596    1.0476 C.ar    1  LIG1        0.0418
     39 C          -4.3652    9.6022    0.3083 C.ar    1  LIG1        0.0428
     40 C          -5.3846   10.2892    1.0616 C.ar    1  LIG1       -0.0274
     41 C          -5.4495    9.8360    2.3406 C.ar    1  LIG1       -0.0196
     42 S          -4.2930    8.6014    2.6706 S.2     1  LIG1       -0.0946
     43 H          -6.1246   10.1661    3.1174 H       1  LIG1        0.0696
     44 C          -4.1391    9.8524   -1.0761 C.1     1  LIG1       -0.0682
     45 C          -3.9805   10.0851   -2.2472 C.1     1  LIG1       -0.1139
     46 H          -3.8401   10.2756   -3.2863 H       1  LIG1        0.1232
     47 C          -6.2588   11.3534    0.4737 C.3     1  LIG1       -0.0380
     48 H          -6.9679   11.7314    1.2124 H       1  LIG1        0.0278
     49 H          -6.8239   10.9685   -0.3800 H       1  LIG1        0.0278
     50 H          -5.6622   12.1942    0.1084 H       1  LIG1        0.0278
@<TRIPOS>BOND
     1     6     1    1
     2    46    45    1
     3     5     1   ar
     4     5     4   ar
     5     1     2   ar
     6    45    44    3
     7    33    32    1
     8    32    31    3
     9    36    34    1
    10     2     7    1
    11     2     3   ar
    12     4    14    1
    13     4     3   ar
    14    44    39    1
    15    31    27    1
    16    18    14   ar
    17    18    17   ar
    18     7     8    3
    19    14    15   ar
    20     3    10    1
    21    49    47    1
    22     8     9    1
    23    27    28   ar
    24    27    26   ar
    25    34    37    1
    26    34    28    1
    27    34    35    1
    28    17    26    1
    29    17    16   ar
    30    28    29   ar
    31    15    19    1
    32    15    16   ar
    33    50    47    1
    34    26    30   ar
    35    39    38   ar
    36    39    40   ar
    37    19    20    3
    38    16    22    1
    39    47    40    1
    40    47    48    1
    41    24    22    1
    42    29    30   ar
    43    29    38    1
    44    20    21    1
    45    38    42   ar
    46    40    41   ar
    47    10    12    1
    48    10    13    1
    49    10    11    1
    50    22    23    1
    51    22    25    1
    52    41    42   ar
    53    41    43    1
