@<TRIPOS>MOLECULE
mol_data/opt/cam/geoms/mol2/5ei5ei-5ei5ei.out
 50 53 0 0 0
SMALL
GASTEIGER

@<TRIPOS>ATOM
      1 C          -1.0011   -1.3183   -2.5485 C.ar    1  LIG1       -0.0081
      2 C          -0.7259   -1.6703   -1.2559 C.ar    1  LIG1        0.0352
      3 C          -0.4827   -0.5341   -0.4030 C.ar    1  LIG1       -0.0198
      4 C          -0.5732    0.6445   -1.0942 C.ar    1  LIG1        0.0312
      5 S          -0.9632    0.3777   -2.7739 S.2     1  LIG1       -0.0946
      6 H          -1.2241   -1.9834   -3.3697 H       1  LIG1        0.0706
      7 C          -0.7004   -3.0190   -0.7917 C.1     1  LIG1       -0.0688
      8 C          -0.6777   -4.1525   -0.3862 C.1     1  LIG1       -0.1139
      9 H          -0.6584   -5.1580   -0.0343 H       1  LIG1        0.1232
     10 C          -0.2046   -0.6712    1.0608 C.3     1  LIG1       -0.0374
     11 H          -0.3915    0.2649    1.5882 H       1  LIG1        0.0278
     12 H           0.8395   -0.9453    1.2372 H       1  LIG1        0.0278
     13 H          -0.8309   -1.4546    1.4939 H       1  LIG1        0.0278
     14 C          -0.3914    2.0044   -0.5976 C.ar    1  LIG1        0.0424
     15 C           0.6899    2.5333    0.0724 C.ar    1  LIG1        0.0435
     16 C           0.5283    3.9197    0.4249 C.ar    1  LIG1       -0.0191
     17 C          -0.6684    4.4199   -0.0121 C.ar    1  LIG1        0.0318
     18 S          -1.6158    3.2050   -0.8251 S.2     1  LIG1       -0.0856
     19 C           1.8790    1.8048    0.3666 C.1     1  LIG1       -0.0682
     20 C           2.8987    1.2180    0.6242 C.1     1  LIG1       -0.1139
     21 H           3.8019    0.6944    0.8379 H       1  LIG1        0.1232
     22 C           1.5636    4.6780    1.1942 C.3     1  LIG1       -0.0374
     23 H           1.1431    5.5823    1.6351 H       1  LIG1        0.0278
     24 H           2.3900    4.9811    0.5449 H       1  LIG1        0.0278
     25 H           1.9789    4.0541    1.9891 H       1  LIG1        0.0278
     26 C          -1.1923    5.7742    0.1307 C.ar    1  LIG1        0.0424
     27 C          -0.6083    6.9616   -0.2526 C.ar    1  LIG1        0.0435
     28 C          -1.4074    8.1205    0.0480 C.ar    1  LIG1       -0.0191
     29 C          -2.5978    7.7809    0.6321 C.ar    1  LIG1        0.0318
     30 S          -2.7421    6.0584    0.8450 S.2     1  LIG1       -0.0856
     31 C           0.6497    7.0524   -0.9162 C.1     1  LIG1       -0.0682
     32 C           1.7067    7.1608   -1.4833 C.1     1  LIG1       -0.1139
     33 H           2.6372    7.2465   -1.9957 H       1  LIG1        0.1232
     34 C          -0.9454    9.5131   -0.2454 C.3     1  LIG1       -0.0374
     35 H          -1.5063   10.2445    0.3376 H       1  LIG1        0.0278
     36 H          -1.0848    9.7575   -1.3023 H       1  LIG1        0.0278
     37 H           0.1182    9.6168   -0.0187 H       1  LIG1        0.0278
     38 C          -3.6790    8.6596    1.0655 C.ar    1  LIG1        0.0418
     39 C          -4.3603    9.6043    0.3294 C.ar    1  LIG1        0.0428
     40 C          -5.3775   10.2908    1.0862 C.ar    1  LIG1       -0.0274
     41 C          -5.4402    9.8351    2.3644 C.ar    1  LIG1       -0.0196
     42 S          -4.2842    8.5987    2.6896 S.2     1  LIG1       -0.0946
     43 H          -6.1135   10.1643    3.1432 H       1  LIG1        0.0696
     44 C          -4.1368    9.8570   -1.0550 C.1     1  LIG1       -0.0682
     45 C          -3.9804   10.0919   -2.2259 C.1     1  LIG1       -0.1139
     46 H          -3.8418   10.2843   -3.2649 H       1  LIG1        0.1232
     47 C          -6.2520   11.3569    0.5022 C.3     1  LIG1       -0.0380
     48 H          -6.9591   11.7342    1.2431 H       1  LIG1        0.0278
     49 H          -6.8193   10.9742   -0.3511 H       1  LIG1        0.0278
     50 H          -5.6553   12.1979    0.1372 H       1  LIG1        0.0278
@<TRIPOS>BOND
     1     6     1    1
     2    46    45    1
     3     5     1   ar
     4     5     4   ar
     5     1     2   ar
     6    45    44    3
     7    33    32    1
     8    32    31    3
     9    36    34    1
    10     2     7    1
    11     2     3   ar
    12     4    14    1
    13     4     3   ar
    14    44    39    1
    15    31    27    1
    16    18    14   ar
    17    18    17   ar
    18     7     8    3
    19    14    15   ar
    20     3    10    1
    21     8     9    1
    22    49    47    1
    23    27    28   ar
    24    27    26   ar
    25    34    37    1
    26    34    28    1
    27    34    35    1
    28    17    26    1
    29    17    16   ar
    30    28    29   ar
    31    15    19    1
    32    15    16   ar
    33    26    30   ar
    34    50    47    1
    35    39    38   ar
    36    39    40   ar
    37    19    20    3
    38    16    22    1
    39    47    40    1
    40    47    48    1
    41    24    22    1
    42    20    21    1
    43    29    30   ar
    44    29    38    1
    45    10    12    1
    46    10    13    1
    47    10    11    1
    48    38    42   ar
    49    40    41   ar
    50    22    23    1
    51    22    25    1
    52    41    42   ar
    53    41    43    1
