@<TRIPOS>MOLECULE
mol_data/opt/cam/geoms/mol2/5ei5ei-.out
 26 27 0 0 0
SMALL
GASTEIGER

@<TRIPOS>ATOM
      1 C          -1.9060   -1.7375   -0.9729 C.ar    1  LIG1       -0.0081
      2 C          -0.7336   -1.8504   -0.2779 C.ar    1  LIG1        0.0352
      3 C          -0.2318   -0.5823    0.1889 C.ar    1  LIG1       -0.0198
      4 C          -1.0468    0.4524   -0.1854 C.ar    1  LIG1        0.0312
      5 S          -2.4259   -0.1113   -1.0939 S.2     1  LIG1       -0.0946
      6 H          -2.4802   -2.5392   -1.4133 H       1  LIG1        0.0706
      7 C          -0.0828   -3.0938   -0.0222 C.1     1  LIG1       -0.0688
      8 C           0.4757   -4.1366    0.2024 C.1     1  LIG1       -0.1139
      9 H           0.9652   -5.0629    0.3966 H       1  LIG1        0.1232
     10 C           1.0138   -0.4612    1.0090 C.3     1  LIG1       -0.0374
     11 H           1.0373    0.4838    1.5531 H       1  LIG1        0.0278
     12 H           1.9050   -0.4981    0.3758 H       1  LIG1        0.0278
     13 H           1.0798   -1.2852    1.7232 H       1  LIG1        0.0278
     14 C          -0.8864    1.8774    0.0836 C.ar    1  LIG1        0.0418
     15 C           0.1949    2.6850   -0.1938 C.ar    1  LIG1        0.0428
     16 C           0.0034    4.0543    0.2152 C.ar    1  LIG1       -0.0274
     17 C          -1.2193    4.2404    0.7768 C.ar    1  LIG1       -0.0196
     18 S          -2.1504    2.7910    0.8425 S.2     1  LIG1       -0.0946
     19 H          -1.6284    5.1643    1.1607 H       1  LIG1        0.0696
     20 C           1.3727    2.2462   -0.8652 C.1     1  LIG1       -0.0682
     21 C           2.3793    1.9134   -1.4366 C.1     1  LIG1       -0.1139
     22 H           3.2616    1.6109   -1.9522 H       1  LIG1        0.1232
     23 C           1.0368    5.1197    0.0162 C.3     1  LIG1       -0.0380
     24 H           0.6821    6.0841    0.3841 H       1  LIG1        0.0278
     25 H           1.2900    5.2270   -1.0424 H       1  LIG1        0.0278
     26 H           1.9633    4.8710    0.5420 H       1  LIG1        0.0278
@<TRIPOS>BOND
     1    22    21    1
     2    21    20    3
     3     6     1    1
     4     5     1   ar
     5     5     4   ar
     6    25    23    1
     7     1     2   ar
     8    20    15    1
     9     2     7    1
    10     2     3   ar
    11    15    14   ar
    12    15    16   ar
    13     4    14    1
    14     4     3   ar
    15     7     8    3
    16    23    16    1
    17    23    24    1
    18    23    26    1
    19    14    18   ar
    20     3    10    1
    21     8     9    1
    22    16    17   ar
    23    12    10    1
    24    17    18   ar
    25    17    19    1
    26    10    11    1
    27    10    13    1
