@<TRIPOS>MOLECULE
mol_data/opt/cam/geoms/mol2/5ei5ei5ei5ei.out
 50 53 0 0 0
SMALL
GASTEIGER

@<TRIPOS>ATOM
      1 C          -0.9726   -1.3336   -2.5243 C.ar    1  LIG1       -0.0081
      2 C          -0.7098   -1.6775   -1.2270 C.ar    1  LIG1        0.0352
      3 C          -0.4756   -0.5360   -0.3787 C.ar    1  LIG1       -0.0198
      4 C          -0.5601    0.6383   -1.0779 C.ar    1  LIG1        0.0312
      5 S          -0.9336    0.3610   -2.7597 S.2     1  LIG1       -0.0946
      6 H          -1.1872   -2.0038   -3.3436 H       1  LIG1        0.0706
      7 C          -0.6881   -3.0233   -0.7543 C.1     1  LIG1       -0.0688
      8 C          -0.6687   -4.1543   -0.3417 C.1     1  LIG1       -0.1139
      9 H          -0.6522   -5.1577    0.0165 H       1  LIG1        0.1232
     10 C          -0.2118   -0.6641    1.0885 C.3     1  LIG1       -0.0374
     11 H          -0.4035    0.2754    1.6082 H       1  LIG1        0.0278
     12 H           0.8304   -0.9374    1.2768 H       1  LIG1        0.0278
     13 H          -0.8426   -1.4446    1.5205 H       1  LIG1        0.0278
     14 C          -0.3838    2.0014   -0.5880 C.ar    1  LIG1        0.0424
     15 C           0.6906    2.5350    0.0893 C.ar    1  LIG1        0.0435
     16 C           0.5248    3.9234    0.4317 C.ar    1  LIG1       -0.0191
     17 C          -0.6678    4.4202   -0.0200 C.ar    1  LIG1        0.0318
     18 S          -1.6066    3.1998   -0.8347 S.2     1  LIG1       -0.0856
     19 C           1.8771    1.8089    0.3995 C.1     1  LIG1       -0.0682
     20 C           2.8946    1.2243    0.6707 C.1     1  LIG1       -0.1139
     21 H           3.7959    0.7024    0.8965 H       1  LIG1        0.1232
     22 C           1.5523    4.6870    1.2063 C.3     1  LIG1       -0.0374
     23 H           1.1272    5.5941    1.6371 H       1  LIG1        0.0278
     24 H           2.3850    4.9862    0.5633 H       1  LIG1        0.0278
     25 H           1.9598    4.0685    2.0093 H       1  LIG1        0.0278
     26 C          -1.1938    5.7751    0.1093 C.ar    1  LIG1        0.0424
     27 C          -0.6067    6.9604   -0.2757 C.ar    1  LIG1        0.0435
     28 C          -1.4093    8.1208    0.0099 C.ar    1  LIG1       -0.0191
     29 C          -2.6051    7.7841    0.5844 C.ar    1  LIG1        0.0318
     30 S          -2.7506    6.0628    0.8066 S.2     1  LIG1       -0.0856
     31 C           0.6577    7.0479   -0.9276 C.1     1  LIG1       -0.0682
     32 C           1.7201    7.1534   -1.4850 C.1     1  LIG1       -0.1139
     33 H           2.6555    7.2366   -1.9887 H       1  LIG1        0.1232
     34 C          -0.9451    9.5118   -0.2876 C.3     1  LIG1       -0.0374
     35 H          -1.5126   10.2465    0.2847 H       1  LIG1        0.0278
     36 H          -1.0735    9.7492   -1.3475 H       1  LIG1        0.0278
     37 H           0.1159    9.6177   -0.0504 H       1  LIG1        0.0278
     38 C          -3.6911    8.6647    1.0018 C.ar    1  LIG1        0.0418
     39 C          -4.3657    9.6044    0.2532 C.ar    1  LIG1        0.0428
     40 C          -5.3907   10.2949    0.9957 C.ar    1  LIG1       -0.0274
     41 C          -5.4656    9.8471    2.2760 C.ar    1  LIG1       -0.0196
     42 S          -4.3122    8.6135    2.6202 S.2     1  LIG1       -0.0946
     43 H          -6.1467   10.1807    3.0462 H       1  LIG1        0.0696
     44 C          -4.1287    9.8488   -1.1305 C.1     1  LIG1       -0.0682
     45 C          -3.9609   10.0765   -2.3012 C.1     1  LIG1       -0.1139
     46 H          -3.8124   10.2627   -3.3400 H       1  LIG1        0.1232
     47 C          -6.2600   11.3569    0.3966 C.3     1  LIG1       -0.0380
     48 H          -6.9745   11.7384    1.1282 H       1  LIG1        0.0278
     49 H          -6.8188   10.9685   -0.4598 H       1  LIG1        0.0278
     50 H          -5.6603   12.1959    0.0321 H       1  LIG1        0.0278
@<TRIPOS>BOND
     1     6     1    1
     2    46    45    1
     3     5     1   ar
     4     5     4   ar
     5     1     2   ar
     6    45    44    3
     7    33    32    1
     8    32    31    3
     9    36    34    1
    10     2     7    1
    11     2     3   ar
    12    44    39    1
    13     4    14    1
    14     4     3   ar
    15    31    27    1
    16    18    14   ar
    17    18    17   ar
    18     7     8    3
    19    14    15   ar
    20    49    47    1
    21     3    10    1
    22     8     9    1
    23    34    37    1
    24    34    28    1
    25    34    35    1
    26    27    28   ar
    27    27    26   ar
    28    17    26    1
    29    17    16   ar
    30    28    29   ar
    31    50    47    1
    32    15    19    1
    33    15    16   ar
    34    26    30   ar
    35    39    40   ar
    36    39    38   ar
    37    47    40    1
    38    47    48    1
    39    19    20    3
    40    16    22    1
    41    24    22    1
    42    29    30   ar
    43    29    38    1
    44    20    21    1
    45    40    41   ar
    46    38    42   ar
    47    10    12    1
    48    10    13    1
    49    10    11    1
    50    22    23    1
    51    22    25    1
    52    41    42   ar
    53    41    43    1
