@<TRIPOS>MOLECULE
mol_data/opt/cam/geoms/mol2/5el.out
 15 15 0 0 0
SMALL
GASTEIGER

@<TRIPOS>ATOM
      1 C          -2.1657   -1.7308    0.0004 C.ar    1  LIG1       -0.0053
      2 C          -0.7939   -1.7797   -0.0002 C.ar    1  LIG1        0.0732
      3 C          -0.2252   -0.4470   -0.0004 C.ar    1  LIG1        0.1424
      4 C          -1.1847    0.5226    0.0001 C.ar    1  LIG1        0.0186
      5 S          -2.7741   -0.1350    0.0008 S.2     1  LIG1       -0.1001
      6 H          -2.8305   -2.5816    0.0006 H       1  LIG1        0.0707
      7 H          -1.0117    1.5873    0.0001 H       1  LIG1        0.0730
      8 C          -0.1166   -3.0368   -0.0006 C.1     1  LIG1       -0.0655
      9 C           0.3913   -4.1288   -0.0010 C.1     1  LIG1       -0.1138
     10 H           0.8489   -5.0910   -0.0013 H       1  LIG1        0.1232
     11 O           1.0759   -0.0751   -0.0009 O.3     1  LIG1       -0.4934
     12 C           2.1005   -1.0524   -0.0010 C.3     1  LIG1        0.0789
     13 H           3.0364   -0.4931   -0.0013 H       1  LIG1        0.0660
     14 H           2.0564   -1.6857    0.8890 H       1  LIG1        0.0660
     15 H           2.0560   -1.6859   -0.8909 H       1  LIG1        0.0660
@<TRIPOS>BOND
     1    15    12    1
     2    13    12    1
     3    10     9    1
     4    12    11    1
     5    12    14    1
     6     9     8    3
     7    11     3    1
     8     8     2    1
     9     3     2   ar
    10     3     4   ar
    11     2     1   ar
    12     4     7    1
    13     4     5   ar
    14     1     6    1
    15     1     5   ar
