@<TRIPOS>MOLECULE
mol_data/opt/cam/geoms/mol2/5el5el5el-5el-.out
 54 57 0 0 0
SMALL
GASTEIGER

@<TRIPOS>ATOM
      1 C          -1.2253   -1.9550    2.0347 C.ar    1  LIG1       -0.0047
      2 C          -0.7322   -2.0892    0.7648 C.ar    1  LIG1        0.0739
      3 C          -0.3709   -0.8113    0.1987 C.ar    1  LIG1        0.1506
      4 C          -0.6077    0.2359    1.0523 C.ar    1  LIG1        0.0700
      5 S          -1.2757   -0.3277    2.5575 S.2     1  LIG1       -0.0911
      6 H          -1.5760   -2.7520    2.6735 H       1  LIG1        0.0707
      7 C          -0.6763   -3.3469    0.0951 C.1     1  LIG1       -0.0654
      8 C          -0.6529   -4.4246   -0.4415 C.1     1  LIG1       -0.1138
      9 H          -0.6399   -5.3747   -0.9240 H       1  LIG1        0.1232
     10 O           0.0569   -0.5980   -1.0660 O.3     1  LIG1       -0.4927
     11 C           1.1726   -1.3620   -1.5184 C.3     1  LIG1        0.0789
     12 H           1.4613   -0.9270   -2.4751 H       1  LIG1        0.0660
     13 H           2.0074   -1.2760   -0.8180 H       1  LIG1        0.0660
     14 H           0.9078   -2.4114   -1.6562 H       1  LIG1        0.0660
     15 C          -0.4099    1.6552    0.7987 C.ar    1  LIG1        0.0491
     16 C           0.7218    2.3023    0.3586 C.ar    1  LIG1        0.0823
     17 C           0.5217    3.7205    0.2260 C.ar    1  LIG1        0.1513
     18 C          -0.7339    4.1337    0.5820 C.ar    1  LIG1        0.0706
     19 S          -1.7043    2.7754    1.0707 S.2     1  LIG1       -0.0820
     20 C           1.9839    1.6861    0.1292 C.1     1  LIG1       -0.0648
     21 C           3.0741    1.2082   -0.0543 C.1     1  LIG1       -0.1138
     22 H           4.0436    0.7909   -0.2007 H       1  LIG1        0.1232
     23 O           1.4916    4.5741   -0.1842 O.3     1  LIG1       -0.4927
     24 C           1.8051    4.5017   -1.5725 C.3     1  LIG1        0.0789
     25 H           2.5975    5.2301   -1.7443 H       1  LIG1        0.0660
     26 H           2.1613    3.5052   -1.8487 H       1  LIG1        0.0660
     27 H           0.9320    4.7616   -2.1806 H       1  LIG1        0.0660
     28 C          -1.2680    5.4855    0.5676 C.ar    1  LIG1        0.0491
     29 C          -0.7023    6.6291    1.0891 C.ar    1  LIG1        0.0823
     30 C          -1.5338    7.7881    0.8806 C.ar    1  LIG1        0.1513
     31 C          -2.7089    7.5042    0.2357 C.ar    1  LIG1        0.0706
     32 S          -2.8079    5.8122   -0.1521 S.2     1  LIG1       -0.0820
     33 C           0.4890    6.6281    1.8682 C.1     1  LIG1       -0.0648
     34 C           1.4821    6.6111    2.5481 C.1     1  LIG1       -0.1138
     35 H           2.3603    6.5840    3.1509 H       1  LIG1        0.1232
     36 O          -1.2760    9.0258    1.3627 O.3     1  LIG1       -0.4927
     37 C          -0.0351    9.6206    0.9862 C.3     1  LIG1        0.0789
     38 H          -0.0662   10.6399    1.3711 H       1  LIG1        0.0660
     39 H           0.8109    9.0885    1.4239 H       1  LIG1        0.0660
     40 H           0.0601    9.6494   -0.1021 H       1  LIG1        0.0660
     41 C          -3.8083    8.4077   -0.0708 C.ar    1  LIG1        0.0485
     42 C          -3.7831    9.6029   -0.7524 C.ar    1  LIG1        0.0816
     43 C          -5.0930   10.1991   -0.8471 C.ar    1  LIG1        0.1430
     44 C          -6.0639    9.4538   -0.2584 C.ar    1  LIG1        0.0193
     45 S          -5.4223    8.0155    0.4365 S.2     1  LIG1       -0.0910
     46 H          -7.1183    9.6805   -0.2175 H       1  LIG1        0.0731
     47 C          -2.6393   10.1643   -1.3858 C.1     1  LIG1       -0.0648
     48 C          -1.7034   10.6641   -1.9561 C.1     1  LIG1       -0.1138
     49 H          -0.8806   11.0988   -2.4752 H       1  LIG1        0.1232
     50 O          -5.3483   11.3555   -1.5163 O.3     1  LIG1       -0.4933
     51 C          -4.8714   12.5338   -0.8765 C.3     1  LIG1        0.0789
     52 H          -5.1392   13.3668   -1.5270 H       1  LIG1        0.0660
     53 H          -5.3495   12.6661    0.1007 H       1  LIG1        0.0660
     54 H          -3.7853   12.5085   -0.7496 H       1  LIG1        0.0660
@<TRIPOS>BOND
     1    49    48    1
     2    12    11    1
     3    27    24    1
     4    48    47    3
     5    26    24    1
     6    25    24    1
     7    14    11    1
     8    24    23    1
     9    52    51    1
    10    11    10    1
    11    11    13    1
    12    50    51    1
    13    50    43    1
    14    47    42    1
    15    10     3    1
    16     9     8    1
    17    51    54    1
    18    51    53    1
    19    43    42   ar
    20    43    44   ar
    21    42    41   ar
    22     8     7    3
    23    44    46    1
    24    44    45   ar
    25    22    21    1
    26    23    17    1
    27    32    31   ar
    28    32    28   ar
    29    40    37    1
    30    41    31    1
    31    41    45   ar
    32    21    20    3
    33     7     2    1
    34    20    16    1
    35     3     2   ar
    36     3     4   ar
    37    17    16   ar
    38    17    18   ar
    39    31    30   ar
    40    16    15   ar
    41    28    18    1
    42    28    29   ar
    43    18    19   ar
    44     2     1   ar
    45    15     4    1
    46    15    19   ar
    47    30    29   ar
    48    30    36    1
    49    37    36    1
    50    37    38    1
    51    37    39    1
    52     4     5   ar
    53    29    33    1
    54    33    34    3
    55     1     5   ar
    56     1     6    1
    57    34    35    1
