@<TRIPOS>MOLECULE
mol_data/opt/cam/geoms/mol2/5el5el-5el.out
 41 43 0 0 0
SMALL
GASTEIGER

@<TRIPOS>ATOM
      1 C          -1.8894   -1.8446    1.4817 C.ar    1  LIG1       -0.0047
      2 C          -0.9337   -2.0620    0.5262 C.ar    1  LIG1        0.0739
      3 C          -0.3642   -0.8224    0.0539 C.ar    1  LIG1        0.1506
      4 C          -0.9098    0.2803    0.6597 C.ar    1  LIG1        0.0700
      5 S          -2.1263   -0.1841    1.8150 S.2     1  LIG1       -0.0911
      6 H          -2.4733   -2.5990    1.9879 H       1  LIG1        0.0707
      7 C          -0.6278   -3.3634    0.0301 C.1     1  LIG1       -0.0654
      8 C          -0.4017   -4.4757   -0.3716 C.1     1  LIG1       -0.1138
      9 H          -0.2062   -5.4575   -0.7372 H       1  LIG1        0.1232
     10 O           0.5340   -0.6991   -0.9497 O.3     1  LIG1       -0.4927
     11 C           1.7395   -1.4533   -0.8417 C.3     1  LIG1        0.0789
     12 H           2.3826   -1.1019   -1.6484 H       1  LIG1        0.0660
     13 H           2.2277   -1.2610    0.1172 H       1  LIG1        0.0660
     14 H           1.5534   -2.5220   -0.9591 H       1  LIG1        0.0660
     15 C          -0.6159    1.6816    0.3978 C.ar    1  LIG1        0.0491
     16 C           0.6007    2.3241    0.4042 C.ar    1  LIG1        0.0823
     17 C           0.4795    3.7234    0.0922 C.ar    1  LIG1        0.1513
     18 C          -0.8094    4.1288   -0.1241 C.ar    1  LIG1        0.0706
     19 S          -1.9024    2.7855    0.0357 S.2     1  LIG1       -0.0820
     20 C           1.8445    1.7270    0.7528 C.1     1  LIG1       -0.0648
     21 C           2.9138    1.2675    1.0625 C.1     1  LIG1       -0.1138
     22 H           3.8581    0.8679    1.3530 H       1  LIG1        0.1232
     23 O           1.5379    4.5699    0.0473 O.3     1  LIG1       -0.4927
     24 C           2.3839    4.4099   -1.0876 C.3     1  LIG1        0.0789
     25 H           3.1821    5.1443   -0.9789 H       1  LIG1        0.0660
     26 H           2.8166    3.4061   -1.1237 H       1  LIG1        0.0660
     27 H           1.8317    4.6051   -2.0132 H       1  LIG1        0.0660
     28 C          -1.2850    5.4639   -0.4510 C.ar    1  LIG1        0.0485
     29 C          -0.9861    6.6527    0.1756 C.ar    1  LIG1        0.0816
     30 C          -1.6606    7.7694   -0.4405 C.ar    1  LIG1        0.1430
     31 C          -2.4465    7.4087   -1.4880 C.ar    1  LIG1        0.0193
     32 S          -2.3902    5.7103   -1.7687 S.2     1  LIG1       -0.0910
     33 H          -3.0608    8.0607   -2.0901 H       1  LIG1        0.0731
     34 C          -0.1905    6.7753    1.3485 C.1     1  LIG1       -0.0648
     35 C           0.4683    6.8966    2.3484 C.1     1  LIG1       -0.1138
     36 H           1.0493    6.9866    3.2370 H       1  LIG1        0.1232
     37 O          -1.5821    9.0474    0.0171 O.3     1  LIG1       -0.4933
     38 C          -0.3195    9.6771   -0.1701 C.3     1  LIG1        0.0789
     39 H          -0.4104   10.6781    0.2524 H       1  LIG1        0.0660
     40 H           0.4778    9.1370    0.3478 H       1  LIG1        0.0660
     41 H          -0.0779    9.7528   -1.2365 H       1  LIG1        0.0660
@<TRIPOS>BOND
     1    33    31    1
     2    27    24    1
     3    32    31   ar
     4    32    28   ar
     5    12    11    1
     6    31    30   ar
     7    41    38    1
     8    26    24    1
     9    24    25    1
    10    24    23    1
    11    14    11    1
    12    10    11    1
    13    10     3    1
    14    11    13    1
    15     9     8    1
    16    28    18    1
    17    28    29   ar
    18    30    37    1
    19    30    29   ar
    20     8     7    3
    21    38    37    1
    22    38    39    1
    23    38    40    1
    24    18    19   ar
    25    18    17   ar
    26     7     2    1
    27    19    15   ar
    28    23    17    1
    29     3     2   ar
    30     3     4   ar
    31    17    16   ar
    32    29    34    1
    33    15    16   ar
    34    15     4    1
    35    16    20    1
    36     2     1   ar
    37     4     5   ar
    38    20    21    3
    39    21    22    1
    40    34    35    3
    41     1     5   ar
    42     1     6    1
    43    35    36    1
