@<TRIPOS>MOLECULE
mol_data/opt/cam/geoms/mol2/5el5el5el.out
 41 43 0 0 0
SMALL
GASTEIGER

@<TRIPOS>ATOM
      1 C          -2.0843   -2.0307    0.5187 C.ar    1  LIG1       -0.0047
      2 C          -0.9151   -2.0516   -0.1929 C.ar    1  LIG1        0.0739
      3 C          -0.3134   -0.7414   -0.2629 C.ar    1  LIG1        0.1506
      4 C          -1.0469    0.2176    0.3885 C.ar    1  LIG1        0.0700
      5 S          -2.4819   -0.4701    1.0938 S.2     1  LIG1       -0.0911
      6 H          -2.7333   -2.8724    0.7102 H       1  LIG1        0.0707
      7 C          -0.4322   -3.2299   -0.8349 C.1     1  LIG1       -0.0654
      8 C          -0.0612   -4.2425   -1.3703 C.1     1  LIG1       -0.1138
      9 H           0.2654   -5.1341   -1.8543 H       1  LIG1        0.1232
     10 O           0.7935   -0.4146   -0.9672 O.3     1  LIG1       -0.4927
     11 C           1.9694   -1.1869   -0.7368 C.3     1  LIG1        0.0789
     12 H           2.7747   -0.6610   -1.2493 H       1  LIG1        0.0660
     13 H           2.1950   -1.2353    0.3317 H       1  LIG1        0.0660
     14 H           1.8708   -2.1947   -1.1430 H       1  LIG1        0.0660
     15 C          -0.7709    1.6432    0.4819 C.ar    1  LIG1        0.0491
     16 C           0.3827    2.2701    0.8979 C.ar    1  LIG1        0.0823
     17 C           0.2695    3.7061    0.8517 C.ar    1  LIG1        0.1513
     18 C          -0.9582    4.1399    0.4284 C.ar    1  LIG1        0.0706
     19 S          -1.9901    2.7933    0.0525 S.2     1  LIG1       -0.0820
     20 C           1.5049    1.5881    1.4478 C.1     1  LIG1       -0.0648
     21 C           2.4488    1.0320    1.9485 C.1     1  LIG1       -0.1138
     22 H           3.2783    0.5468    2.4092 H       1  LIG1        0.1232
     23 O           1.2177    4.5665    1.2923 O.3     1  LIG1       -0.4927
     24 C           2.4807    4.5189    0.6297 C.3     1  LIG1        0.0789
     25 H           3.0850    5.3034    1.0855 H       1  LIG1        0.0660
     26 H           2.9701    3.5536    0.7724 H       1  LIG1        0.0660
     27 H           2.3596    4.7275   -0.4360 H       1  LIG1        0.0660
     28 C          -1.4431    5.5108    0.3331 C.ar    1  LIG1        0.0485
     29 C          -0.9427    6.5529   -0.4125 C.ar    1  LIG1        0.0816
     30 C          -1.7071    7.7626   -0.2327 C.ar    1  LIG1        0.1430
     31 C          -2.7549    7.6105    0.6182 C.ar    1  LIG1        0.0193
     32 S          -2.8426    6.0052    1.2329 S.2     1  LIG1       -0.0910
     33 H          -3.4783    8.3627    0.8937 H       1  LIG1        0.0731
     34 C           0.1383    6.4550   -1.3332 C.1     1  LIG1       -0.0648
     35 C           1.0340    6.4053   -2.1369 C.1     1  LIG1       -0.1138
     36 H           1.8111    6.3560   -2.8645 H       1  LIG1        0.1232
     37 O          -1.4523    8.9224   -0.8960 O.3     1  LIG1       -0.4933
     38 C          -0.2792    9.6081   -0.4728 C.3     1  LIG1        0.0789
     39 H          -0.2066   10.5031   -1.0911 H       1  LIG1        0.0660
     40 H          -0.3576    9.8982    0.5811 H       1  LIG1        0.0660
     41 H           0.6157    8.9959   -0.6162 H       1  LIG1        0.0660
@<TRIPOS>BOND
     1    36    35    1
     2    35    34    3
     3     9     8    1
     4     8     7    3
     5    34    29    1
     6    12    11    1
     7    14    11    1
     8    39    38    1
     9    10    11    1
    10    10     3    1
    11    37    38    1
    12    37    30    1
    13     7     2    1
    14    11    13    1
    15    41    38    1
    16    38    40    1
    17    27    24    1
    18    29    30   ar
    19    29    28   ar
    20     3     2   ar
    21     3     4   ar
    22    30    31   ar
    23     2     1   ar
    24    19    18   ar
    25    19    15   ar
    26    28    18    1
    27    28    32   ar
    28     4    15    1
    29     4     5   ar
    30    18    17   ar
    31    15    16   ar
    32     1     6    1
    33     1     5   ar
    34    31    33    1
    35    31    32   ar
    36    24    26    1
    37    24    25    1
    38    24    23    1
    39    17    16   ar
    40    17    23    1
    41    16    20    1
    42    20    21    3
    43    21    22    1
