@<TRIPOS>MOLECULE
mol_data/opt/cam/geoms/mol2/5el5el5el5el-.out
 54 57 0 0 0
SMALL
GASTEIGER

@<TRIPOS>ATOM
      1 C          -2.1114   -2.0636    0.3688 C.ar    1  LIG1       -0.0047
      2 C          -0.8571   -2.1225   -0.1765 C.ar    1  LIG1        0.0739
      3 C          -0.2462   -0.8164   -0.2430 C.ar    1  LIG1        0.1506
      4 C          -1.0571    0.1766    0.2462 C.ar    1  LIG1        0.0700
      5 S          -2.5766   -0.4737    0.7917 S.2     1  LIG1       -0.0911
      6 H          -2.7834   -2.8952    0.5214 H       1  LIG1        0.0707
      7 C          -0.2983   -3.3362   -0.6751 C.1     1  LIG1       -0.0654
      8 C           0.1346   -4.3792   -1.0928 C.1     1  LIG1       -0.1138
      9 H           0.5176   -5.2983   -1.4727 H       1  LIG1        0.1232
     10 O           0.9459   -0.5252   -0.8097 O.3     1  LIG1       -0.4927
     11 C           2.0752   -1.2923   -0.3995 C.3     1  LIG1        0.0789
     12 H           2.9464   -0.7766   -0.8029 H       1  LIG1        0.0660
     13 H           2.1474   -1.3200    0.6909 H       1  LIG1        0.0660
     14 H           2.0319   -2.3081   -0.7950 H       1  LIG1        0.0660
     15 C          -0.7911    1.6060    0.2900 C.ar    1  LIG1        0.0491
     16 C           0.3089    2.2613    0.7996 C.ar    1  LIG1        0.0823
     17 C           0.2054    3.6914    0.6561 C.ar    1  LIG1        0.1513
     18 C          -0.9670    4.0934    0.0710 C.ar    1  LIG1        0.0706
     19 S          -1.9513    2.7221   -0.3420 S.2     1  LIG1       -0.0820
     20 C           1.3506    1.6110    1.5203 C.1     1  LIG1       -0.0648
     21 C           2.2169    1.0776    2.1653 C.1     1  LIG1       -0.1138
     22 H           2.9760    0.6141    2.7524 H       1  LIG1        0.1232
     23 O           1.0927    4.5880    1.1454 O.3     1  LIG1       -0.4927
     24 C           2.4436    4.4691    0.7029 C.3     1  LIG1        0.0789
     25 H           2.9609    5.3465    1.0909 H       1  LIG1        0.0660
     26 H           2.9129    3.5645    1.0929 H       1  LIG1        0.0660
     27 H           2.4908    4.4763   -0.3887 H       1  LIG1        0.0660
     28 C          -1.4419    5.4511   -0.1495 C.ar    1  LIG1        0.0491
     29 C          -0.8197    6.4867   -0.8114 C.ar    1  LIG1        0.0823
     30 C          -1.6163    7.6878   -0.8152 C.ar    1  LIG1        0.1513
     31 C          -2.8244    7.5387   -0.1866 C.ar    1  LIG1        0.0706
     32 S          -2.9939    5.9295    0.4468 S.2     1  LIG1       -0.0820
     33 C           0.3959    6.3433   -1.5387 C.1     1  LIG1       -0.0648
     34 C           1.4025    6.2262   -2.1900 C.1     1  LIG1       -0.1138
     35 H           2.2814    6.1224   -2.7836 H       1  LIG1        0.1232
     36 O          -1.2935    8.8294   -1.4667 O.3     1  LIG1       -0.4927
     37 C          -0.0632    9.4527   -1.1017 C.3     1  LIG1        0.0789
     38 H          -0.0436   10.4044   -1.6328 H       1  LIG1        0.0660
     39 H          -0.0334    9.6397   -0.0256 H       1  LIG1        0.0660
     40 H           0.7944    8.8483   -1.4020 H       1  LIG1        0.0660
     41 C          -3.9049    8.5080   -0.0716 C.ar    1  LIG1        0.0485
     42 C          -3.8719    9.7857    0.4379 C.ar    1  LIG1        0.0816
     43 C          -5.1622   10.4271    0.3730 C.ar    1  LIG1        0.1430
     44 C          -6.1270    9.6348   -0.1617 C.ar    1  LIG1        0.0193
     45 S          -5.5029    8.0951   -0.6118 S.2     1  LIG1       -0.0910
     46 H          -7.1687    9.8842   -0.2947 H       1  LIG1        0.0731
     47 C          -2.7432   10.3960    1.0531 C.1     1  LIG1       -0.0648
     48 C          -1.8204   10.9414    1.6024 C.1     1  LIG1       -0.1138
     49 H          -1.0104   11.4164    2.1062 H       1  LIG1        0.1232
     50 O          -5.4104   11.6730    0.8590 O.3     1  LIG1       -0.4933
     51 C          -4.8531   12.7352    0.0933 C.3     1  LIG1        0.0789
     52 H          -5.1246   13.6587    0.6054 H       1  LIG1        0.0660
     53 H          -3.7634   12.6594    0.0376 H       1  LIG1        0.0660
     54 H          -5.2702   12.7442   -0.9201 H       1  LIG1        0.0660
@<TRIPOS>BOND
     1    35    34    1
     2    34    33    3
     3    38    37    1
     4    33    29    1
     5     9     8    1
     6    36    37    1
     7    36    30    1
     8    40    37    1
     9    37    39    1
    10     8     7    3
    11    54    51    1
    12    30    29   ar
    13    30    31   ar
    14    29    28   ar
    15    10    11    1
    16    10     3    1
    17    12    11    1
    18    14    11    1
    19     7     2    1
    20    45    44   ar
    21    45    41   ar
    22    11    13    1
    23    27    24    1
    24    19    18   ar
    25    19    15   ar
    26    46    44    1
    27     3     2   ar
    28     3     4   ar
    29    31    41    1
    30    31    32   ar
    31     2     1   ar
    32    44    43   ar
    33    28    18    1
    34    28    32   ar
    35    41    42   ar
    36    53    51    1
    37    18    17   ar
    38    51    52    1
    39    51    50    1
    40     4    15    1
    41     4     5   ar
    42    15    16   ar
    43     1     6    1
    44     1     5   ar
    45    43    42   ar
    46    43    50    1
    47    42    47    1
    48    17    16   ar
    49    17    23    1
    50    24    25    1
    51    24    26    1
    52    24    23    1
    53    16    20    1
    54    47    48    3
    55    20    21    3
    56    48    49    1
    57    21    22    1
