@<TRIPOS>MOLECULE
mol_data/opt/cam/geoms/mol2/5el5el-5el-.out
 41 43 0 0 0
SMALL
GASTEIGER

@<TRIPOS>ATOM
      1 C          -1.8531   -1.8600    1.4877 C.ar    1  LIG1       -0.0047
      2 C          -0.9045   -2.0690    0.5234 C.ar    1  LIG1        0.0739
      3 C          -0.3450   -0.8249    0.0510 C.ar    1  LIG1        0.1506
      4 C          -0.8909    0.2728    0.6656 C.ar    1  LIG1        0.0700
      5 S          -2.0954   -0.2019    1.8293 S.2     1  LIG1       -0.0911
      6 H          -2.4290   -2.6191    1.9960 H       1  LIG1        0.0707
      7 C          -0.5964   -3.3670    0.0198 C.1     1  LIG1       -0.0654
      8 C          -0.3683   -4.4767   -0.3881 C.1     1  LIG1       -0.1138
      9 H          -0.1711   -5.4561   -0.7590 H       1  LIG1        0.1232
     10 O           0.5441   -0.6933   -0.9596 O.3     1  LIG1       -0.4927
     11 C           1.7541   -1.4420   -0.8646 C.3     1  LIG1        0.0789
     12 H           2.3886   -1.0845   -1.6754 H       1  LIG1        0.0660
     13 H           2.2495   -1.2508    0.0908 H       1  LIG1        0.0660
     14 H           1.5722   -2.5112   -0.9844 H       1  LIG1        0.0660
     15 C          -0.6061    1.6766    0.4065 C.ar    1  LIG1        0.0491
     16 C           0.6073    2.3250    0.4052 C.ar    1  LIG1        0.0823
     17 C           0.4766    3.7249    0.0995 C.ar    1  LIG1        0.1513
     18 C          -0.8160    4.1247   -0.1044 C.ar    1  LIG1        0.0706
     19 S          -1.9010    2.7755    0.0595 S.2     1  LIG1       -0.0820
     20 C           1.8570    1.7328    0.7410 C.1     1  LIG1       -0.0648
     21 C           2.9311    1.2774    1.0401 C.1     1  LIG1       -0.1138
     22 H           3.8797    0.8815    1.3211 H       1  LIG1        0.1232
     23 O           1.5305    4.5768    0.0490 O.3     1  LIG1       -0.4927
     24 C           2.3677    4.4252   -1.0936 C.3     1  LIG1        0.0789
     25 H           3.1632    5.1631   -0.9888 H       1  LIG1        0.0660
     26 H           2.8050    3.4237   -1.1371 H       1  LIG1        0.0660
     27 H           1.8067    4.6211   -2.0138 H       1  LIG1        0.0660
     28 C          -1.3008    5.4587   -0.4222 C.ar    1  LIG1        0.0485
     29 C          -1.0025    6.6466    0.2064 C.ar    1  LIG1        0.0816
     30 C          -1.6876    7.7622   -0.3997 C.ar    1  LIG1        0.1430
     31 C          -2.4806    7.4016   -1.4420 C.ar    1  LIG1        0.0193
     32 S          -2.4183    5.7046   -1.7297 S.2     1  LIG1       -0.0910
     33 H          -3.1031    8.0528   -2.0364 H       1  LIG1        0.0731
     34 C          -0.1977    6.7687    1.3730 C.1     1  LIG1       -0.0648
     35 C           0.4689    6.8895    2.3678 C.1     1  LIG1       -0.1138
     36 H           1.0569    6.9790    3.2518 H       1  LIG1        0.1232
     37 O          -1.6115    9.0389    0.0620 O.3     1  LIG1       -0.4933
     38 C          -0.3537    9.6755   -0.1334 C.3     1  LIG1        0.0789
     39 H          -0.4460   10.6744    0.2936 H       1  LIG1        0.0660
     40 H           0.4506    9.1374    0.3757 H       1  LIG1        0.0660
     41 H          -0.1215    9.7564   -1.2015 H       1  LIG1        0.0660
@<TRIPOS>BOND
     1    33    31    1
     2    27    24    1
     3    32    31   ar
     4    32    28   ar
     5    12    11    1
     6    31    30   ar
     7    41    38    1
     8    26    24    1
     9    24    25    1
    10    24    23    1
    11    14    11    1
    12    10    11    1
    13    10     3    1
    14    11    13    1
    15     9     8    1
    16    28    18    1
    17    28    29   ar
    18    30    37    1
    19    30    29   ar
    20     8     7    3
    21    38    37    1
    22    38    39    1
    23    38    40    1
    24    18    19   ar
    25    18    17   ar
    26     7     2    1
    27    23    17    1
    28     3     2   ar
    29     3     4   ar
    30    19    15   ar
    31    17    16   ar
    32    29    34    1
    33    16    15   ar
    34    16    20    1
    35    15     4    1
    36     2     1   ar
    37     4     5   ar
    38    20    21    3
    39    21    22    1
    40    34    35    3
    41     1     5   ar
    42     1     6    1
    43    35    36    1
