@<TRIPOS>MOLECULE
mol_data/opt/cam/geoms/mol2/5el5el-5el-5el-.out
 54 57 0 0 0
SMALL
GASTEIGER

@<TRIPOS>ATOM
      1 C          -1.2787   -1.9929    1.9143 C.ar    1  LIG1       -0.0047
      2 C          -0.7380   -2.1019    0.6616 C.ar    1  LIG1        0.0739
      3 C          -0.3601   -0.8127    0.1332 C.ar    1  LIG1        0.1506
      4 C          -0.6324    0.2177    0.9966 C.ar    1  LIG1        0.0700
      5 S          -1.3543   -0.3758    2.4650 S.2     1  LIG1       -0.0911
      6 H          -1.6503   -2.8027    2.5247 H       1  LIG1        0.0707
      7 C          -0.6528   -3.3468   -0.0289 C.1     1  LIG1       -0.0654
      8 C          -0.6058   -4.4143   -0.5839 C.1     1  LIG1       -0.1138
      9 H          -0.5718   -5.3555   -1.0826 H       1  LIG1        0.1232
     10 O           0.1140   -0.5746   -1.1103 O.3     1  LIG1       -0.4927
     11 C           1.2485   -1.3269   -1.5348 C.3     1  LIG1        0.0789
     12 H           1.5711   -0.8734   -2.4718 H       1  LIG1        0.0660
     13 H           2.0562   -1.2515   -0.8021 H       1  LIG1        0.0660
     14 H           0.9927   -2.3743   -1.7018 H       1  LIG1        0.0660
     15 C          -0.4302    1.6420    0.7771 C.ar    1  LIG1        0.0491
     16 C           0.7151    2.3003    0.3917 C.ar    1  LIG1        0.0823
     17 C           0.5151    3.7202    0.2781 C.ar    1  LIG1        0.1513
     18 C          -0.7544    4.1232    0.5944 C.ar    1  LIG1        0.0706
     19 S          -1.7377    2.7534    1.0212 S.2     1  LIG1       -0.0820
     20 C           1.9870    1.6920    0.1984 C.1     1  LIG1       -0.0648
     21 C           3.0848    1.2206    0.0470 C.1     1  LIG1       -0.1138
     22 H           4.0606    0.8088   -0.0708 H       1  LIG1        0.1232
     23 O           1.4967    4.5840   -0.0798 O.3     1  LIG1       -0.4927
     24 C           1.8621    4.5382   -1.4564 C.3     1  LIG1        0.0789
     25 H           2.6579    5.2719   -1.5849 H       1  LIG1        0.0660
     26 H           2.2320    3.5481   -1.7374 H       1  LIG1        0.0660
     27 H           1.0115    4.8068   -2.0918 H       1  LIG1        0.0660
     28 C          -1.2921    5.4735    0.5849 C.ar    1  LIG1        0.0491
     29 C          -0.7505    6.6087    1.1486 C.ar    1  LIG1        0.0823
     30 C          -1.5773    7.7692    0.9305 C.ar    1  LIG1        0.1513
     31 C          -2.7263    7.4943    0.2365 C.ar    1  LIG1        0.0706
     32 S          -2.8050    5.8096   -0.1861 S.2     1  LIG1       -0.0820
     33 C           0.4108    6.5963    1.9718 C.1     1  LIG1       -0.0648
     34 C           1.3778    6.5692    2.6881 C.1     1  LIG1       -0.1138
     35 H           2.2328    6.5330    3.3228 H       1  LIG1        0.1232
     36 O          -1.3420    8.9984    1.4448 O.3     1  LIG1       -0.4927
     37 C          -0.0898    9.6034    1.1267 C.3     1  LIG1        0.0789
     38 H          -0.1388   10.6152    1.5290 H       1  LIG1        0.0660
     39 H           0.7408    9.0653    1.5860 H       1  LIG1        0.0660
     40 H           0.0463    9.6527    0.0434 H       1  LIG1        0.0660
     41 C          -3.8164    8.4004   -0.0946 C.ar    1  LIG1        0.0485
     42 C          -3.7695    9.6083   -0.7521 C.ar    1  LIG1        0.0816
     43 C          -5.0769   10.2027   -0.8852 C.ar    1  LIG1        0.1430
     44 C          -6.0668    9.4437   -0.3478 C.ar    1  LIG1        0.0193
     45 S          -5.4471    7.9944    0.3439 S.2     1  LIG1       -0.0910
     46 H          -7.1228    9.6668   -0.3426 H       1  LIG1        0.0731
     47 C          -2.6045   10.1847   -1.3312 C.1     1  LIG1       -0.0648
     48 C          -1.6494   10.6976   -1.8561 C.1     1  LIG1       -0.1138
     49 H          -0.8090   11.1443   -2.3354 H       1  LIG1        0.1232
     50 O          -5.3106   11.3708   -1.5418 O.3     1  LIG1       -0.4933
     51 C          -4.8624   12.5381   -0.8622 C.3     1  LIG1        0.0789
     52 H          -5.1081   13.3825   -1.5067 H       1  LIG1        0.0660
     53 H          -5.3777   12.6505    0.0984 H       1  LIG1        0.0660
     54 H          -3.7818   12.5133   -0.6947 H       1  LIG1        0.0660
@<TRIPOS>BOND
     1    12    11    1
     2    49    48    1
     3    27    24    1
     4    48    47    3
     5    26    24    1
     6    14    11    1
     7    25    24    1
     8    50    43    1
     9    50    51    1
    10    11    10    1
    11    11    13    1
    12    52    51    1
    13    24    23    1
    14    47    42    1
    15    10     3    1
    16     9     8    1
    17    43    42   ar
    18    43    44   ar
    19    51    54    1
    20    51    53    1
    21    42    41   ar
    22     8     7    3
    23    44    46    1
    24    44    45   ar
    25    32    31   ar
    26    32    28   ar
    27    41    31    1
    28    41    45   ar
    29    23    17    1
    30    22    21    1
    31     7     2    1
    32    40    37    1
    33    21    20    3
    34     3     2   ar
    35     3     4   ar
    36    20    16    1
    37    31    30   ar
    38    17    16   ar
    39    17    18   ar
    40    16    15   ar
    41    28    18    1
    42    28    29   ar
    43    18    19   ar
    44     2     1   ar
    45    15     4    1
    46    15    19   ar
    47    30    29   ar
    48    30    36    1
    49     4     5   ar
    50    37    36    1
    51    37    38    1
    52    37    39    1
    53    29    33    1
    54     1     5   ar
    55     1     6    1
    56    33    34    3
    57    34    35    1
