@<TRIPOS>MOLECULE
mol_data/opt/cam/geoms/mol2/5el5el5el-5el.out
 54 57 0 0 0
SMALL
GASTEIGER

@<TRIPOS>ATOM
      1 C          -1.4348   -1.6772    2.3479 C.ar    1  LIG1       -0.0047
      2 C          -0.8798   -1.9615    1.1293 C.ar    1  LIG1        0.0739
      3 C          -0.4359   -0.7637    0.4568 C.ar    1  LIG1        0.1506
      4 C          -0.6748    0.3751    1.1831 C.ar    1  LIG1        0.0700
      5 S          -1.4459   -0.0033    2.6969 S.2     1  LIG1       -0.0911
      6 H          -1.8520   -2.3897    3.0440 H       1  LIG1        0.0707
      7 C          -0.8398   -3.2841    0.5976 C.1     1  LIG1       -0.0654
      8 C          -0.8324   -4.4129    0.1786 C.1     1  LIG1       -0.1138
      9 H          -0.8331   -5.4090   -0.2003 H       1  LIG1        0.1232
     10 O           0.0691   -0.6988   -0.7957 O.3     1  LIG1       -0.4927
     11 C           1.1701   -1.5506   -1.1042 C.3     1  LIG1        0.0789
     12 H           1.5363   -1.2213   -2.0764 H       1  LIG1        0.0660
     13 H           1.9655   -1.4358   -0.3630 H       1  LIG1        0.0660
     14 H           0.8619   -2.5955   -1.1613 H       1  LIG1        0.0660
     15 C          -0.4051    1.7519    0.7967 C.ar    1  LIG1        0.0491
     16 C           0.7724    2.3073    0.3512 C.ar    1  LIG1        0.0823
     17 C           0.6383    3.7108    0.0650 C.ar    1  LIG1        0.1513
     18 C          -0.6139    4.2048    0.3130 C.ar    1  LIG1        0.0706
     19 S          -1.6624    2.9415    0.8876 S.2     1  LIG1       -0.0820
     20 C           2.0167    1.6239    0.2519 C.1     1  LIG1       -0.0648
     21 C           3.0930    1.0888    0.1755 C.1     1  LIG1       -0.1138
     22 H           4.0497    0.6225    0.1237 H       1  LIG1        0.1232
     23 O           1.6606    4.4825   -0.3791 O.3     1  LIG1       -0.4927
     24 C           2.0460    4.2482   -1.7308 C.3     1  LIG1        0.0789
     25 H           2.8677    4.9342   -1.9363 H       1  LIG1        0.0660
     26 H           2.3870    3.2192   -1.8752 H       1  LIG1        0.0660
     27 H           1.2150    4.4589   -2.4125 H       1  LIG1        0.0660
     28 C          -1.0873    5.5684    0.1387 C.ar    1  LIG1        0.0491
     29 C          -0.5060    6.7354    0.5804 C.ar    1  LIG1        0.0823
     30 C          -1.2741    7.8958    0.2134 C.ar    1  LIG1        0.1513
     31 C          -2.4221    7.6020   -0.4714 C.ar    1  LIG1        0.0706
     32 S          -2.5762    5.8830   -0.6939 S.2     1  LIG1       -0.0820
     33 C           0.6690    6.8072    1.3793 C.1     1  LIG1       -0.0648
     34 C           1.6538    6.8853    2.0666 C.1     1  LIG1       -0.1138
     35 H           2.5240    6.9380    2.6792 H       1  LIG1        0.1232
     36 O          -0.9192    9.1622    0.5417 O.3     1  LIG1       -0.4927
     37 C           0.2201    9.6677   -0.1482 C.3     1  LIG1        0.0789
     38 H           0.3782   10.6792    0.2260 H       1  LIG1        0.0660
     39 H           1.1087    9.0632    0.0528 H       1  LIG1        0.0660
     40 H           0.0348    9.7032   -1.2274 H       1  LIG1        0.0660
     41 C          -3.4203    8.5275   -0.9835 C.ar    1  LIG1        0.0485
     42 C          -4.0467    9.5590   -0.3212 C.ar    1  LIG1        0.0816
     43 C          -4.9830   10.2536   -1.1713 C.ar    1  LIG1        0.1430
     44 C          -5.0525    9.7376   -2.4258 C.ar    1  LIG1        0.0193
     45 S          -3.9833    8.4015   -2.6225 S.2     1  LIG1       -0.0910
     46 H          -5.6913   10.0730   -3.2284 H       1  LIG1        0.0731
     47 C          -3.8788    9.8577    1.0594 C.1     1  LIG1       -0.0648
     48 C          -3.7597   10.1157    2.2290 C.1     1  LIG1       -0.1138
     49 H          -3.6470   10.3272    3.2672 H       1  LIG1        0.1232
     50 O          -5.7742   11.2759   -0.7498 O.3     1  LIG1       -0.4933
     51 C          -5.0887   12.4908   -0.4672 C.3     1  LIG1        0.0789
     52 H          -5.8463   13.1995   -0.1319 H       1  LIG1        0.0660
     53 H          -4.3446   12.3559    0.3225 H       1  LIG1        0.0660
     54 H          -4.6003   12.8795   -1.3682 H       1  LIG1        0.0660
@<TRIPOS>BOND
     1    46    44    1
     2    45    44   ar
     3    45    41   ar
     4    44    43   ar
     5    27    24    1
     6    12    11    1
     7    25    24    1
     8    26    24    1
     9    24    23    1
    10    54    51    1
    11    40    37    1
    12    43    50    1
    13    43    42   ar
    14    14    11    1
    15    11    10    1
    16    11    13    1
    17    41    31    1
    18    41    42   ar
    19    10     3    1
    20    50    51    1
    21    32    31   ar
    22    32    28   ar
    23    31    30   ar
    24    51    52    1
    25    51    53    1
    26    23    17    1
    27    42    47    1
    28     9     8    1
    29    37    39    1
    30    37    38    1
    31    37    36    1
    32    17    18   ar
    33    17    16   ar
    34    22    21    1
    35    28    18    1
    36    28    29   ar
    37    21    20    3
    38     8     7    3
    39    30    36    1
    40    30    29   ar
    41    20    16    1
    42    18    19   ar
    43    16    15   ar
    44     3     2   ar
    45     3     4   ar
    46    29    33    1
    47     7     2    1
    48    15    19   ar
    49    15     4    1
    50    47    48    3
    51     2     1   ar
    52     4     5   ar
    53    33    34    3
    54    34    35    1
    55    48    49    1
    56     1     5   ar
    57     1     6    1
