@<TRIPOS>MOLECULE
mol_data/opt/cam/geoms/mol2/5el5el-5el5el.out
 54 57 0 0 0
SMALL
GASTEIGER

@<TRIPOS>ATOM
      1 C          -1.3584   -1.6921    2.3417 C.ar    1  LIG1       -0.0047
      2 C          -0.8213   -1.9668    1.1129 C.ar    1  LIG1        0.0739
      3 C          -0.3953   -0.7629    0.4397 C.ar    1  LIG1        0.1506
      4 C          -0.6293    0.3706    1.1758 C.ar    1  LIG1        0.0700
      5 S          -1.3738   -0.0202    2.6997 S.2     1  LIG1       -0.0911
      6 H          -1.7602   -2.4107    3.0406 H       1  LIG1        0.0707
      7 C          -0.7820   -3.2864    0.5737 C.1     1  LIG1       -0.0654
      8 C          -0.7746   -4.4129    0.1486 C.1     1  LIG1       -0.1138
      9 H          -0.7755   -5.4070   -0.2355 H       1  LIG1        0.1232
     10 O           0.0892   -0.6884   -0.8203 O.3     1  LIG1       -0.4927
     11 C           1.1901   -1.5320   -1.1509 C.3     1  LIG1        0.0789
     12 H           1.5388   -1.1954   -2.1270 H       1  LIG1        0.0660
     13 H           1.9964   -1.4167   -0.4218 H       1  LIG1        0.0660
     14 H           0.8870   -2.5785   -1.2088 H       1  LIG1        0.0660
     15 C          -0.3740    1.7511    0.7925 C.ar    1  LIG1        0.0491
     16 C           0.7930    2.3158    0.3310 C.ar    1  LIG1        0.0823
     17 C           0.6461    3.7199    0.0545 C.ar    1  LIG1        0.1513
     18 C          -0.6048    4.2052    0.3252 C.ar    1  LIG1        0.0706
     19 S          -1.6365    2.9327    0.9098 S.2     1  LIG1       -0.0820
     20 C           2.0395    1.6404    0.2082 C.1     1  LIG1       -0.0648
     21 C           3.1175    1.1121    0.1117 C.1     1  LIG1       -0.1138
     22 H           4.0761    0.6517    0.0421 H       1  LIG1        0.1232
     23 O           1.6565    4.5000   -0.4018 O.3     1  LIG1       -0.4927
     24 C           2.0215    4.2750   -1.7607 C.3     1  LIG1        0.0789
     25 H           2.8358    4.9670   -1.9758 H       1  LIG1        0.0660
     26 H           2.3662    3.2489   -1.9161 H       1  LIG1        0.0660
     27 H           1.1785    4.4843   -2.4279 H       1  LIG1        0.0660
     28 C          -1.0890    5.5668    0.1658 C.ar    1  LIG1        0.0491
     29 C          -0.5076    6.7349    0.6043 C.ar    1  LIG1        0.0823
     30 C          -1.2882    7.8926    0.2558 C.ar    1  LIG1        0.1513
     31 C          -2.4453    7.5956   -0.4120 C.ar    1  LIG1        0.0706
     32 S          -2.5929    5.8769   -0.6411 S.2     1  LIG1       -0.0820
     33 C           0.6797    6.8096    1.3846 C.1     1  LIG1       -0.0648
     34 C           1.6750    6.8899    2.0564 C.1     1  LIG1       -0.1138
     35 H           2.5546    6.9446    2.6552 H       1  LIG1        0.1232
     36 O          -0.9355    9.1594    0.5851 O.3     1  LIG1       -0.4927
     37 C           0.1896    9.6752   -0.1203 C.3     1  LIG1        0.0789
     38 H           0.3477   10.6857    0.2567 H       1  LIG1        0.0660
     39 H           1.0848    9.0750    0.0633 H       1  LIG1        0.0660
     40 H          -0.0132    9.7153   -1.1961 H       1  LIG1        0.0660
     41 C          -3.4570    8.5177   -0.9030 C.ar    1  LIG1        0.0485
     42 C          -4.0787    9.5421   -0.2254 C.ar    1  LIG1        0.0816
     43 C          -5.0327   10.2355   -1.0566 C.ar    1  LIG1        0.1430
     44 C          -5.1192    9.7257   -2.3125 C.ar    1  LIG1        0.0193
     45 S          -4.0455    8.3970   -2.5335 S.2     1  LIG1       -0.0910
     46 H          -5.7729   10.0614   -3.1030 H       1  LIG1        0.0731
     47 C          -3.8905    9.8345    1.1540 C.1     1  LIG1       -0.0648
     48 C          -3.7541   10.0872    2.3229 C.1     1  LIG1       -0.1138
     49 H          -3.6260   10.2939    3.3602 H       1  LIG1        0.1232
     50 O          -5.8230   11.2509   -0.6170 O.3     1  LIG1       -0.4933
     51 C          -5.1402   12.4683   -0.3390 C.3     1  LIG1        0.0789
     52 H          -5.8964   13.1708    0.0122 H       1  LIG1        0.0660
     53 H          -4.3827   12.3338    0.4379 H       1  LIG1        0.0660
     54 H          -4.6686   12.8646   -1.2456 H       1  LIG1        0.0660
@<TRIPOS>BOND
     1    46    44    1
     2    45    44   ar
     3    45    41   ar
     4    27    24    1
     5    44    43   ar
     6    12    11    1
     7    25    24    1
     8    26    24    1
     9    24    23    1
    10    54    51    1
    11    14    11    1
    12    40    37    1
    13    11    10    1
    14    11    13    1
    15    43    50    1
    16    43    42   ar
    17    41    31    1
    18    41    42   ar
    19    10     3    1
    20    32    31   ar
    21    32    28   ar
    22    50    51    1
    23    31    30   ar
    24    23    17    1
    25    51    52    1
    26    51    53    1
    27     9     8    1
    28    42    47    1
    29    37    39    1
    30    37    38    1
    31    37    36    1
    32    22    21    1
    33    17    18   ar
    34    17    16   ar
    35    21    20    3
    36     8     7    3
    37    28    18    1
    38    28    29   ar
    39    20    16    1
    40    30    36    1
    41    30    29   ar
    42    18    19   ar
    43    16    15   ar
    44     3     2   ar
    45     3     4   ar
    46     7     2    1
    47    29    33    1
    48    15    19   ar
    49    15     4    1
    50     2     1   ar
    51    47    48    3
    52     4     5   ar
    53    33    34    3
    54    34    35    1
    55    48    49    1
    56     1     5   ar
    57     1     6    1
