@<TRIPOS>MOLECULE
mol_data/opt/cam/geoms/mol2/5el5el.out
 28 29 0 0 0
SMALL
GASTEIGER

@<TRIPOS>ATOM
      1 C          -2.1052   -1.9056    0.7209 C.ar    1  LIG1       -0.0047
      2 C          -0.9006   -2.0419    0.0859 C.ar    1  LIG1        0.0739
      3 C          -0.3072   -0.7590   -0.2083 C.ar    1  LIG1        0.1506
      4 C          -1.0812    0.2944    0.2052 C.ar    1  LIG1        0.0700
      5 S          -2.5440   -0.2698    0.9611 S.2     1  LIG1       -0.0911
      6 H          -2.7565   -2.7058    1.0398 H       1  LIG1        0.0707
      7 C          -0.3720   -3.3110   -0.2925 C.1     1  LIG1       -0.0654
      8 C           0.0407   -4.3981   -0.6053 C.1     1  LIG1       -0.1138
      9 H           0.4044   -5.3576   -0.8929 H       1  LIG1        0.1232
     10 O           0.8342   -0.5610   -0.9072 O.3     1  LIG1       -0.4927
     11 C           2.0072   -1.2208   -0.4357 C.3     1  LIG1        0.0789
     12 H           2.8287   -0.8313   -1.0368 H       1  LIG1        0.0660
     13 H           2.1855   -0.9812    0.6157 H       1  LIG1        0.0660
     14 H           1.9371   -2.3019   -0.5668 H       1  LIG1        0.0660
     15 C          -0.8237    1.7172    0.0319 C.ar    1  LIG1        0.0484
     16 C           0.2841    2.4449    0.4006 C.ar    1  LIG1        0.0816
     17 C           0.1555    3.8389    0.0533 C.ar    1  LIG1        0.1430
     18 C          -1.0259    4.1332   -0.5487 C.ar    1  LIG1        0.0193
     19 S          -2.0122    2.7331   -0.7230 S.2     1  LIG1       -0.0910
     20 H          -1.3588    5.1051   -0.8799 H       1  LIG1        0.0731
     21 C           1.3983    1.9341    1.1234 C.1     1  LIG1       -0.0648
     22 C           2.3495    1.5480    1.7534 C.1     1  LIG1       -0.1138
     23 H           3.1827    1.2125    2.3268 H       1  LIG1        0.1232
     24 O           1.0888    4.7807    0.3562 O.3     1  LIG1       -0.4933
     25 C           2.2807    4.7116   -0.4183 C.3     1  LIG1        0.0789
     26 H           2.9261    5.5147   -0.0616 H       1  LIG1        0.0660
     27 H           2.7894    3.7526   -0.2849 H       1  LIG1        0.0660
     28 H           2.0628    4.8639   -1.4814 H       1  LIG1        0.0660
@<TRIPOS>BOND
     1    28    25    1
     2    12    11    1
     3    10    11    1
     4    10     3    1
     5     9     8    1
     6    20    18    1
     7    19    18   ar
     8    19    15   ar
     9     8     7    3
    10    14    11    1
    11    18    17   ar
    12    11    13    1
    13    25    27    1
    14    25    26    1
    15    25    24    1
    16     7     2    1
    17     3     2   ar
    18     3     4   ar
    19    15     4    1
    20    15    16   ar
    21    17    24    1
    22    17    16   ar
    23     2     1   ar
    24     4     5   ar
    25    16    21    1
    26     1     5   ar
    27     1     6    1
    28    21    22    3
    29    22    23    1
