@<TRIPOS>MOLECULE
mol_data/opt/cam/geoms/mol2/5el5el5el5el.out
 54 57 0 0 0
SMALL
GASTEIGER

@<TRIPOS>ATOM
      1 C          -2.1515   -2.0608    0.2966 C.ar    1  LIG1       -0.0047
      2 C          -0.8829   -2.1217   -0.2146 C.ar    1  LIG1        0.0739
      3 C          -0.2649   -0.8179   -0.2557 C.ar    1  LIG1        0.1506
      4 C          -1.0845    0.1755    0.2178 C.ar    1  LIG1        0.0700
      5 S          -2.6212   -0.4716    0.7173 S.2     1  LIG1       -0.0911
      6 H          -2.8309   -2.8903    0.4252 H       1  LIG1        0.0707
      7 C          -0.3160   -3.3346   -0.7059 C.1     1  LIG1       -0.0654
      8 C           0.1237   -4.3768   -1.1185 C.1     1  LIG1       -0.1138
      9 H           0.5130   -5.2951   -1.4940 H       1  LIG1        0.1232
     10 O           0.9435   -0.5283   -0.7876 O.3     1  LIG1       -0.4927
     11 C           2.0578   -1.3032   -0.3519 C.3     1  LIG1        0.0789
     12 H           2.9420   -0.7887   -0.7279 H       1  LIG1        0.0660
     13 H           2.1001   -1.3385    0.7399 H       1  LIG1        0.0660
     14 H           2.0210   -2.3161   -0.7553 H       1  LIG1        0.0660
     15 C          -0.8137    1.6033    0.2784 C.ar    1  LIG1        0.0491
     16 C           0.2747    2.2503    0.8223 C.ar    1  LIG1        0.0823
     17 C           0.1813    3.6818    0.6856 C.ar    1  LIG1        0.1513
     18 C          -0.9728    4.0929    0.0713 C.ar    1  LIG1        0.0706
     19 S          -1.9514    2.7287   -0.3776 S.2     1  LIG1       -0.0820
     20 C           1.2936    1.5906    1.5668 C.1     1  LIG1       -0.0648
     21 C           2.1396    1.0492    2.2316 C.1     1  LIG1       -0.1138
     22 H           2.8803    0.5785    2.8361 H       1  LIG1        0.1232
     23 O           1.0588    4.5711    1.2049 O.3     1  LIG1       -0.4927
     24 C           2.4208    4.4491    0.7986 C.3     1  LIG1        0.0789
     25 H           2.9311    5.3216    1.2065 H       1  LIG1        0.0660
     26 H           2.8753    3.5399    1.1953 H       1  LIG1        0.0660
     27 H           2.4979    4.4633   -0.2912 H       1  LIG1        0.0660
     28 C          -1.4357    5.4541   -0.1530 C.ar    1  LIG1        0.0491
     29 C          -0.7912    6.4912   -0.7907 C.ar    1  LIG1        0.0823
     30 C          -1.5822    7.6959   -0.8082 C.ar    1  LIG1        0.1513
     31 C          -2.8077    7.5481   -0.2139 C.ar    1  LIG1        0.0706
     32 S          -3.0014    5.9356    0.4039 S.2     1  LIG1       -0.0820
     33 C           0.4433    6.3472   -1.4855 C.1     1  LIG1       -0.0648
     34 C           1.4667    6.2299   -2.1098 C.1     1  LIG1       -0.1138
     35 H           2.3611    6.1261   -2.6798 H       1  LIG1        0.1232
     36 O          -1.2368    8.8403   -1.4430 O.3     1  LIG1       -0.4927
     37 C          -0.0143    9.4557   -1.0404 C.3     1  LIG1        0.0789
     38 H           0.0239   10.4107   -1.5644 H       1  LIG1        0.0660
     39 H          -0.0131    9.6355    0.0374 H       1  LIG1        0.0660
     40 H           0.8486    8.8494   -1.3212 H       1  LIG1        0.0660
     41 C          -3.8868    8.5214   -0.1219 C.ar    1  LIG1        0.0485
     42 C          -3.8622    9.7956    0.3968 C.ar    1  LIG1        0.0816
     43 C          -5.1475   10.4432    0.3010 C.ar    1  LIG1        0.1430
     44 C          -6.1007    9.6588   -0.2652 C.ar    1  LIG1        0.0193
     45 S          -5.4711    8.1192   -0.7084 S.2     1  LIG1       -0.0910
     46 H          -7.1373    9.9137   -0.4250 H       1  LIG1        0.0731
     47 C          -2.7482   10.3968    1.0467 C.1     1  LIG1       -0.0648
     48 C          -1.8384   10.9344    1.6246 C.1     1  LIG1       -0.1138
     49 H          -1.0404   11.4025    2.1535 H       1  LIG1        0.1232
     50 O          -5.4035   11.6870    0.7883 O.3     1  LIG1       -0.4933
     51 C          -4.8209   12.7517    0.0452 C.3     1  LIG1        0.0789
     52 H          -5.1023   13.6730    0.5559 H       1  LIG1        0.0660
     53 H          -3.7305   12.6714    0.0189 H       1  LIG1        0.0660
     54 H          -5.2101   12.7692   -0.9791 H       1  LIG1        0.0660
@<TRIPOS>BOND
     1    35    34    1
     2    34    33    3
     3    38    37    1
     4     9     8    1
     5    33    29    1
     6    36    37    1
     7    36    30    1
     8    40    37    1
     9     8     7    3
    10    37    39    1
    11    54    51    1
    12    30    29   ar
    13    30    31   ar
    14    29    28   ar
    15    10    11    1
    16    10     3    1
    17    14    11    1
    18    12    11    1
    19    45    44   ar
    20    45    41   ar
    21     7     2    1
    22    46    44    1
    23    19    18   ar
    24    19    15   ar
    25    11    13    1
    26    27    24    1
    27    44    43   ar
    28     3     2   ar
    29     3     4   ar
    30     2     1   ar
    31    31    41    1
    32    31    32   ar
    33    28    18    1
    34    28    32   ar
    35    41    42   ar
    36    53    51    1
    37    51    52    1
    38    51    50    1
    39    18    17   ar
    40     4    15    1
    41     4     5   ar
    42    15    16   ar
    43     1     6    1
    44     1     5   ar
    45    43    42   ar
    46    43    50    1
    47    42    47    1
    48    17    16   ar
    49    17    23    1
    50    24    26    1
    51    24    23    1
    52    24    25    1
    53    16    20    1
    54    47    48    3
    55    20    21    3
    56    48    49    1
    57    21    22    1
