@<TRIPOS>MOLECULE
mol_data/opt/cam/geoms/mol2/5el5el5el-.out
 41 43 0 0 0
SMALL
GASTEIGER

@<TRIPOS>ATOM
      1 C          -1.8993   -1.8429    1.4774 C.ar    1  LIG1       -0.0047
      2 C          -0.9385   -2.0612    0.5273 C.ar    1  LIG1        0.0739
      3 C          -0.3658   -0.8222    0.0573 C.ar    1  LIG1        0.1506
      4 C          -0.9145    0.2811    0.6593 C.ar    1  LIG1        0.0700
      5 S          -2.1375   -0.1821    1.8082 S.2     1  LIG1       -0.0911
      6 H          -2.4862   -2.5967    1.9809 H       1  LIG1        0.0707
      7 C          -0.6303   -3.3631    0.0338 C.1     1  LIG1       -0.0654
      8 C          -0.4025   -4.4759   -0.3658 C.1     1  LIG1       -0.1138
      9 H          -0.2054   -5.4580   -0.7295 H       1  LIG1        0.1232
     10 O           0.5379   -0.6997   -0.9414 O.3     1  LIG1       -0.4927
     11 C           1.7423   -1.4546   -0.8265 C.3     1  LIG1        0.0789
     12 H           2.3899   -1.1041   -1.6300 H       1  LIG1        0.0660
     13 H           2.2256   -1.2620    0.1348 H       1  LIG1        0.0660
     14 H           1.5562   -2.5233   -0.9442 H       1  LIG1        0.0660
     15 C          -0.6186    1.6822    0.3982 C.ar    1  LIG1        0.0491
     16 C           0.5982    2.3242    0.4106 C.ar    1  LIG1        0.0823
     17 C           0.4792    3.7234    0.0972 C.ar    1  LIG1        0.1513
     18 C          -0.8084    4.1292   -0.1262 C.ar    1  LIG1        0.0706
     19 S          -1.9028    2.7864    0.0288 S.2     1  LIG1       -0.0820
     20 C           1.8400    1.7268    0.7661 C.1     1  LIG1       -0.0648
     21 C           2.9075    1.2671    1.0817 C.1     1  LIG1       -0.1138
     22 H           3.8500    0.8673    1.3774 H       1  LIG1        0.1232
     23 O           1.5382    4.5695    0.0574 O.3     1  LIG1       -0.4927
     24 C           2.3901    4.4085   -1.0729 C.3     1  LIG1        0.0789
     25 H           3.1880    5.1425   -0.9606 H       1  LIG1        0.0660
     26 H           2.8226    3.4044   -1.1062 H       1  LIG1        0.0660
     27 H           1.8428    4.6032   -2.0016 H       1  LIG1        0.0660
     28 C          -1.2816    5.4643   -0.4562 C.ar    1  LIG1        0.0485
     29 C          -0.9858    6.6533    0.1714 C.ar    1  LIG1        0.0816
     30 C          -1.6564    7.7699   -0.4488 C.ar    1  LIG1        0.1430
     31 C          -2.4367    7.4091   -1.5004 C.ar    1  LIG1        0.0193
     32 S          -2.3795    5.7106   -1.7801 S.2     1  LIG1       -0.0910
     33 H          -3.0474    8.0611   -2.1062 H       1  LIG1        0.0731
     34 C          -0.1964    6.7760    1.3485 C.1     1  LIG1       -0.0648
     35 C           0.4571    6.8975    2.3519 C.1     1  LIG1       -0.1138
     36 H           1.0334    6.9876    3.2435 H       1  LIG1        0.1232
     37 O          -1.5798    9.0481    0.0086 O.3     1  LIG1       -0.4933
     38 C          -0.3160    9.6772   -0.1720 C.3     1  LIG1        0.0789
     39 H          -0.4087   10.6784    0.2494 H       1  LIG1        0.0660
     40 H           0.4783    9.1370    0.3504 H       1  LIG1        0.0660
     41 H          -0.0685    9.7522   -1.2371 H       1  LIG1        0.0660
@<TRIPOS>BOND
     1    33    31    1
     2    27    24    1
     3    32    31   ar
     4    32    28   ar
     5    12    11    1
     6    31    30   ar
     7    41    38    1
     8    26    24    1
     9    24    25    1
    10    24    23    1
    11    14    11    1
    12    10    11    1
    13    10     3    1
    14    11    13    1
    15     9     8    1
    16    28    18    1
    17    28    29   ar
    18    30    37    1
    19    30    29   ar
    20     8     7    3
    21    38    37    1
    22    38    39    1
    23    38    40    1
    24    18    19   ar
    25    18    17   ar
    26    19    15   ar
    27     7     2    1
    28     3     2   ar
    29     3     4   ar
    30    23    17    1
    31    17    16   ar
    32    29    34    1
    33    15    16   ar
    34    15     4    1
    35    16    20    1
    36     2     1   ar
    37     4     5   ar
    38    20    21    3
    39    21    22    1
    40    34    35    3
    41     1     5   ar
    42     1     6    1
    43    35    36    1
