@<TRIPOS>MOLECULE
mol_data/opt/cam/geoms/mol2/5el5el-5el-5el.out
 54 57 0 0 0
SMALL
GASTEIGER

@<TRIPOS>ATOM
      1 C          -1.4211   -1.7026    2.2972 C.ar    1  LIG1       -0.0047
      2 C          -0.8670   -1.9730    1.0751 C.ar    1  LIG1        0.0739
      3 C          -0.4259   -0.7675    0.4148 C.ar    1  LIG1        0.1506
      4 C          -0.6659    0.3631    1.1535 C.ar    1  LIG1        0.0700
      5 S          -1.4346   -0.0326    2.6640 S.2     1  LIG1       -0.0911
      6 H          -1.8363   -2.4232    2.9862 H       1  LIG1        0.0707
      7 C          -0.8253   -3.2899    0.5293 C.1     1  LIG1       -0.0654
      8 C          -0.8164   -4.4141    0.0983 C.1     1  LIG1       -0.1138
      9 H          -0.8158   -5.4061   -0.2912 H       1  LIG1        0.1232
     10 O           0.0776   -0.6884   -0.8374 O.3     1  LIG1       -0.4927
     11 C           1.1798   -1.5349   -1.1561 C.3     1  LIG1        0.0789
     12 H           1.5445   -1.1946   -2.1250 H       1  LIG1        0.0660
     13 H           1.9756   -1.4268   -0.4144 H       1  LIG1        0.0660
     14 H           0.8733   -2.5797   -1.2241 H       1  LIG1        0.0660
     15 C          -0.3990    1.7445    0.7815 C.ar    1  LIG1        0.0491
     16 C           0.7771    2.3066    0.3405 C.ar    1  LIG1        0.0823
     17 C           0.6403    3.7128    0.0694 C.ar    1  LIG1        0.1513
     18 C          -0.6124    4.2020    0.3239 C.ar    1  LIG1        0.0706
     19 S          -1.6581    2.9309    0.8863 S.2     1  LIG1       -0.0820
     20 C           2.0225    1.6264    0.2326 C.1     1  LIG1       -0.0648
     21 C           3.0995    1.0940    0.1492 C.1     1  LIG1       -0.1138
     22 H           4.0570    0.6298    0.0913 H       1  LIG1        0.1232
     23 O           1.6607    4.4909   -0.3677 O.3     1  LIG1       -0.4927
     24 C           2.0449    4.2715   -1.7222 C.3     1  LIG1        0.0789
     25 H           2.8653    4.9610   -1.9215 H       1  LIG1        0.0660
     26 H           2.3873    3.2447   -1.8780 H       1  LIG1        0.0660
     27 H           1.2127    4.4881   -2.4007 H       1  LIG1        0.0660
     28 C          -1.0884    5.5665    0.1645 C.ar    1  LIG1        0.0491
     29 C          -0.5086    6.7298    0.6178 C.ar    1  LIG1        0.0823
     30 C          -1.2791    7.8926    0.2638 C.ar    1  LIG1        0.1513
     31 C          -2.4274    7.6041   -0.4226 C.ar    1  LIG1        0.0706
     32 S          -2.5788    5.8873   -0.6630 S.2     1  LIG1       -0.0820
     33 C           0.6672    6.7953    1.4159 C.1     1  LIG1       -0.0648
     34 C           1.6527    6.8679    2.1029 C.1     1  LIG1       -0.1138
     35 H           2.5236    6.9164    2.7149 H       1  LIG1        0.1232
     36 O          -0.9259    9.1562    0.6050 O.3     1  LIG1       -0.4927
     37 C           0.2116    9.6708   -0.0811 C.3     1  LIG1        0.0789
     38 H           0.3684   10.6786    0.3036 H       1  LIG1        0.0660
     39 H           1.1015    9.0657    0.1124 H       1  LIG1        0.0660
     40 H           0.0248    9.7174   -1.1595 H       1  LIG1        0.0660
     41 C          -3.4278    8.5332   -0.9238 C.ar    1  LIG1        0.0485
     42 C          -4.0551    9.5566   -0.2500 C.ar    1  LIG1        0.0816
     43 C          -4.9936   10.2585   -1.0917 C.ar    1  LIG1        0.1430
     44 C          -5.0637    9.7556   -2.3514 C.ar    1  LIG1        0.0193
     45 S          -3.9926    8.4234   -2.5634 S.2     1  LIG1       -0.0910
     46 H          -5.7041   10.0983   -3.1497 H       1  LIG1        0.0731
     47 C          -3.8861    9.8412    1.1335 C.1     1  LIG1       -0.0648
     48 C          -3.7661   10.0871    2.3056 C.1     1  LIG1       -0.1138
     49 H          -3.6523   10.2875    3.3458 H       1  LIG1        0.1232
     50 O          -5.7860   11.2751   -0.6586 O.3     1  LIG1       -0.4933
     51 C          -5.1022   12.4880   -0.3641 C.3     1  LIG1        0.0789
     52 H          -5.8605   13.1920   -0.0205 H       1  LIG1        0.0660
     53 H          -4.3569   12.3462    0.4233 H       1  LIG1        0.0660
     54 H          -4.6155   12.8870   -1.2615 H       1  LIG1        0.0660
@<TRIPOS>BOND
     1    46    44    1
     2    45    44   ar
     3    45    41   ar
     4    27    24    1
     5    44    43   ar
     6    12    11    1
     7    25    24    1
     8    26    24    1
     9    24    23    1
    10    54    51    1
    11    14    11    1
    12    40    37    1
    13    11    10    1
    14    11    13    1
    15    43    50    1
    16    43    42   ar
    17    41    31    1
    18    41    42   ar
    19    10     3    1
    20    32    31   ar
    21    32    28   ar
    22    50    51    1
    23    31    30   ar
    24    23    17    1
    25    51    52    1
    26    51    53    1
    27     9     8    1
    28    42    47    1
    29    37    39    1
    30    37    38    1
    31    37    36    1
    32    17    18   ar
    33    17    16   ar
    34    22    21    1
    35     8     7    3
    36    21    20    3
    37    28    18    1
    38    28    29   ar
    39    20    16    1
    40    30    36    1
    41    30    29   ar
    42    18    19   ar
    43    16    15   ar
    44     3     2   ar
    45     3     4   ar
    46     7     2    1
    47    29    33    1
    48    15    19   ar
    49    15     4    1
    50     2     1   ar
    51    47    48    3
    52     4     5   ar
    53    33    34    3
    54    34    35    1
    55     1     5   ar
    56     1     6    1
    57    48    49    1
