@<TRIPOS>MOLECULE
mol_data/opt/cam/geoms/mol2/5el5el-5el5el-.out
 54 57 0 0 0
SMALL
GASTEIGER

@<TRIPOS>ATOM
      1 C          -1.4256   -1.6889    2.3325 C.ar    1  LIG1       -0.0047
      2 C          -0.8806   -1.9675    1.1081 C.ar    1  LIG1        0.0739
      3 C          -0.4403   -0.7668    0.4384 C.ar    1  LIG1        0.1506
      4 C          -0.6718    0.3684    1.1726 C.ar    1  LIG1        0.0700
      5 S          -1.4316   -0.0169    2.6904 S.2     1  LIG1       -0.0911
      6 H          -1.8383   -2.4045    3.0281 H       1  LIG1        0.0707
      7 C          -0.8467   -3.2874    0.5691 C.1     1  LIG1       -0.0654
      8 C          -0.8442   -4.4140    0.1441 C.1     1  LIG1       -0.1138
      9 H          -0.8493   -5.4080   -0.2401 H       1  LIG1        0.1232
     10 O           0.0549   -0.6960   -0.8176 O.3     1  LIG1       -0.4927
     11 C           1.1523   -1.5476   -1.1392 C.3     1  LIG1        0.0789
     12 H           1.5113   -1.2138   -2.1126 H       1  LIG1        0.0660
     13 H           1.9536   -1.4378   -0.4037 H       1  LIG1        0.0660
     14 H           0.8422   -2.5919   -1.1993 H       1  LIG1        0.0660
     15 C          -0.4033    1.7469    0.7914 C.ar    1  LIG1        0.0491
     16 C           0.7715    2.3031    0.3395 C.ar    1  LIG1        0.0823
     17 C           0.6371    3.7082    0.0618 C.ar    1  LIG1        0.1513
     18 C          -0.6124    4.2026    0.3222 C.ar    1  LIG1        0.0706
     19 S          -1.6581    2.9378    0.8984 S.2     1  LIG1       -0.0820
     20 C           2.0140    1.6185    0.2269 C.1     1  LIG1       -0.0648
     21 C           3.0889    1.0824    0.1393 C.1     1  LIG1       -0.1138
     22 H           4.0446    0.6150    0.0775 H       1  LIG1        0.1232
     23 O           1.6570    4.4809   -0.3862 O.3     1  LIG1       -0.4927
     24 C           2.0314    4.2532   -1.7420 C.3     1  LIG1        0.0789
     25 H           2.8525    4.9391   -1.9504 H       1  LIG1        0.0660
     26 H           2.3698    3.2245   -1.8946 H       1  LIG1        0.0660
     27 H           1.1954    4.4686   -2.4161 H       1  LIG1        0.0660
     28 C          -1.0853    5.5677    0.1588 C.ar    1  LIG1        0.0491
     29 C          -0.4989    6.7316    0.6021 C.ar    1  LIG1        0.0823
     30 C          -1.2682    7.8950    0.2473 C.ar    1  LIG1        0.1513
     31 C          -2.4219    7.6064   -0.4300 C.ar    1  LIG1        0.0706
     32 S          -2.5802    5.8888   -0.6603 S.2     1  LIG1       -0.0820
     33 C           0.6824    6.7976    1.3921 C.1     1  LIG1       -0.0648
     34 C           1.6728    6.8707    2.0721 C.1     1  LIG1       -0.1138
     35 H           2.5478    6.9190    2.6780 H       1  LIG1        0.1232
     36 O          -0.9089    9.1592    0.5794 O.3     1  LIG1       -0.4927
     37 C           0.2256    9.6667   -0.1168 C.3     1  LIG1        0.0789
     38 H           0.3880   10.6760    0.2615 H       1  LIG1        0.0660
     39 H           1.1149    9.0599    0.0741 H       1  LIG1        0.0660
     40 H           0.0319    9.7082   -1.1942 H       1  LIG1        0.0660
     41 C          -3.4228    8.5359   -0.9293 C.ar    1  LIG1        0.0485
     42 C          -4.0425    9.5647   -0.2568 C.ar    1  LIG1        0.0816
     43 C          -4.9846   10.2651   -1.0958 C.ar    1  LIG1        0.1430
     44 C          -5.0646    9.7558   -2.3524 C.ar    1  LIG1        0.0193
     45 S          -3.9989    8.4193   -2.5646 S.2     1  LIG1       -0.0910
     46 H          -5.7093   10.0963   -3.1482 H       1  LIG1        0.0731
     47 C          -3.8634    9.8560    1.1241 C.1     1  LIG1       -0.0648
     48 C          -3.7348   10.1077    2.2940 C.1     1  LIG1       -0.1138
     49 H          -3.6136   10.3135    3.3324 H       1  LIG1        0.1232
     50 O          -5.7710   11.2863   -0.6627 O.3     1  LIG1       -0.4933
     51 C          -5.0816   12.4987   -0.3791 C.3     1  LIG1        0.0789
     52 H          -5.8355   13.2066   -0.0341 H       1  LIG1        0.0660
     53 H          -4.3315   12.3586    0.4039 H       1  LIG1        0.0660
     54 H          -4.5998   12.8915   -1.2819 H       1  LIG1        0.0660
@<TRIPOS>BOND
     1    46    44    1
     2    45    44   ar
     3    45    41   ar
     4    27    24    1
     5    44    43   ar
     6    12    11    1
     7    25    24    1
     8    26    24    1
     9    24    23    1
    10    54    51    1
    11    14    11    1
    12    40    37    1
    13    11    10    1
    14    11    13    1
    15    43    50    1
    16    43    42   ar
    17    41    31    1
    18    41    42   ar
    19    10     3    1
    20    50    51    1
    21    32    31   ar
    22    32    28   ar
    23    31    30   ar
    24    23    17    1
    25    51    52    1
    26    51    53    1
    27    42    47    1
    28     9     8    1
    29    37    39    1
    30    37    38    1
    31    37    36    1
    32    17    18   ar
    33    17    16   ar
    34    22    21    1
    35    21    20    3
    36     8     7    3
    37    28    18    1
    38    28    29   ar
    39    20    16    1
    40    30    36    1
    41    30    29   ar
    42    18    19   ar
    43    16    15   ar
    44     3     2   ar
    45     3     4   ar
    46     7     2    1
    47    29    33    1
    48    15    19   ar
    49    15     4    1
    50     2     1   ar
    51    47    48    3
    52     4     5   ar
    53    33    34    3
    54    34    35    1
    55    48    49    1
    56     1     5   ar
    57     1     6    1
