@<TRIPOS>MOLECULE
mol_data/opt/cam/geoms/mol2/5el5el-.out
 28 29 0 0 0
SMALL
GASTEIGER

@<TRIPOS>ATOM
      1 C          -2.1047   -1.8927    0.7582 C.ar    1  LIG1       -0.0047
      2 C          -0.9087   -2.0367    0.1087 C.ar    1  LIG1        0.0739
      3 C          -0.3149   -0.7576   -0.2006 C.ar    1  LIG1        0.1506
      4 C          -1.0801    0.3008    0.2164 C.ar    1  LIG1        0.0700
      5 S          -2.5350   -0.2541    0.9941 S.2     1  LIG1       -0.0911
      6 H          -2.7545   -2.6888    1.0900 H       1  LIG1        0.0707
      7 C          -0.3892   -3.3099   -0.2688 C.1     1  LIG1       -0.0654
      8 C           0.0159   -4.4001   -0.5804 C.1     1  LIG1       -0.1138
      9 H           0.3728   -5.3625   -0.8670 H       1  LIG1        0.1232
     10 O           0.8182   -0.5676   -0.9151 O.3     1  LIG1       -0.4927
     11 C           1.9948   -1.2284   -0.4546 C.3     1  LIG1        0.0789
     12 H           2.8099   -0.8452   -1.0684 H       1  LIG1        0.0660
     13 H           2.1872   -0.9832    0.5930 H       1  LIG1        0.0660
     14 H           1.9196   -2.3100   -0.5783 H       1  LIG1        0.0660
     15 C          -0.8202    1.7216    0.0314 C.ar    1  LIG1        0.0484
     16 C           0.2945    2.4478    0.3819 C.ar    1  LIG1        0.0816
     17 C           0.1662    3.8401    0.0279 C.ar    1  LIG1        0.1430
     18 C          -1.0217    4.1348   -0.5610 C.ar    1  LIG1        0.0193
     19 S          -2.0147    2.7371   -0.7145 S.2     1  LIG1       -0.0910
     20 H          -1.3555    5.1059   -0.8936 H       1  LIG1        0.0731
     21 C           1.4161    1.9375    1.0937 C.1     1  LIG1       -0.0648
     22 C           2.3738    1.5519    1.7140 C.1     1  LIG1       -0.1138
     23 H           3.2131    1.2170    2.2789 H       1  LIG1        0.1232
     24 O           1.1064    4.7805    0.3135 O.3     1  LIG1       -0.4933
     25 C           2.2882    4.7029   -0.4754 C.3     1  LIG1        0.0789
     26 H           2.9407    5.5059   -0.1316 H       1  LIG1        0.0660
     27 H           2.7954    3.7429   -0.3428 H       1  LIG1        0.0660
     28 H           2.0574    4.8496   -1.5366 H       1  LIG1        0.0660
@<TRIPOS>BOND
     1    28    25    1
     2    12    11    1
     3    10    11    1
     4    10     3    1
     5    20    18    1
     6     9     8    1
     7    19    18   ar
     8    19    15   ar
     9     8     7    3
    10    14    11    1
    11    18    17   ar
    12    25    27    1
    13    25    26    1
    14    25    24    1
    15    11    13    1
    16     7     2    1
    17     3     2   ar
    18     3     4   ar
    19    17    24    1
    20    17    16   ar
    21    15     4    1
    22    15    16   ar
    23     2     1   ar
    24     4     5   ar
    25    16    21    1
    26     1     5   ar
    27     1     6    1
    28    21    22    3
    29    22    23    1
