@<TRIPOS>MOLECULE
mol_data/opt/cam/geoms/mol2/5fa5fa5fa5fa-.out
 34 37 0 0 0
SMALL
GASTEIGER

@<TRIPOS>ATOM
      1 C          -2.0182   -1.9901    0.0047 C.ar    1  LIG1        0.0178
      2 C          -0.6579   -1.9620    0.0035 C.ar    1  LIG1        0.1245
      3 C          -0.1150   -0.6440    0.0018 C.ar    1  LIG1       -0.0047
      4 C          -1.0816    0.3281    0.0019 C.ar    1  LIG1        0.0330
      5 S          -2.6688   -0.3888    0.0049 S.2     1  LIG1       -0.0923
      6 H          -2.6602   -2.8567    0.0057 H       1  LIG1        0.0730
      7 O           0.0916   -3.0991    0.0036 O.3     1  LIG1       -0.5062
      8 H           1.0235   -2.8551    0.0026 H       1  LIG1        0.2922
      9 H           0.9430   -0.4183    0.0004 H       1  LIG1        0.0666
     10 C          -0.8982    1.7638    0.0006 C.ar    1  LIG1        0.0679
     11 C           0.2815    2.4670    0.0147 C.ar    1  LIG1        0.1327
     12 C           0.1252    3.8771    0.0103 C.ar    1  LIG1       -0.0041
     13 C          -1.1889    4.2673   -0.0076 C.ar    1  LIG1        0.0336
     14 S          -2.2400    2.8805   -0.0207 S.2     1  LIG1       -0.0833
     15 O           1.4901    1.8395    0.0320 O.3     1  LIG1       -0.5056
     16 H           2.1864    2.5055    0.0427 H       1  LIG1        0.2922
     17 H           0.9464    4.5810    0.0203 H       1  LIG1        0.0666
     18 C          -1.7154    5.6125   -0.0168 C.ar    1  LIG1        0.0680
     19 C          -1.0140    6.7945   -0.0199 C.ar    1  LIG1        0.1327
     20 C          -1.8263    7.9573   -0.0303 C.ar    1  LIG1       -0.0041
     21 C          -3.1663    7.6704   -0.0352 C.ar    1  LIG1        0.0336
     22 S          -3.4276    5.9509   -0.0259 S.2     1  LIG1       -0.0833
     23 O           0.3467    6.8193   -0.0136 O.3     1  LIG1       -0.5056
     24 H           0.6434    7.7362   -0.0188 H       1  LIG1        0.2922
     25 H          -1.4417    8.9683   -0.0343 H       1  LIG1        0.0666
     26 C          -4.2753    8.6009   -0.0457 C.ar    1  LIG1        0.0674
     27 C          -4.2189    9.9747   -0.0476 C.ar    1  LIG1        0.1321
     28 C          -5.4972   10.6028   -0.0587 C.ar    1  LIG1       -0.0125
     29 C          -6.5135    9.7008   -0.0651 C.ar    1  LIG1       -0.0202
     30 S          -5.9397    8.0809   -0.0582 S.2     1  LIG1       -0.0924
     31 H          -7.5751    9.8992   -0.0737 H       1  LIG1        0.0695
     32 O          -3.0345   10.6446   -0.0396 O.3     1  LIG1       -0.5056
     33 H          -3.2050   11.5930   -0.0399 H       1  LIG1        0.2922
     34 H          -5.6398   11.6776   -0.0616 H       1  LIG1        0.0659
@<TRIPOS>BOND
     1    31    29    1
     2    29    28   ar
     3    29    30   ar
     4    34    28    1
     5    28    27   ar
     6    30    26   ar
     7    27    26   ar
     8    27    32    1
     9    26    21    1
    10    33    32    1
    11    21    20   ar
    12    21    22   ar
    13    25    20    1
    14    20    19   ar
    15    22    18   ar
    16    14    13   ar
    17    14    10   ar
    18    19    18   ar
    19    19    23    1
    20    24    23    1
    21    18    13    1
    22    13    12   ar
    23     9     3    1
    24    10     4    1
    25    10    11   ar
    26     3     4   ar
    27     3     2   ar
    28     4     5   ar
    29     8     7    1
    30     2     7    1
    31     2     1   ar
    32     1     5   ar
    33     1     6    1
    34    12    11   ar
    35    12    17    1
    36    11    15    1
    37    15    16    1
