@<TRIPOS>MOLECULE
mol_data/opt/cam/geoms/mol2/5fa5fa-5fa.out
 26 28 0 0 0
SMALL
GASTEIGER

@<TRIPOS>ATOM
      1 C          -2.0594   -1.9120   -0.0001 C.ar    1  LIG1        0.0178
      2 C          -0.6991   -1.8814   -0.0005 C.ar    1  LIG1        0.1245
      3 C          -0.1591   -0.5621    0.0000 C.ar    1  LIG1       -0.0047
      4 C          -1.1279    0.4074    0.0008 C.ar    1  LIG1        0.0330
      5 S          -2.7134   -0.3124    0.0009 S.2     1  LIG1       -0.0923
      6 H          -2.6996   -2.7799   -0.0003 H       1  LIG1        0.0730
      7 O           0.0521   -3.0170   -0.0012 O.3     1  LIG1       -0.5062
      8 H           0.9838   -2.7725   -0.0014 H       1  LIG1        0.2922
      9 H           0.8983   -0.3339   -0.0002 H       1  LIG1        0.0666
     10 C          -0.9466    1.8440    0.0014 C.ar    1  LIG1        0.0679
     11 C           0.2318    2.5488    0.0014 C.ar    1  LIG1        0.1327
     12 C           0.0716    3.9593    0.0021 C.ar    1  LIG1       -0.0041
     13 C          -1.2425    4.3455    0.0026 C.ar    1  LIG1        0.0336
     14 S          -2.2905    2.9572    0.0023 S.2     1  LIG1       -0.0833
     15 O           1.4415    1.9237    0.0007 O.3     1  LIG1       -0.5056
     16 H           2.1376    2.5900    0.0008 H       1  LIG1        0.2922
     17 H           0.8917    4.6645    0.0022 H       1  LIG1        0.0666
     18 C          -1.7747    5.6924    0.0034 C.ar    1  LIG1        0.0674
     19 C          -1.0720    6.8739    0.0037 C.ar    1  LIG1        0.1321
     20 C          -1.8976    8.0347    0.0045 C.ar    1  LIG1       -0.0125
     21 C          -3.2207    7.7252    0.0049 C.ar    1  LIG1       -0.0202
     22 S          -3.4861    6.0271    0.0042 S.2     1  LIG1       -0.0924
     23 H          -4.0600    8.4049    0.0055 H       1  LIG1        0.0695
     24 O           0.2889    6.9003    0.0032 O.3     1  LIG1       -0.5056
     25 H           0.5892    7.8159    0.0034 H       1  LIG1        0.2922
     26 H          -1.5114    9.0478    0.0048 H       1  LIG1        0.0659
@<TRIPOS>BOND
     1     8     7    1
     2     7     2    1
     3     2     1   ar
     4     2     3   ar
     5     6     1    1
     6     9     3    1
     7     1     5   ar
     8     3     4   ar
     9    15    16    1
    10    15    11    1
    11     4     5   ar
    12     4    10    1
    13    11    10   ar
    14    11    12   ar
    15    10    14   ar
    16    12    17    1
    17    12    13   ar
    18    14    13   ar
    19    13    18    1
    20    24    25    1
    21    24    19    1
    22    18    19   ar
    23    18    22   ar
    24    19    20   ar
    25    22    21   ar
    26    20    26    1
    27    20    21   ar
    28    21    23    1
