@<TRIPOS>MOLECULE
mol_data/opt/cam/geoms/mol2/5fa5fa5fa.out
 26 28 0 0 0
SMALL
GASTEIGER

@<TRIPOS>ATOM
      1 C          -2.0594   -1.9120    0.0003 C.ar    1  LIG1        0.0178
      2 C          -0.6991   -1.8814    0.0016 C.ar    1  LIG1        0.1245
      3 C          -0.1591   -0.5621    0.0014 C.ar    1  LIG1       -0.0047
      4 C          -1.1279    0.4074    0.0000 C.ar    1  LIG1        0.0330
      5 S          -2.7134   -0.3124   -0.0002 S.2     1  LIG1       -0.0923
      6 H          -2.6996   -2.7798   -0.0001 H       1  LIG1        0.0730
      7 O           0.0521   -3.0170    0.0026 O.3     1  LIG1       -0.5062
      8 H           0.9838   -2.7725    0.0040 H       1  LIG1        0.2922
      9 H           0.8983   -0.3339    0.0019 H       1  LIG1        0.0666
     10 C          -0.9466    1.8440   -0.0004 C.ar    1  LIG1        0.0679
     11 C           0.2317    2.5488    0.0168 C.ar    1  LIG1        0.1327
     12 C           0.0715    3.9593    0.0126 C.ar    1  LIG1       -0.0041
     13 C          -1.2424    4.3455   -0.0082 C.ar    1  LIG1        0.0336
     14 S          -2.2903    2.9572   -0.0246 S.2     1  LIG1       -0.0833
     15 O           1.4412    1.9237    0.0367 O.3     1  LIG1       -0.5056
     16 H           2.1373    2.5900    0.0487 H       1  LIG1        0.2922
     17 H           0.8915    4.6645    0.0249 H       1  LIG1        0.0666
     18 C          -1.7745    5.6924   -0.0178 C.ar    1  LIG1        0.0674
     19 C          -1.0717    6.8738   -0.0218 C.ar    1  LIG1        0.1321
     20 C          -1.8973    8.0346   -0.0322 C.ar    1  LIG1       -0.0125
     21 C          -3.2204    7.7252   -0.0359 C.ar    1  LIG1       -0.0202
     22 S          -3.4859    6.0272   -0.0263 S.2     1  LIG1       -0.0924
     23 H          -4.0597    8.4049   -0.0434 H       1  LIG1        0.0695
     24 O           0.2892    6.9001   -0.0163 O.3     1  LIG1       -0.5056
     25 H           0.5895    7.8157   -0.0219 H       1  LIG1        0.2922
     26 H          -1.5110    9.0477   -0.0368 H       1  LIG1        0.0659
@<TRIPOS>BOND
     1    23    21    1
     2    26    20    1
     3    21    20   ar
     4    21    22   ar
     5    20    19   ar
     6    22    18   ar
     7    14    13   ar
     8    14    10   ar
     9    25    24    1
    10    19    18   ar
    11    19    24    1
    12    18    13    1
    13    13    12   ar
    14    10     4    1
    15    10    11   ar
    16     5     4   ar
    17     5     1   ar
    18     6     1    1
    19     4     3   ar
    20     1     2   ar
    21     3     2   ar
    22     3     9    1
    23     2     7    1
    24     7     8    1
    25    12    11   ar
    26    12    17    1
    27    11    15    1
    28    15    16    1
