@<TRIPOS>MOLECULE
mol_data/opt/cam/geoms/mol2/5fa5fa5fa-5fa.out
 34 37 0 0 0
SMALL
GASTEIGER

@<TRIPOS>ATOM
      1 C          -2.0181   -1.9902   -0.0017 C.ar    1  LIG1        0.0178
      2 C          -0.6579   -1.9620    0.0021 C.ar    1  LIG1        0.1245
      3 C          -0.1149   -0.6439    0.0032 C.ar    1  LIG1       -0.0047
      4 C          -1.0816    0.3281    0.0003 C.ar    1  LIG1        0.0330
      5 S          -2.6688   -0.3888   -0.0033 S.2     1  LIG1       -0.0923
      6 H          -2.6601   -2.8568   -0.0035 H       1  LIG1        0.0730
      7 O           0.0917   -3.0991    0.0043 O.3     1  LIG1       -0.5062
      8 H           1.0235   -2.8551    0.0068 H       1  LIG1        0.2922
      9 H           0.9430   -0.4182    0.0059 H       1  LIG1        0.0666
     10 C          -0.8982    1.7638    0.0007 C.ar    1  LIG1        0.0679
     11 C           0.2815    2.4670    0.0195 C.ar    1  LIG1        0.1327
     12 C           0.1251    3.8771    0.0151 C.ar    1  LIG1       -0.0041
     13 C          -1.1889    4.2673   -0.0074 C.ar    1  LIG1        0.0336
     14 S          -2.2399    2.8804   -0.0241 S.2     1  LIG1       -0.0833
     15 O           1.4899    1.8395    0.0406 O.3     1  LIG1       -0.5056
     16 H           2.1862    2.5055    0.0539 H       1  LIG1        0.2922
     17 H           0.9463    4.5810    0.0282 H       1  LIG1        0.0666
     18 C          -1.7154    5.6124   -0.0177 C.ar    1  LIG1        0.0680
     19 C          -1.0142    6.7946   -0.0061 C.ar    1  LIG1        0.1327
     20 C          -1.8264    7.9574   -0.0215 C.ar    1  LIG1       -0.0041
     21 C          -3.1662    7.6704   -0.0451 C.ar    1  LIG1        0.0336
     22 S          -3.4274    5.9508   -0.0481 S.2     1  LIG1       -0.0833
     23 O           0.3463    6.8194    0.0179 O.3     1  LIG1       -0.5056
     24 H           0.6429    7.7363    0.0233 H       1  LIG1        0.2922
     25 H          -1.4419    8.9683   -0.0156 H       1  LIG1        0.0666
     26 C          -4.2750    8.6009   -0.0654 C.ar    1  LIG1        0.0674
     27 C          -4.2189    9.9746   -0.0578 C.ar    1  LIG1        0.1321
     28 C          -5.4970   10.6027   -0.0827 C.ar    1  LIG1       -0.0125
     29 C          -6.5130    9.7007   -0.1088 C.ar    1  LIG1       -0.0202
     30 S          -5.9391    8.0809   -0.1044 S.2     1  LIG1       -0.0924
     31 H          -7.5744    9.8991   -0.1310 H       1  LIG1        0.0695
     32 O          -3.0348   10.6445   -0.0292 O.3     1  LIG1       -0.5056
     33 H          -3.2055   11.5929   -0.0244 H       1  LIG1        0.2922
     34 H          -5.6397   11.6775   -0.0808 H       1  LIG1        0.0659
@<TRIPOS>BOND
     1    31    29    1
     2    29    30   ar
     3    29    28   ar
     4    30    26   ar
     5    28    34    1
     6    28    27   ar
     7    26    27   ar
     8    26    21    1
     9    27    32    1
    10    22    21   ar
    11    22    18   ar
    12    21    20   ar
    13    32    33    1
    14    14    13   ar
    15    14    10   ar
    16    20    25    1
    17    20    19   ar
    18    18    13    1
    19    18    19   ar
    20    13    12   ar
    21    19    23    1
    22     6     1    1
    23     5     1   ar
    24     5     4   ar
    25     1     2   ar
    26     4    10    1
    27     4     3   ar
    28    10    11   ar
    29     2     3   ar
    30     2     7    1
    31     3     9    1
    32     7     8    1
    33    12    11   ar
    34    12    17    1
    35    23    24    1
    36    11    15    1
    37    15    16    1
