@<TRIPOS>MOLECULE
mol_data/opt/cam/geoms/mol2/5fa5fa-5fa-5fa.out
 34 37 0 0 0
SMALL
GASTEIGER

@<TRIPOS>ATOM
      1 C          -2.0181   -1.9902   -0.0068 C.ar    1  LIG1        0.0178
      2 C          -0.6579   -1.9620   -0.0019 C.ar    1  LIG1        0.1245
      3 C          -0.1149   -0.6439    0.0016 C.ar    1  LIG1       -0.0047
      4 C          -1.0816    0.3281   -0.0008 C.ar    1  LIG1        0.0330
      5 S          -2.6688   -0.3888   -0.0072 S.2     1  LIG1       -0.0923
      6 H          -2.6601   -2.8568   -0.0101 H       1  LIG1        0.0730
      7 O           0.0917   -3.0991   -0.0005 O.3     1  LIG1       -0.5062
      8 H           1.0235   -2.8551    0.0029 H       1  LIG1        0.2922
      9 H           0.9430   -0.4182    0.0056 H       1  LIG1        0.0666
     10 C          -0.8982    1.7638    0.0015 C.ar    1  LIG1        0.0679
     11 C           0.2816    2.4670    0.0059 C.ar    1  LIG1        0.1327
     12 C           0.1253    3.8771    0.0067 C.ar    1  LIG1       -0.0041
     13 C          -1.1890    4.2673    0.0030 C.ar    1  LIG1        0.0336
     14 S          -2.2402    2.8805   -0.0010 S.2     1  LIG1       -0.0833
     15 O           1.4903    1.8395    0.0089 O.3     1  LIG1       -0.5056
     16 H           2.1867    2.5055    0.0120 H       1  LIG1        0.2922
     17 H           0.9465    4.5810    0.0098 H       1  LIG1        0.0666
     18 C          -1.7155    5.6125    0.0026 C.ar    1  LIG1        0.0680
     19 C          -1.0144    6.7945    0.0174 C.ar    1  LIG1        0.1327
     20 C          -1.8267    7.9573    0.0134 C.ar    1  LIG1       -0.0041
     21 C          -3.1666    7.6705   -0.0047 C.ar    1  LIG1        0.0336
     22 S          -3.4277    5.9509   -0.0175 S.2     1  LIG1       -0.0833
     23 O           0.3463    6.8193    0.0344 O.3     1  LIG1       -0.5056
     24 H           0.6429    7.7362    0.0450 H       1  LIG1        0.2922
     25 H          -1.4422    8.9683    0.0235 H       1  LIG1        0.0666
     26 C          -4.2755    8.6010   -0.0135 C.ar    1  LIG1        0.0674
     27 C          -4.2193    9.9747   -0.0037 C.ar    1  LIG1        0.1321
     28 C          -5.4976   10.6028   -0.0165 C.ar    1  LIG1       -0.0125
     29 C          -6.5137    9.7009   -0.0359 C.ar    1  LIG1       -0.0202
     30 S          -5.9398    8.0810   -0.0392 S.2     1  LIG1       -0.0924
     31 H          -7.5753    9.8993   -0.0487 H       1  LIG1        0.0695
     32 O          -3.0350   10.6445    0.0164 O.3     1  LIG1       -0.5056
     33 H          -3.2056   11.5929    0.0216 H       1  LIG1        0.2922
     34 H          -5.6402   11.6776   -0.0113 H       1  LIG1        0.0659
@<TRIPOS>BOND
     1    31    29    1
     2    30    29   ar
     3    30    26   ar
     4    29    28   ar
     5    22    21   ar
     6    22    18   ar
     7    28    34    1
     8    28    27   ar
     9    26    21    1
    10    26    27   ar
    11     6     1    1
    12     5     1   ar
    13     5     4   ar
    14     1     2   ar
    15    21    20   ar
    16    27    32    1
    17     2     7    1
    18     2     3   ar
    19    14    10   ar
    20    14    13   ar
    21     4    10    1
    22     4     3   ar
    23     7     8    1
    24    10    11   ar
    25     3     9    1
    26    18    13    1
    27    18    19   ar
    28    13    12   ar
    29    11    12   ar
    30    11    15    1
    31    12    17    1
    32    15    16    1
    33    20    19   ar
    34    20    25    1
    35    32    33    1
    36    19    23    1
    37    23    24    1
