@<TRIPOS>MOLECULE
mol_data/opt/cam/geoms/mol2/5fa5fa.out
 18 19 0 0 0
SMALL
GASTEIGER

@<TRIPOS>ATOM
      1 C          -2.0739   -1.8162    0.0004 C.ar    1  LIG1        0.0178
      2 C          -0.7138   -1.7830   -0.0006 C.ar    1  LIG1        0.1245
      3 C          -0.1776   -0.4615   -0.0006 C.ar    1  LIG1       -0.0047
      4 C          -1.1487    0.5043    0.0004 C.ar    1  LIG1        0.0330
      5 S          -2.7320   -0.2188    0.0025 S.2     1  LIG1       -0.0923
      6 H          -2.7122   -2.6855    0.0003 H       1  LIG1        0.0730
      7 O           0.0399   -2.9165   -0.0018 O.3     1  LIG1       -0.5062
      8 H           0.9714   -2.6712   -0.0024 H       1  LIG1        0.2922
      9 H           0.8795   -0.2310   -0.0016 H       1  LIG1        0.0666
     10 C          -0.9718    1.9447    0.0008 C.ar    1  LIG1        0.0674
     11 C           0.2076    2.6482    0.0191 C.ar    1  LIG1        0.1321
     12 C           0.0352    4.0631    0.0147 C.ar    1  LIG1       -0.0125
     13 C          -1.2748    4.4221   -0.0073 C.ar    1  LIG1       -0.0202
     14 S          -2.3164    3.0547   -0.0237 S.2     1  LIG1       -0.0924
     15 H          -1.6889    5.4195   -0.0152 H       1  LIG1        0.0695
     16 O           1.4177    2.0241    0.0398 O.3     1  LIG1       -0.5056
     17 H           2.1166    2.6871    0.0524 H       1  LIG1        0.2922
     18 H           0.8580    4.7692    0.0276 H       1  LIG1        0.0659
@<TRIPOS>BOND
     1    14    13   ar
     2    14    10   ar
     3    15    13    1
     4    13    12   ar
     5     8     7    1
     6     7     2    1
     7     9     3    1
     8     3     2   ar
     9     3     4   ar
    10     2     1   ar
    11     6     1    1
    12     1     5   ar
    13     4    10    1
    14     4     5   ar
    15    10    11   ar
    16    12    11   ar
    17    12    18    1
    18    11    16    1
    19    16    17    1
