@<TRIPOS>MOLECULE
mol_data/opt/cam/geoms/mol2/5fa5fa-5fa-.out
 26 28 0 0 0
SMALL
GASTEIGER

@<TRIPOS>ATOM
      1 C          -2.0594   -1.9120   -0.0029 C.ar    1  LIG1        0.0178
      2 C          -0.6991   -1.8814   -0.0012 C.ar    1  LIG1        0.1245
      3 C          -0.1591   -0.5621    0.0006 C.ar    1  LIG1       -0.0047
      4 C          -1.1279    0.4074    0.0003 C.ar    1  LIG1        0.0330
      5 S          -2.7134   -0.3124   -0.0023 S.2     1  LIG1       -0.0923
      6 H          -2.6996   -2.7799   -0.0045 H       1  LIG1        0.0730
      7 O           0.0521   -3.0170   -0.0013 O.3     1  LIG1       -0.5062
      8 H           0.9838   -2.7724    0.0002 H       1  LIG1        0.2922
      9 H           0.8983   -0.3339    0.0022 H       1  LIG1        0.0666
     10 C          -0.9466    1.8440    0.0018 C.ar    1  LIG1        0.0679
     11 C           0.2318    2.5488    0.0026 C.ar    1  LIG1        0.1327
     12 C           0.0716    3.9593    0.0035 C.ar    1  LIG1       -0.0041
     13 C          -1.2425    4.3455    0.0034 C.ar    1  LIG1        0.0336
     14 S          -2.2905    2.9572    0.0032 S.2     1  LIG1       -0.0833
     15 O           1.4415    1.9237    0.0023 O.3     1  LIG1       -0.5056
     16 H           2.1376    2.5900    0.0029 H       1  LIG1        0.2922
     17 H           0.8917    4.6645    0.0038 H       1  LIG1        0.0666
     18 C          -1.7747    5.6924    0.0040 C.ar    1  LIG1        0.0674
     19 C          -1.0721    6.8738    0.0194 C.ar    1  LIG1        0.1321
     20 C          -1.8977    8.0346    0.0162 C.ar    1  LIG1       -0.0125
     21 C          -3.2207    7.7253   -0.0018 C.ar    1  LIG1       -0.0202
     22 S          -3.4860    6.0272   -0.0157 S.2     1  LIG1       -0.0924
     23 H          -4.0599    8.4049   -0.0080 H       1  LIG1        0.0695
     24 O           0.2887    6.9001    0.0362 O.3     1  LIG1       -0.5056
     25 H           0.5890    7.8157    0.0475 H       1  LIG1        0.2922
     26 H          -1.5115    9.0477    0.0270 H       1  LIG1        0.0659
@<TRIPOS>BOND
     1    22    21   ar
     2    22    18   ar
     3    23    21    1
     4     6     1    1
     5     1     5   ar
     6     1     2   ar
     7     5     4   ar
     8    21    20   ar
     9     7     2    1
    10     7     8    1
    11     2     3   ar
    12     4     3   ar
    13     4    10    1
    14     3     9    1
    15    10    11   ar
    16    10    14   ar
    17    15    11    1
    18    15    16    1
    19    11    12   ar
    20    14    13   ar
    21    13    12   ar
    22    13    18    1
    23    12    17    1
    24    18    19   ar
    25    20    19   ar
    26    20    26    1
    27    19    24    1
    28    24    25    1
