@<TRIPOS>MOLECULE
mol_data/opt/cam/geoms/mol2/5fa5fa-5fa5fa.out
 34 37 0 0 0
SMALL
GASTEIGER

@<TRIPOS>ATOM
      1 C          -2.0181   -1.9902   -0.0008 C.ar    1  LIG1        0.0178
      2 C          -0.6578   -1.9620   -0.0013 C.ar    1  LIG1        0.1245
      3 C          -0.1149   -0.6439   -0.0007 C.ar    1  LIG1       -0.0047
      4 C          -1.0816    0.3281    0.0003 C.ar    1  LIG1        0.0330
      5 S          -2.6688   -0.3889    0.0005 S.2     1  LIG1       -0.0923
      6 H          -2.6600   -2.8568   -0.0011 H       1  LIG1        0.0730
      7 O           0.0918   -3.0991   -0.0023 O.3     1  LIG1       -0.5062
      8 H           1.0237   -2.8551   -0.0026 H       1  LIG1        0.2922
      9 H           0.9430   -0.4183   -0.0010 H       1  LIG1        0.0666
     10 C          -0.8982    1.7638    0.0012 C.ar    1  LIG1        0.0679
     11 C           0.2816    2.4670    0.0015 C.ar    1  LIG1        0.1327
     12 C           0.1251    3.8771    0.0026 C.ar    1  LIG1       -0.0041
     13 C          -1.1891    4.2673    0.0030 C.ar    1  LIG1        0.0336
     14 S          -2.2402    2.8804    0.0022 S.2     1  LIG1       -0.0833
     15 O           1.4903    1.8397    0.0009 O.3     1  LIG1       -0.5056
     16 H           2.1867    2.5057    0.0013 H       1  LIG1        0.2922
     17 H           0.9465    4.5809    0.0030 H       1  LIG1        0.0666
     18 C          -1.7156    5.6124    0.0041 C.ar    1  LIG1        0.0680
     19 C          -1.0143    6.7945    0.0045 C.ar    1  LIG1        0.1327
     20 C          -1.8267    7.9573    0.0052 C.ar    1  LIG1       -0.0041
     21 C          -3.1667    7.6704    0.0054 C.ar    1  LIG1        0.0336
     22 S          -3.4279    5.9508    0.0060 S.2     1  LIG1       -0.0833
     23 O           0.3464    6.8194    0.0038 O.3     1  LIG1       -0.5056
     24 H           0.6431    7.7363    0.0044 H       1  LIG1        0.2922
     25 H          -1.4421    8.9682    0.0051 H       1  LIG1        0.0666
     26 C          -4.2757    8.6009    0.0060 C.ar    1  LIG1        0.0674
     27 C          -4.2194    9.9746    0.0223 C.ar    1  LIG1        0.1321
     28 C          -5.4977   10.6027    0.0192 C.ar    1  LIG1       -0.0125
     29 C          -6.5139    9.7008    0.0004 C.ar    1  LIG1       -0.0202
     30 S          -5.9401    8.0810   -0.0146 S.2     1  LIG1       -0.0924
     31 H          -7.5755    9.8994   -0.0061 H       1  LIG1        0.0695
     32 O          -3.0350   10.6444    0.0398 O.3     1  LIG1       -0.5056
     33 H          -3.2056   11.5927    0.0530 H       1  LIG1        0.2922
     34 H          -5.6403   11.6774    0.0306 H       1  LIG1        0.0659
@<TRIPOS>BOND
     1    30    29   ar
     2    30    26   ar
     3    31    29    1
     4     8     7    1
     5     7     2    1
     6     2     1   ar
     7     2     3   ar
     8     6     1    1
     9     9     3    1
    10     1     5   ar
    11     3     4   ar
    12     4     5   ar
    13     4    10    1
    14    29    28   ar
    15    15    16    1
    16    15    11    1
    17    10    11   ar
    18    10    14   ar
    19    11    12   ar
    20    14    13   ar
    21    12    17    1
    22    12    13   ar
    23    13    18    1
    24    23    24    1
    25    23    19    1
    26    18    19   ar
    27    18    22   ar
    28    19    20   ar
    29    25    20    1
    30    20    21   ar
    31    21    22   ar
    32    21    26    1
    33    26    27   ar
    34    28    27   ar
    35    28    34    1
    36    27    32    1
    37    32    33    1
