@<TRIPOS>MOLECULE
mol_data/opt/cam/geoms/mol2/5fa5fa5fa5fa.out
 34 37 0 0 0
SMALL
GASTEIGER

@<TRIPOS>ATOM
      1 C          -2.0184   -1.9896    0.0275 C.ar    1  LIG1        0.0178
      2 C          -0.6582   -1.9616    0.0176 C.ar    1  LIG1        0.1245
      3 C          -0.1152   -0.6436    0.0068 C.ar    1  LIG1       -0.0047
      4 C          -1.0818    0.3285    0.0089 C.ar    1  LIG1        0.0330
      5 S          -2.6689   -0.3882    0.0254 S.2     1  LIG1       -0.0923
      6 H          -2.6603   -2.8562    0.0362 H       1  LIG1        0.0730
      7 O           0.0913   -3.0987    0.0175 O.3     1  LIG1       -0.5062
      8 H           1.0232   -2.8550    0.0098 H       1  LIG1        0.2922
      9 H           0.9428   -0.4181   -0.0025 H       1  LIG1        0.0666
     10 C          -0.8982    1.7642    0.0007 C.ar    1  LIG1        0.0679
     11 C           0.2815    2.4673    0.0106 C.ar    1  LIG1        0.1327
     12 C           0.1252    3.8773    0.0008 C.ar    1  LIG1       -0.0041
     13 C          -1.1888    4.2676   -0.0174 C.ar    1  LIG1        0.0336
     14 S          -2.2400    2.8808   -0.0249 S.2     1  LIG1       -0.0833
     15 O           1.4901    1.8399    0.0292 O.3     1  LIG1       -0.5056
     16 H           2.1864    2.5059    0.0402 H       1  LIG1        0.2922
     17 H           0.9466    4.5811    0.0073 H       1  LIG1        0.0666
     18 C          -1.7152    5.6127   -0.0312 C.ar    1  LIG1        0.0680
     19 C          -1.0137    6.7946   -0.0461 C.ar    1  LIG1        0.1327
     20 C          -1.8260    7.9574   -0.0606 C.ar    1  LIG1       -0.0041
     21 C          -3.1659    7.6707   -0.0558 C.ar    1  LIG1        0.0336
     22 S          -3.4274    5.9514   -0.0277 S.2     1  LIG1       -0.0833
     23 O           0.3470    6.8192   -0.0488 O.3     1  LIG1       -0.5056
     24 H           0.6439    7.7359   -0.0648 H       1  LIG1        0.2922
     25 H          -1.4413    8.9682   -0.0756 H       1  LIG1        0.0666
     26 C          -4.2747    8.6013   -0.0661 C.ar    1  LIG1        0.0674
     27 C          -4.2198    9.9734    0.0027 C.ar    1  LIG1        0.1321
     28 C          -5.4976   10.6020   -0.0240 C.ar    1  LIG1       -0.0125
     29 C          -6.5118    9.7022   -0.1136 C.ar    1  LIG1       -0.0202
     30 S          -5.9365    8.0838   -0.1717 S.2     1  LIG1       -0.0924
     31 H          -7.5726    9.9016   -0.1521 H       1  LIG1        0.0695
     32 O          -3.0370   10.6410    0.0875 O.3     1  LIG1       -0.5056
     33 H          -3.2094   11.5864    0.1586 H       1  LIG1        0.2922
     34 H          -5.6413   11.6757    0.0221 H       1  LIG1        0.0659
@<TRIPOS>BOND
     1    30    29   ar
     2    30    26   ar
     3    31    29    1
     4    29    28   ar
     5    25    20    1
     6    26    21    1
     7    26    27   ar
     8    24    23    1
     9    20    21   ar
    10    20    19   ar
    11    21    22   ar
    12    23    19    1
    13    19    18   ar
    14    18    22   ar
    15    18    13    1
    16    14    13   ar
    17    14    10   ar
    18    28    27   ar
    19    28    34    1
    20    13    12   ar
    21     9     3    1
    22    10     4    1
    23    10    11   ar
    24    12    17    1
    25    12    11   ar
    26    27    32    1
    27     3     4   ar
    28     3     2   ar
    29     4     5   ar
    30     8     7    1
    31    11    15    1
    32     7     2    1
    33     2     1   ar
    34     5     1   ar
    35     1     6    1
    36    15    16    1
    37    32    33    1
