@<TRIPOS>MOLECULE
mol_data/opt/cam/geoms/mol2/5fa5fa-5fa-5fa-.out
 34 37 0 0 0
SMALL
GASTEIGER

@<TRIPOS>ATOM
      1 C          -2.0181   -1.9901   -0.0167 C.ar    1  LIG1        0.0178
      2 C          -0.6579   -1.9620   -0.0039 C.ar    1  LIG1        0.1245
      3 C          -0.1150   -0.6440    0.0039 C.ar    1  LIG1       -0.0047
      4 C          -1.0816    0.3281   -0.0031 C.ar    1  LIG1        0.0330
      5 S          -2.6687   -0.3888   -0.0195 S.2     1  LIG1       -0.0923
      6 H          -2.6601   -2.8567   -0.0244 H       1  LIG1        0.0730
      7 O           0.0916   -3.0991    0.0008 O.3     1  LIG1       -0.5062
      8 H           1.0234   -2.8551    0.0101 H       1  LIG1        0.2922
      9 H           0.9429   -0.4183    0.0143 H       1  LIG1        0.0666
     10 C          -0.8982    1.7639    0.0015 C.ar    1  LIG1        0.0679
     11 C           0.2816    2.4670    0.0116 C.ar    1  LIG1        0.1327
     12 C           0.1252    3.8770    0.0134 C.ar    1  LIG1       -0.0041
     13 C          -1.1890    4.2673    0.0046 C.ar    1  LIG1        0.0336
     14 S          -2.2401    2.8805   -0.0056 S.2     1  LIG1       -0.0833
     15 O           1.4902    1.8395    0.0190 O.3     1  LIG1       -0.5056
     16 H           2.1866    2.5055    0.0247 H       1  LIG1        0.2922
     17 H           0.9465    4.5809    0.0207 H       1  LIG1        0.0666
     18 C          -1.7155    5.6125    0.0035 C.ar    1  LIG1        0.0680
     19 C          -1.0143    6.7946    0.0122 C.ar    1  LIG1        0.1327
     20 C          -1.8266    7.9574    0.0086 C.ar    1  LIG1       -0.0041
     21 C          -3.1665    7.6705   -0.0032 C.ar    1  LIG1        0.0336
     22 S          -3.4277    5.9509   -0.0105 S.2     1  LIG1       -0.0833
     23 O           0.3464    6.8193    0.0237 O.3     1  LIG1       -0.5056
     24 H           0.6431    7.7362    0.0284 H       1  LIG1        0.2922
     25 H          -1.4421    8.9683    0.0147 H       1  LIG1        0.0666
     26 C          -4.2755    8.6010   -0.0101 C.ar    1  LIG1        0.0674
     27 C          -4.2192    9.9747   -0.0211 C.ar    1  LIG1        0.1321
     28 C          -5.4975   10.6028   -0.0267 C.ar    1  LIG1       -0.0125
     29 C          -6.5138    9.7009   -0.0200 C.ar    1  LIG1       -0.0202
     30 S          -5.9400    8.0810   -0.0057 S.2     1  LIG1       -0.0924
     31 H          -7.5754    9.8993   -0.0220 H       1  LIG1        0.0695
     32 O          -3.0347   10.6445   -0.0258 O.3     1  LIG1       -0.5056
     33 H          -3.2052   11.5928   -0.0396 H       1  LIG1        0.2922
     34 H          -5.6400   11.6776   -0.0355 H       1  LIG1        0.0659
@<TRIPOS>BOND
     1    33    32    1
     2    34    28    1
     3    28    27   ar
     4    28    29   ar
     5    32    27    1
     6     6     1    1
     7    31    29    1
     8    27    26   ar
     9    29    30   ar
    10     5     1   ar
    11     5     4   ar
    12     1     2   ar
    13    22    21   ar
    14    22    18   ar
    15    26    30   ar
    16    26    21    1
    17    14    10   ar
    18    14    13   ar
    19     2     7    1
    20     2     3   ar
    21    21    20   ar
    22     4    10    1
    23     4     3   ar
    24     7     8    1
    25    10    11   ar
    26    18    13    1
    27    18    19   ar
    28     3     9    1
    29    13    12   ar
    30    20    19   ar
    31    20    25    1
    32    11    12   ar
    33    11    15    1
    34    19    23    1
    35    12    17    1
    36    15    16    1
    37    23    24    1
