@<TRIPOS>MOLECULE
mol_data/opt/cam/geoms/mol2/5fa5fa-5fa5fa-.out
 34 37 0 0 0
SMALL
GASTEIGER

@<TRIPOS>ATOM
      1 C          -2.0181   -1.9902    0.0001 C.ar    1  LIG1        0.0178
      2 C          -0.6579   -1.9620   -0.0005 C.ar    1  LIG1        0.1245
      3 C          -0.1149   -0.6439   -0.0001 C.ar    1  LIG1       -0.0047
      4 C          -1.0816    0.3281    0.0008 C.ar    1  LIG1        0.0330
      5 S          -2.6688   -0.3888    0.0011 S.2     1  LIG1       -0.0923
      6 H          -2.6601   -2.8568   -0.0000 H       1  LIG1        0.0730
      7 O           0.0917   -3.0991   -0.0013 O.3     1  LIG1       -0.5062
      8 H           1.0235   -2.8551   -0.0016 H       1  LIG1        0.2922
      9 H           0.9430   -0.4182   -0.0005 H       1  LIG1        0.0666
     10 C          -0.8982    1.7638    0.0014 C.ar    1  LIG1        0.0679
     11 C           0.2816    2.4670    0.0012 C.ar    1  LIG1        0.1327
     12 C           0.1253    3.8771    0.0019 C.ar    1  LIG1       -0.0041
     13 C          -1.1890    4.2673    0.0027 C.ar    1  LIG1        0.0336
     14 S          -2.2402    2.8805    0.0024 S.2     1  LIG1       -0.0833
     15 O           1.4903    1.8395    0.0004 O.3     1  LIG1       -0.5056
     16 H           2.1867    2.5055    0.0004 H       1  LIG1        0.2922
     17 H           0.9465    4.5810    0.0019 H       1  LIG1        0.0666
     18 C          -1.7156    5.6125    0.0035 C.ar    1  LIG1        0.0680
     19 C          -1.0143    6.7946    0.0037 C.ar    1  LIG1        0.1327
     20 C          -1.8266    7.9574    0.0046 C.ar    1  LIG1       -0.0041
     21 C          -3.1666    7.6704    0.0051 C.ar    1  LIG1        0.0336
     22 S          -3.4278    5.9509    0.0045 S.2     1  LIG1       -0.0833
     23 O           0.3465    6.8194    0.0031 O.3     1  LIG1       -0.5056
     24 H           0.6431    7.7363    0.0033 H       1  LIG1        0.2922
     25 H          -1.4421    8.9683    0.0049 H       1  LIG1        0.0666
     26 C          -4.2757    8.6009    0.0061 C.ar    1  LIG1        0.0674
     27 C          -4.2194    9.9747    0.0065 C.ar    1  LIG1        0.1321
     28 C          -5.4977   10.6028    0.0074 C.ar    1  LIG1       -0.0125
     29 C          -6.5140    9.7007    0.0077 C.ar    1  LIG1       -0.0202
     30 S          -5.9401    8.0809    0.0068 S.2     1  LIG1       -0.0924
     31 H          -7.5756    9.8991    0.0083 H       1  LIG1        0.0695
     32 O          -3.0349   10.6446    0.0060 O.3     1  LIG1       -0.5056
     33 H          -3.2055   11.5930    0.0063 H       1  LIG1        0.2922
     34 H          -5.6403   11.6775    0.0078 H       1  LIG1        0.0659
@<TRIPOS>BOND
     1     8     7    1
     2     7     2    1
     3     2     3   ar
     4     2     1   ar
     5     9     3    1
     6     3     4   ar
     7     6     1    1
     8     1     5   ar
     9    15    16    1
    10    15    11    1
    11     4     5   ar
    12     4    10    1
    13    11    10   ar
    14    11    12   ar
    15    10    14   ar
    16    17    12    1
    17    12    13   ar
    18    14    13   ar
    19    13    18    1
    20    23    24    1
    21    23    19    1
    22    18    19   ar
    23    18    22   ar
    24    19    20   ar
    25    22    21   ar
    26    20    25    1
    27    20    21   ar
    28    21    26    1
    29    32    33    1
    30    32    27    1
    31    26    27   ar
    32    26    30   ar
    33    27    28   ar
    34    30    29   ar
    35    28    29   ar
    36    28    34    1
    37    29    31    1
