@<TRIPOS>MOLECULE
mol_data/opt/cam/geoms/mol2/5fa5fa5fa-5fa-.out
 34 37 0 0 0
SMALL
GASTEIGER

@<TRIPOS>ATOM
      1 C          -2.0181   -1.9902   -0.0013 C.ar    1  LIG1        0.0178
      2 C          -0.6579   -1.9620    0.0029 C.ar    1  LIG1        0.1245
      3 C          -0.1149   -0.6439    0.0042 C.ar    1  LIG1       -0.0047
      4 C          -1.0816    0.3281    0.0008 C.ar    1  LIG1        0.0330
      5 S          -2.6688   -0.3889   -0.0026 S.2     1  LIG1       -0.0923
      6 H          -2.6600   -2.8569   -0.0034 H       1  LIG1        0.0730
      7 O           0.0917   -3.0991    0.0053 O.3     1  LIG1       -0.5062
      8 H           1.0236   -2.8552    0.0081 H       1  LIG1        0.2922
      9 H           0.9430   -0.4183    0.0070 H       1  LIG1        0.0666
     10 C          -0.8982    1.7638    0.0009 C.ar    1  LIG1        0.0679
     11 C           0.2814    2.4669    0.0190 C.ar    1  LIG1        0.1327
     12 C           0.1251    3.8770    0.0144 C.ar    1  LIG1       -0.0041
     13 C          -1.1890    4.2672   -0.0076 C.ar    1  LIG1        0.0336
     14 S          -2.2400    2.8804   -0.0237 S.2     1  LIG1       -0.0833
     15 O           1.4900    1.8396    0.0398 O.3     1  LIG1       -0.5056
     16 H           2.1862    2.5057    0.0532 H       1  LIG1        0.2922
     17 H           0.9463    4.5809    0.0270 H       1  LIG1        0.0666
     18 C          -1.7154    5.6124   -0.0182 C.ar    1  LIG1        0.0680
     19 C          -1.0142    6.7945   -0.0069 C.ar    1  LIG1        0.1327
     20 C          -1.8265    7.9573   -0.0220 C.ar    1  LIG1       -0.0041
     21 C          -3.1663    7.6704   -0.0451 C.ar    1  LIG1        0.0336
     22 S          -3.4274    5.9508   -0.0491 S.2     1  LIG1       -0.0833
     23 O           0.3463    6.8194    0.0170 O.3     1  LIG1       -0.5056
     24 H           0.6429    7.7364    0.0218 H       1  LIG1        0.2922
     25 H          -1.4419    8.9682   -0.0159 H       1  LIG1        0.0666
     26 C          -4.2750    8.6009   -0.0652 C.ar    1  LIG1        0.0674
     27 C          -4.2186    9.9746   -0.0736 C.ar    1  LIG1        0.1321
     28 C          -5.4968   10.6027   -0.0945 C.ar    1  LIG1       -0.0125
     29 C          -6.5131    9.7008   -0.1015 C.ar    1  LIG1       -0.0202
     30 S          -5.9394    8.0809   -0.0827 S.2     1  LIG1       -0.0924
     31 H          -7.5746    9.8992   -0.1166 H       1  LIG1        0.0695
     32 O          -3.0342   10.6445   -0.0630 O.3     1  LIG1       -0.5056
     33 H          -3.2047   11.5929   -0.0713 H       1  LIG1        0.2922
     34 H          -5.6392   11.6774   -0.1037 H       1  LIG1        0.0659
@<TRIPOS>BOND
     1    31    29    1
     2    34    28    1
     3    29    28   ar
     4    29    30   ar
     5    28    27   ar
     6    30    26   ar
     7    27    26   ar
     8    27    32    1
     9    33    32    1
    10    26    21    1
    11    22    21   ar
    12    22    18   ar
    13    21    20   ar
    14    14    13   ar
    15    14    10   ar
    16    20    25    1
    17    20    19   ar
    18    18    13    1
    19    18    19   ar
    20    13    12   ar
    21    19    23    1
    22     6     1    1
    23     5     1   ar
    24     5     4   ar
    25     1     2   ar
    26     4    10    1
    27     4     3   ar
    28    10    11   ar
    29     2     3   ar
    30     2     7    1
    31     3     9    1
    32     7     8    1
    33    12    11   ar
    34    12    17    1
    35    23    24    1
    36    11    15    1
    37    15    16    1
