@<TRIPOS>MOLECULE
mol_data/opt/cam/geoms/mol2/5fa5fa5fa-.out
 26 28 0 0 0
SMALL
GASTEIGER

@<TRIPOS>ATOM
      1 C          -2.0594   -1.9120   -0.0025 C.ar    1  LIG1        0.0178
      2 C          -0.6991   -1.8814    0.0009 C.ar    1  LIG1        0.1245
      3 C          -0.1591   -0.5621    0.0020 C.ar    1  LIG1       -0.0047
      4 C          -1.1279    0.4074   -0.0004 C.ar    1  LIG1        0.0330
      5 S          -2.7134   -0.3124   -0.0034 S.2     1  LIG1       -0.0923
      6 H          -2.6996   -2.7798   -0.0043 H       1  LIG1        0.0730
      7 O           0.0521   -3.0170    0.0025 O.3     1  LIG1       -0.5062
      8 H           0.9838   -2.7725    0.0056 H       1  LIG1        0.2922
      9 H           0.8983   -0.3339    0.0043 H       1  LIG1        0.0666
     10 C          -0.9466    1.8440    0.0000 C.ar    1  LIG1        0.0679
     11 C           0.2317    2.5488    0.0180 C.ar    1  LIG1        0.1327
     12 C           0.0715    3.9593    0.0140 C.ar    1  LIG1       -0.0041
     13 C          -1.2424    4.3455   -0.0075 C.ar    1  LIG1        0.0336
     14 S          -2.2903    2.9572   -0.0237 S.2     1  LIG1       -0.0833
     15 O           1.4412    1.9237    0.0382 O.3     1  LIG1       -0.5056
     16 H           2.1372    2.5899    0.0509 H       1  LIG1        0.2922
     17 H           0.8915    4.6645    0.0265 H       1  LIG1        0.0666
     18 C          -1.7745    5.6924   -0.0172 C.ar    1  LIG1        0.0674
     19 C          -1.0719    6.8739   -0.0061 C.ar    1  LIG1        0.1321
     20 C          -1.8974    8.0347   -0.0205 C.ar    1  LIG1       -0.0125
     21 C          -3.2203    7.7252   -0.0425 C.ar    1  LIG1       -0.0202
     22 S          -3.4857    6.0271   -0.0462 S.2     1  LIG1       -0.0924
     23 H          -4.0595    8.4048   -0.0569 H       1  LIG1        0.0695
     24 O           0.2888    6.9003    0.0166 O.3     1  LIG1       -0.5056
     25 H           0.5891    7.8158    0.0222 H       1  LIG1        0.2922
     26 H          -1.5113    9.0477   -0.0146 H       1  LIG1        0.0659
@<TRIPOS>BOND
     1    23    21    1
     2    22    21   ar
     3    22    18   ar
     4    21    20   ar
     5    14    13   ar
     6    14    10   ar
     7    20    26    1
     8    20    19   ar
     9    18    13    1
    10    18    19   ar
    11    13    12   ar
    12    19    24    1
    13     6     1    1
    14     5     1   ar
    15     5     4   ar
    16     1     2   ar
    17     4    10    1
    18     4     3   ar
    19    10    11   ar
    20     2     3   ar
    21     2     7    1
    22     3     9    1
    23     7     8    1
    24    12    11   ar
    25    12    17    1
    26    24    25    1
    27    11    15    1
    28    15    16    1
