@<TRIPOS>MOLECULE
mol_data/opt/cam/geoms/mol2/5fd.out
 11 11 0 0 0
SMALL
GASTEIGER

@<TRIPOS>ATOM
      1 C          -2.0898   -1.7266   -0.0000 C.ar    1  LIG1        0.0185
      2 C          -0.7303   -1.6865   -0.0004 C.ar    1  LIG1        0.1411
      3 C          -0.2267   -0.3383   -0.0000 C.ar    1  LIG1        0.1001
      4 C          -1.2259    0.5972    0.0003 C.ar    1  LIG1       -0.0033
      5 S          -2.7668   -0.1377    0.0010 S.2     1  LIG1       -0.1000
      6 H          -2.7172   -2.6040   -0.0001 H       1  LIG1        0.0730
      7 H          -1.1155    1.6712    0.0005 H       1  LIG1        0.0707
      8 O           0.0488   -2.7891   -0.0010 O.3     1  LIG1       -0.5049
      9 H           0.9814   -2.5339   -0.0011 H       1  LIG1        0.2922
     10 N           2.3228    0.0554   -0.0009 N.1     1  LIG1       -0.1907
     11 C           1.1717   -0.0705   -0.0003 C.1     1  LIG1        0.1034
@<TRIPOS>BOND
     1     9     8    1
     2     8     2    1
     3    10    11    3
     4     2     3   ar
     5     2     1   ar
     6    11     3    1
     7     6     1    1
     8     3     4   ar
     9     1     5   ar
    10     4     7    1
    11     4     5   ar
