@<TRIPOS>MOLECULE
mol_data/opt/cam/geoms/mol2/5fd5fd5fd-5fd-.out
 38 41 0 0 0
SMALL
GASTEIGER

@<TRIPOS>ATOM
      1 C          -1.5016   -1.9073    1.2049 C.ar    1  LIG1        0.0191
      2 C          -0.6919   -1.9212    0.1130 C.ar    1  LIG1        0.1418
      3 C          -0.3332   -0.5994   -0.3249 C.ar    1  LIG1        0.1084
      4 C          -0.8759    0.3963    0.4591 C.ar    1  LIG1        0.0505
      5 S          -1.8169   -0.2953    1.7332 S.2     1  LIG1       -0.0910
      6 H          -1.9230   -2.7581    1.7166 H       1  LIG1        0.0731
      7 O          -0.2881   -3.0528   -0.4991 O.3     1  LIG1       -0.5049
      8 H           0.2626   -2.8341   -1.2638 H       1  LIG1        0.2922
      9 N           1.0600   -0.4199   -2.4846 N.1     1  LIG1       -0.1907
     10 C           0.4441   -0.4301   -1.5038 C.1     1  LIG1        0.1040
     11 C          -0.7238    1.8308    0.3222 C.ar    1  LIG1        0.0705
     12 C           0.4132    2.5284    0.0093 C.ar    1  LIG1        0.1501
     13 C           0.2052    3.9456   -0.0565 C.ar    1  LIG1        0.1090
     14 C          -1.0905    4.3179    0.2327 C.ar    1  LIG1        0.0511
     15 S          -2.0571    2.9271    0.5769 S.2     1  LIG1       -0.0820
     16 O           1.5965    1.9295   -0.1943 O.3     1  LIG1       -0.5043
     17 H           2.2532    2.5691   -0.5053 H       1  LIG1        0.2922
     18 N           2.2080    5.3812   -0.8085 N.1     1  LIG1       -0.1907
     19 C           1.2735    4.7964   -0.4541 C.1     1  LIG1        0.1040
     20 C          -1.6545    5.6497    0.2731 C.ar    1  LIG1        0.0705
     21 C          -1.0782    6.7904    0.7707 C.ar    1  LIG1        0.1501
     22 C          -1.9382    7.9344    0.6932 C.ar    1  LIG1        0.1090
     23 C          -3.1671    7.6525    0.1359 C.ar    1  LIG1        0.0511
     24 S          -3.2623    5.9880   -0.3147 S.2     1  LIG1       -0.0820
     25 O           0.1417    6.8004    1.3255 O.3     1  LIG1       -0.5043
     26 H           0.3983    7.7001    1.5743 H       1  LIG1        0.2922
     27 N          -1.0746   10.1188    1.7522 N.1     1  LIG1       -0.1907
     28 C          -1.5155    9.1737    1.2493 C.1     1  LIG1        0.1040
     29 C          -4.2724    8.5570   -0.1026 C.ar    1  LIG1        0.0699
     30 C          -4.2092    9.8515   -0.5552 C.ar    1  LIG1        0.1494
     31 C          -5.5058   10.4511   -0.6922 C.ar    1  LIG1        0.1007
     32 C          -6.5191    9.5973   -0.3523 C.ar    1  LIG1       -0.0027
     33 S          -5.9319    8.0757    0.1445 S.2     1  LIG1       -0.0910
     34 H          -7.5787    9.8063   -0.3682 H       1  LIG1        0.0708
     35 O          -3.0530   10.4535   -0.8670 O.3     1  LIG1       -0.5043
     36 H          -3.1977   11.3823   -1.0969 H       1  LIG1        0.2922
     37 N          -5.6876   12.8845   -1.5298 N.1     1  LIG1       -0.1907
     38 C          -5.6547   11.7914   -1.1505 C.1     1  LIG1        0.1034
@<TRIPOS>BOND
     1     9    10    3
     2    37    38    3
     3    10     3    1
     4     8     7    1
     5    38    31    1
     6    36    35    1
     7    35    30    1
     8    18    19    3
     9    31    30   ar
    10    31    32   ar
    11    30    29   ar
    12    17    16    1
    13     7     2    1
    14    19    13    1
    15    34    32    1
    16    32    33   ar
    17     3     2   ar
    18     3     4   ar
    19    24    23   ar
    20    24    20   ar
    21    16    12    1
    22    29    23    1
    23    29    33   ar
    24    13    12   ar
    25    13    14   ar
    26    12    11   ar
    27     2     1   ar
    28    23    22   ar
    29    14    20    1
    30    14    15   ar
    31    20    21   ar
    32    11     4    1
    33    11    15   ar
    34     4     5   ar
    35    22    21   ar
    36    22    28    1
    37    21    25    1
    38     1     6    1
    39     1     5   ar
    40    28    27    3
    41    25    26    1
