@<TRIPOS>MOLECULE
mol_data/opt/cam/geoms/mol2/5fd5fd-5fd5fd.out
 38 41 0 0 0
SMALL
GASTEIGER

@<TRIPOS>ATOM
      1 C          -1.9659   -1.9616    0.2125 C.ar    1  LIG1        0.0191
      2 C          -0.6712   -1.9322   -0.2003 C.ar    1  LIG1        0.1418
      3 C          -0.1401   -0.5969   -0.2586 C.ar    1  LIG1        0.1084
      4 C          -1.0504    0.3645    0.1259 C.ar    1  LIG1        0.0505
      5 S          -2.5505   -0.3759    0.5623 S.2     1  LIG1       -0.0910
      6 H          -2.5965   -2.8294    0.3248 H       1  LIG1        0.0731
      7 O           0.0279   -3.0354   -0.5351 O.3     1  LIG1       -0.5049
      8 H           0.9181   -2.7861   -0.8205 H       1  LIG1        0.2922
      9 N           2.2496   -0.3323   -1.1838 N.1     1  LIG1       -0.1907
     10 C           1.1770   -0.3806   -0.7492 C.1     1  LIG1        0.1040
     11 C          -0.8662    1.7993    0.1995 C.ar    1  LIG1        0.0705
     12 C           0.2305    2.4845    0.6528 C.ar    1  LIG1        0.1501
     13 C           0.0580    3.9077    0.6234 C.ar    1  LIG1        0.1090
     14 C          -1.1758    4.2951    0.1448 C.ar    1  LIG1        0.0511
     15 S          -2.1172    2.9125   -0.2896 S.2     1  LIG1       -0.0820
     16 O           1.3232    1.8678    1.1275 O.3     1  LIG1       -0.5043
     17 H           2.0079    2.5134    1.3541 H       1  LIG1        0.2922
     18 N           1.9605    5.3290    1.6225 N.1     1  LIG1       -0.1907
     19 C           1.0761    4.7505    1.1492 C.1     1  LIG1        0.1040
     20 C          -1.6930    5.6346   -0.0289 C.ar    1  LIG1        0.0705
     21 C          -1.0213    6.7430   -0.4785 C.ar    1  LIG1        0.1501
     22 C          -1.8557    7.9041   -0.5765 C.ar    1  LIG1        0.1090
     23 C          -3.1608    7.6680   -0.2007 C.ar    1  LIG1        0.0511
     24 S          -3.3622    6.0260    0.2958 S.2     1  LIG1       -0.0820
     25 O           0.2678    6.7075   -0.8419 O.3     1  LIG1       -0.5043
     26 H           0.5783    7.5890   -1.0946 H       1  LIG1        0.2922
     27 N          -0.7919   10.0270   -1.5770 N.1     1  LIG1       -0.1907
     28 C          -1.3251    9.1115   -1.1101 C.1     1  LIG1        0.1040
     29 C          -4.2677    8.6010   -0.1670 C.ar    1  LIG1        0.0699
     30 C          -4.2427    9.9121    0.2391 C.ar    1  LIG1        0.1494
     31 C          -5.5309   10.5391    0.1562 C.ar    1  LIG1        0.1007
     32 C          -6.5016    9.6893   -0.2987 C.ar    1  LIG1       -0.0027
     33 S          -5.8822    8.1383   -0.6418 S.2     1  LIG1       -0.0910
     34 H          -7.5465    9.9169   -0.4505 H       1  LIG1        0.0708
     35 O          -3.1324   10.5065    0.6979 O.3     1  LIG1       -0.5043
     36 H          -3.2874   11.4471    0.8646 H       1  LIG1        0.2922
     37 N          -5.7793   13.0081    0.8621 N.1     1  LIG1       -0.1907
     38 C          -5.7155   11.8997    0.5345 C.1     1  LIG1        0.1034
@<TRIPOS>BOND
     1    27    28    3
     2     9    10    3
     3    28    22    1
     4    26    25    1
     5    25    21    1
     6     8     7    1
     7    10     3    1
     8    33    32   ar
     9    33    29   ar
    10    22    21   ar
    11    22    23   ar
    12     7     2    1
    13    21    20   ar
    14    34    32    1
    15    32    31   ar
    16    15    14   ar
    17    15    11   ar
    18     3     2   ar
    19     3     4   ar
    20    23    29    1
    21    23    24   ar
    22     2     1   ar
    23    29    30   ar
    24    20    14    1
    25    20    24   ar
    26     4    11    1
    27     4     5   ar
    28    14    13   ar
    29    31    30   ar
    30    31    38    1
    31    11    12   ar
    32     1     6    1
    33     1     5   ar
    34    30    35    1
    35    38    37    3
    36    13    12   ar
    37    13    19    1
    38    12    16    1
    39    35    36    1
    40    16    17    1
    41    19    18    3
