@<TRIPOS>MOLECULE
mol_data/opt/cam/geoms/mol2/5fd5fd.out
 20 21 0 0 0
SMALL
GASTEIGER

@<TRIPOS>ATOM
      1 C          -2.0224   -1.7864    0.4994 C.ar    1  LIG1        0.0191
      2 C          -0.7294   -1.8093    0.0802 C.ar    1  LIG1        0.1418
      3 C          -0.2115   -0.4936   -0.1805 C.ar    1  LIG1        0.1084
      4 C          -1.1294    0.5062    0.0587 C.ar    1  LIG1        0.0504
      5 S          -2.6197   -0.1715    0.6091 S.2     1  LIG1       -0.0910
      6 H          -2.6444   -2.6328    0.7448 H       1  LIG1        0.0731
      7 O          -0.0219   -2.9449   -0.0869 O.3     1  LIG1       -0.5049
      8 H           0.8657   -2.7351   -0.4097 H       1  LIG1        0.2922
      9 N           2.1768   -0.3323   -1.1342 N.1     1  LIG1       -0.1907
     10 C           1.1038   -0.3359   -0.6981 C.1     1  LIG1        0.1040
     11 C          -0.9530    1.9387   -0.0875 C.ar    1  LIG1        0.0699
     12 C           0.1355    2.6882    0.2778 C.ar    1  LIG1        0.1494
     13 C          -0.0333    4.0844   -0.0102 C.ar    1  LIG1        0.1007
     14 C          -1.2470    4.3628   -0.5767 C.ar    1  LIG1       -0.0027
     15 S          -2.1892    2.9561   -0.7807 S.2     1  LIG1       -0.0911
     16 H          -1.6158    5.3307   -0.8826 H       1  LIG1        0.0708
     17 O           1.2152    2.1573    0.8740 O.3     1  LIG1       -0.5043
     18 H           1.9132    2.8200    0.9706 H       1  LIG1        0.2922
     19 N           1.8599    5.7350    0.5796 N.1     1  LIG1       -0.1907
     20 C           0.9850    5.0312    0.2978 C.1     1  LIG1        0.1034
@<TRIPOS>BOND
     1     9    10    3
     2    16    14    1
     3    15    14   ar
     4    15    11   ar
     5    10     3    1
     6    14    13   ar
     7     8     7    1
     8     3     4   ar
     9     3     2   ar
    10    11     4    1
    11    11    12   ar
    12     7     2    1
    13    13    12   ar
    14    13    20    1
    15     4     5   ar
    16     2     1   ar
    17    12    17    1
    18    20    19    3
    19     1     5   ar
    20     1     6    1
    21    17    18    1
