@<TRIPOS>MOLECULE
mol_data/opt/cam/geoms/mol2/5fd5fd5fd-.out
 29 31 0 0 0
SMALL
GASTEIGER

@<TRIPOS>ATOM
      1 C          -1.8982   -1.8102    0.9512 C.ar    1  LIG1        0.0191
      2 C          -0.7811   -1.8760    0.1793 C.ar    1  LIG1        0.1418
      3 C          -0.2858   -0.5766   -0.1861 C.ar    1  LIG1        0.1084
      4 C          -1.0402    0.4549    0.3310 C.ar    1  LIG1        0.0505
      5 S          -2.3480   -0.1751    1.2684 S.2     1  LIG1       -0.0910
      6 H          -2.4711   -2.6359    1.3430 H       1  LIG1        0.0731
      7 O          -0.2152   -3.0355   -0.2124 O.3     1  LIG1       -0.5049
      8 H           0.5545   -2.8539   -0.7696 H       1  LIG1        0.2922
      9 N           1.7302   -0.4981   -1.7884 N.1     1  LIG1       -0.1907
     10 C           0.8312   -0.4629   -1.0590 C.1     1  LIG1        0.1040
     11 C          -0.8354    1.8815    0.1773 C.ar    1  LIG1        0.0705
     12 C           0.3502    2.5676    0.2143 C.ar    1  LIG1        0.1501
     13 C           0.1904    3.9779    0.0111 C.ar    1  LIG1        0.1090
     14 C          -1.1240    4.3566   -0.1565 C.ar    1  LIG1        0.0511
     15 S          -2.1657    2.9819   -0.0716 S.2     1  LIG1       -0.0820
     16 O           1.5283    1.9651    0.4372 O.3     1  LIG1       -0.5043
     17 H           2.2584    2.5902    0.3223 H       1  LIG1        0.2922
     18 N           2.3362    5.3994   -0.1130 N.1     1  LIG1       -0.1907
     19 C           1.3362    4.8185   -0.0563 C.1     1  LIG1        0.1040
     20 C          -1.6520    5.6889   -0.3713 C.ar    1  LIG1        0.0699
     21 C          -1.2622    6.8504    0.2464 C.ar    1  LIG1        0.1494
     22 C          -2.0089    7.9911   -0.2021 C.ar    1  LIG1        0.1007
     23 C          -2.9519    7.6677   -1.1389 C.ar    1  LIG1       -0.0027
     24 S          -2.9462    6.0014   -1.4997 S.2     1  LIG1       -0.0910
     25 H          -3.6386    8.3413   -1.6302 H       1  LIG1        0.0708
     26 O          -0.3130    6.8842    1.1936 O.3     1  LIG1       -0.5043
     27 H          -0.1124    7.7961    1.4475 H       1  LIG1        0.2922
     28 N          -1.4898   10.3116    0.7987 N.1     1  LIG1       -0.1907
     29 C          -1.7567    9.2913    0.3217 C.1     1  LIG1        0.1034
@<TRIPOS>BOND
     1     9    10    3
     2    25    23    1
     3    24    23   ar
     4    24    20   ar
     5    23    22   ar
     6    10     3    1
     7     8     7    1
     8    20    14    1
     9    20    21   ar
    10     7     2    1
    11    22    21   ar
    12    22    29    1
    13     3     2   ar
    14     3     4   ar
    15    14    15   ar
    16    14    13   ar
    17    18    19    3
    18    15    11   ar
    19    19    13    1
    20    13    12   ar
    21    11    12   ar
    22    11     4    1
    23     2     1   ar
    24    12    16    1
    25    21    26    1
    26    29    28    3
    27    17    16    1
    28     4     5   ar
    29     1     5   ar
    30     1     6    1
    31    26    27    1
