@<TRIPOS>MOLECULE
mol_data/opt/cam/geoms/mol2/5fd5fd5fd5fd.out
 38 41 0 0 0
SMALL
GASTEIGER

@<TRIPOS>ATOM
      1 C          -1.9560   -1.9592    0.2665 C.ar    1  LIG1        0.0191
      2 C          -0.6640   -1.9327   -0.1546 C.ar    1  LIG1        0.1418
      3 C          -0.1348   -0.5975   -0.2301 C.ar    1  LIG1        0.1084
      4 C          -1.0440    0.3668    0.1498 C.ar    1  LIG1        0.0505
      5 S          -2.5405   -0.3707    0.6031 S.2     1  LIG1       -0.0910
      6 H          -2.5849   -2.8265    0.3917 H       1  LIG1        0.0731
      7 O           0.0345   -3.0386   -0.4820 O.3     1  LIG1       -0.5049
      8 H           0.9226   -2.7913   -0.7753 H       1  LIG1        0.2922
      9 N           2.2489   -0.3399   -1.1726 N.1     1  LIG1       -0.1907
     10 C           1.1790   -0.3849   -0.7310 C.1     1  LIG1        0.1040
     11 C          -0.8611    1.8025    0.2071 C.ar    1  LIG1        0.0705
     12 C           0.2375    2.4938    0.6465 C.ar    1  LIG1        0.1501
     13 C           0.0631    3.9164    0.6032 C.ar    1  LIG1        0.1090
     14 C          -1.1741    4.2973    0.1280 C.ar    1  LIG1        0.0511
     15 S          -2.1164    2.9091   -0.2861 S.2     1  LIG1       -0.0820
     16 O           1.3339    1.8833    1.1210 O.3     1  LIG1       -0.5043
     17 H           2.0191    2.5321    1.3366 H       1  LIG1        0.2922
     18 N           1.9699    5.3504    1.5755 N.1     1  LIG1       -0.1907
     19 C           1.0834    4.7659    1.1138 C.1     1  LIG1        0.1040
     20 C          -1.6940    5.6343   -0.0566 C.ar    1  LIG1        0.0705
     21 C          -1.0263    6.7386   -0.5220 C.ar    1  LIG1        0.1501
     22 C          -1.8627    7.8977   -0.6271 C.ar    1  LIG1        0.1090
     23 C          -3.1653    7.6640   -0.2409 C.ar    1  LIG1        0.0511
     24 S          -3.3616    6.0271    0.2740 S.2     1  LIG1       -0.0820
     25 O           0.2606    6.7008   -0.8929 O.3     1  LIG1       -0.5043
     26 H           0.5684    7.5800   -1.1567 H       1  LIG1        0.2922
     27 N          -0.8077   10.0111   -1.6565 N.1     1  LIG1       -0.1907
     28 C          -1.3369    9.0999   -1.1766 C.1     1  LIG1        0.1040
     29 C          -4.2730    8.5960   -0.2104 C.ar    1  LIG1        0.0699
     30 C          -4.2472    9.9114    0.1817 C.ar    1  LIG1        0.1494
     31 C          -5.5366   10.5359    0.1001 C.ar    1  LIG1        0.1007
     32 C          -6.5090    9.6803   -0.3399 C.ar    1  LIG1       -0.0027
     33 S          -5.8899    8.1264   -0.6704 S.2     1  LIG1       -0.0910
     34 H          -7.5551    9.9051   -0.4877 H       1  LIG1        0.0708
     35 O          -3.1349   10.5119    0.6275 O.3     1  LIG1       -0.5043
     36 H          -3.2900   11.4540    0.7852 H       1  LIG1        0.2922
     37 N          -5.7838   13.0120    0.7814 N.1     1  LIG1       -0.1907
     38 C          -5.7206   11.9003    0.4652 C.1     1  LIG1        0.1034
@<TRIPOS>BOND
     1    27    28    3
     2    28    22    1
     3     9    10    3
     4    26    25    1
     5    25    21    1
     6     8     7    1
     7    10     3    1
     8    33    32   ar
     9    33    29   ar
    10    22    21   ar
    11    22    23   ar
    12    21    20   ar
    13    34    32    1
    14     7     2    1
    15    32    31   ar
    16    15    14   ar
    17    15    11   ar
    18    23    29    1
    19    23    24   ar
    20     3     2   ar
    21     3     4   ar
    22    29    30   ar
    23     2     1   ar
    24    20    14    1
    25    20    24   ar
    26    31    30   ar
    27    31    38    1
    28    14    13   ar
    29     4    11    1
    30     4     5   ar
    31    30    35    1
    32    11    12   ar
    33     1     6    1
    34     1     5   ar
    35    38    37    3
    36    13    12   ar
    37    13    19    1
    38    35    36    1
    39    12    16    1
    40    19    18    3
    41    16    17    1
