@<TRIPOS>MOLECULE
mol_data/opt/cam/geoms/mol2/5fd5fd-5fd-.out
 29 31 0 0 0
SMALL
GASTEIGER

@<TRIPOS>ATOM
      1 C          -1.9727   -1.9096   -0.2508 C.ar    1  LIG1        0.0191
      2 C          -0.7171   -1.8597    0.2674 C.ar    1  LIG1        0.1418
      3 C          -0.2028   -0.5187    0.3402 C.ar    1  LIG1        0.1084
      4 C          -1.0852    0.4256   -0.1395 C.ar    1  LIG1        0.0505
      5 S          -2.5380   -0.3374   -0.6824 S.2     1  LIG1       -0.0910
      6 H          -2.5853   -2.7855   -0.3960 H       1  LIG1        0.0731
      7 O          -0.0402   -2.9493    0.6827 O.3     1  LIG1       -0.5049
      8 H           0.8209   -2.6861    1.0367 H       1  LIG1        0.2922
      9 N           2.1006   -0.2097    1.4519 N.1     1  LIG1       -0.1907
     10 C           1.0678   -0.2791    0.9324 C.1     1  LIG1        0.1040
     11 C          -0.9045    1.8603   -0.2294 C.ar    1  LIG1        0.0705
     12 C           0.2207    2.5429   -0.6119 C.ar    1  LIG1        0.1501
     13 C           0.0387    3.9650   -0.6245 C.ar    1  LIG1        0.1090
     14 C          -1.2296    4.3532   -0.2500 C.ar    1  LIG1        0.0511
     15 S          -2.1941    2.9749    0.1400 S.2     1  LIG1       -0.0820
     16 O           1.3497    1.9235   -0.9882 O.3     1  LIG1       -0.5043
     17 H           2.0481    2.5681   -1.1715 H       1  LIG1        0.2922
     18 N           2.0016    5.3914   -1.4917 N.1     1  LIG1       -0.1907
     19 C           1.0890    4.8083   -1.0822 C.1     1  LIG1        0.1040
     20 C          -1.7621    5.6964   -0.1461 C.ar    1  LIG1        0.0699
     21 C          -1.1304    6.8091    0.3503 C.ar    1  LIG1        0.1494
     22 C          -1.9630    7.9775    0.3146 C.ar    1  LIG1        0.1007
     23 C          -3.2064    7.7229   -0.1958 C.ar    1  LIG1       -0.0027
     24 S          -3.3867    6.0889   -0.6484 S.2     1  LIG1       -0.0910
     25 H          -4.0127    8.4293   -0.3276 H       1  LIG1        0.0708
     26 O           0.1150    6.7741    0.8464 O.3     1  LIG1       -0.5043
     27 H           0.4199    7.6633    1.0759 H       1  LIG1        0.2922
     28 N          -1.0322   10.2179    1.1923 N.1     1  LIG1       -0.1907
     29 C          -1.4913    9.2353    0.7879 C.1     1  LIG1        0.1034
@<TRIPOS>BOND
     1    18    19    3
     2    17    16    1
     3    19    13    1
     4    16    12    1
     5     5     1   ar
     6     5     4   ar
     7    24    23   ar
     8    24    20   ar
     9    13    12   ar
    10    13    14   ar
    11    12    11   ar
    12     6     1    1
    13    25    23    1
    14     1     2   ar
    15    14    20    1
    16    14    15   ar
    17    11     4    1
    18    11    15   ar
    19    23    22   ar
    20    20    21   ar
    21     4     3   ar
    22     2     3   ar
    23     2     7    1
    24    22    21   ar
    25    22    29    1
    26     3    10    1
    27    21    26    1
    28     7     8    1
    29    29    28    3
    30    26    27    1
    31    10     9    3
