@<TRIPOS>MOLECULE
mol_data/opt/cam/geoms/mol2/5fd5fd-5fd5fd-.out
 38 41 0 0 0
SMALL
GASTEIGER

@<TRIPOS>ATOM
      1 C          -1.5641   -1.7631    1.5894 C.ar    1  LIG1        0.0191
      2 C          -0.7915   -1.8907    0.4781 C.ar    1  LIG1        0.1418
      3 C          -0.4137   -0.6206   -0.0799 C.ar    1  LIG1        0.1084
      4 C          -0.9048    0.4517    0.6341 C.ar    1  LIG1        0.0505
      5 S          -1.8207   -0.1047    1.9899 S.2     1  LIG1       -0.0910
      6 H          -1.9898   -2.5564    2.1834 H       1  LIG1        0.0731
      7 O          -0.4373   -3.0804   -0.0486 O.3     1  LIG1       -0.5049
      8 H           0.0937   -2.9421   -0.8454 H       1  LIG1        0.2922
      9 N           0.9121   -0.6594   -2.2887 N.1     1  LIG1       -0.1907
     10 C           0.3287   -0.5715   -1.2919 C.1     1  LIG1        0.1040
     11 C          -0.7202    1.8651    0.3728 C.ar    1  LIG1        0.0705
     12 C           0.4248    2.5015   -0.0293 C.ar    1  LIG1        0.1501
     13 C           0.2513    3.9135   -0.2080 C.ar    1  LIG1        0.1090
     14 C          -1.0252    4.3449    0.0843 C.ar    1  LIG1        0.0511
     15 S          -2.0157    3.0160    0.5720 S.2     1  LIG1       -0.0820
     16 O           1.5853    1.8540   -0.2150 O.3     1  LIG1       -0.5043
     17 H           2.2497    2.4470   -0.5945 H       1  LIG1        0.2922
     18 N           2.2646    5.2289   -1.1324 N.1     1  LIG1       -0.1907
     19 C           1.3281    4.6993   -0.7044 C.1     1  LIG1        0.1040
     20 C          -1.5524    5.6919    0.0270 C.ar    1  LIG1        0.0705
     21 C          -0.9309    6.8517    0.4126 C.ar    1  LIG1        0.1501
     22 C          -1.7414    8.0168    0.2124 C.ar    1  LIG1        0.1090
     23 C          -2.9867    7.7292   -0.3037 C.ar    1  LIG1        0.0511
     24 S          -3.1646    6.0291   -0.5497 S.2     1  LIG1       -0.0820
     25 O           0.3009    6.8704    0.9408 O.3     1  LIG1       -0.5043
     26 H           0.6111    7.7803    1.0558 H       1  LIG1        0.2922
     27 N          -0.6605   10.2980    0.7292 N.1     1  LIG1       -0.1907
     28 C          -1.2067    9.3057    0.4891 C.1     1  LIG1        0.1040
     29 C          -4.0590    8.6500   -0.6218 C.ar    1  LIG1        0.0699
     30 C          -4.4671    9.7378    0.1088 C.ar    1  LIG1        0.1494
     31 C          -5.5723   10.4247   -0.4961 C.ar    1  LIG1        0.1007
     32 C          -5.9821    9.8379   -1.6619 C.ar    1  LIG1       -0.0027
     33 S          -5.0445    8.4680   -2.0506 S.2     1  LIG1       -0.0910
     34 H          -6.7882   10.1606   -2.3044 H       1  LIG1        0.0708
     35 O          -3.9060   10.0764    1.2785 O.3     1  LIG1       -0.5043
     36 H          -4.2654   10.9140    1.6037 H       1  LIG1        0.2922
     37 N          -6.5498   12.5086    0.6691 N.1     1  LIG1       -0.1907
     38 C          -6.1444   11.5796    0.1102 C.1     1  LIG1        0.1034
@<TRIPOS>BOND
     1    34    32    1
     2     9    10    3
     3    33    32   ar
     4    33    29   ar
     5    32    31   ar
     6    10     3    1
     7    18    19    3
     8     8     7    1
     9    19    13    1
    10    29    23    1
    11    29    30   ar
    12    17    16    1
    13    24    23   ar
    14    24    20   ar
    15    31    30   ar
    16    31    38    1
    17    23    22   ar
    18    16    12    1
    19    13    12   ar
    20    13    14   ar
    21     3     2   ar
    22     3     4   ar
    23     7     2    1
    24    12    11   ar
    25    20    14    1
    26    20    21   ar
    27    14    15   ar
    28    30    35    1
    29    38    37    3
    30    22    21   ar
    31    22    28    1
    32    11    15   ar
    33    11     4    1
    34    21    25    1
    35     2     1   ar
    36    28    27    3
    37     4     5   ar
    38    25    26    1
    39    35    36    1
    40     1     5   ar
    41     1     6    1
