@<TRIPOS>MOLECULE
mol_data/opt/cam/geoms/mol2/5fd5fd-5fd-5fd-.out
 38 41 0 0 0
SMALL
GASTEIGER

@<TRIPOS>ATOM
      1 C          -1.9639   -1.9618   -0.2013 C.ar    1  LIG1        0.0191
      2 C          -0.6697   -1.9317    0.2128 C.ar    1  LIG1        0.1418
      3 C          -0.1389   -0.5962    0.2703 C.ar    1  LIG1        0.1084
      4 C          -1.0491    0.3646   -0.1161 C.ar    1  LIG1        0.0505
      5 S          -2.5485   -0.3766   -0.5533 S.2     1  LIG1       -0.0910
      6 H          -2.5942   -2.8299   -0.3133 H       1  LIG1        0.0731
      7 O           0.0294   -3.0344    0.5495 O.3     1  LIG1       -0.5049
      8 H           0.9193   -2.7845    0.8354 H       1  LIG1        0.2922
      9 N           2.2498   -0.3301    1.1976 N.1     1  LIG1       -0.1907
     10 C           1.1777   -0.3790    0.7620 C.1     1  LIG1        0.1040
     11 C          -0.8652    1.7994   -0.1910 C.ar    1  LIG1        0.0705
     12 C           0.2318    2.4844   -0.6439 C.ar    1  LIG1        0.1501
     13 C           0.0590    3.9076   -0.6162 C.ar    1  LIG1        0.1090
     14 C          -1.1754    4.2952   -0.1392 C.ar    1  LIG1        0.0511
     15 S          -2.1170    2.9128    0.2957 S.2     1  LIG1       -0.0820
     16 O           1.3252    1.8674   -1.1169 O.3     1  LIG1       -0.5043
     17 H           2.0099    2.5130   -1.3435 H       1  LIG1        0.2922
     18 N           1.9621    5.3283   -1.6148 N.1     1  LIG1       -0.1907
     19 C           1.0774    4.7501   -1.1418 C.1     1  LIG1        0.1040
     20 C          -1.6932    5.6347    0.0326 C.ar    1  LIG1        0.0705
     21 C          -1.0222    6.7437    0.4818 C.ar    1  LIG1        0.1501
     22 C          -1.8570    7.9047    0.5777 C.ar    1  LIG1        0.1090
     23 C          -3.1617    7.6679    0.2008 C.ar    1  LIG1        0.0511
     24 S          -3.3621    6.0253   -0.2942 S.2     1  LIG1       -0.0820
     25 O           0.2666    6.7089    0.8465 O.3     1  LIG1       -0.5043
     26 H           0.5765    7.5908    1.0986 H       1  LIG1        0.2922
     27 N          -0.7948   10.0289    1.5771 N.1     1  LIG1       -0.1907
     28 C          -1.3272    9.1127    1.1105 C.1     1  LIG1        0.1040
     29 C          -4.2687    8.6006    0.1651 C.ar    1  LIG1        0.0699
     30 C          -4.2437    9.9113   -0.2423 C.ar    1  LIG1        0.1494
     31 C          -5.5321   10.5380   -0.1614 C.ar    1  LIG1        0.1007
     32 C          -6.5030    9.6884    0.2934 C.ar    1  LIG1       -0.0027
     33 S          -5.8836    8.1379    0.6387 S.2     1  LIG1       -0.0910
     34 H          -7.5481    9.9159    0.4439 H       1  LIG1        0.0708
     35 O          -3.1331   10.5055   -0.7007 O.3     1  LIG1       -0.5043
     36 H          -3.2881   11.4459   -0.8685 H       1  LIG1        0.2922
     37 N          -5.7805   13.0062   -0.8701 N.1     1  LIG1       -0.1907
     38 C          -5.7166   11.8982   -0.5413 C.1     1  LIG1        0.1034
@<TRIPOS>BOND
     1    18    19    3
     2    17    16    1
     3    19    13    1
     4    16    12    1
     5    37    38    3
     6    36    35    1
     7    35    30    1
     8    12    13   ar
     9    12    11   ar
    10    13    14   ar
    11     5     1   ar
    12     5     4   ar
    13    38    31    1
    14     6     1    1
    15    24    20   ar
    16    24    23   ar
    17    30    31   ar
    18    30    29   ar
    19     1     2   ar
    20    11     4    1
    21    11    15   ar
    22    31    32   ar
    23    14    20    1
    24    14    15   ar
    25     4     3   ar
    26    20    21   ar
    27    29    23    1
    28    29    33   ar
    29    23    22   ar
    30     2     3   ar
    31     2     7    1
    32     3    10    1
    33    32    34    1
    34    32    33   ar
    35    21    22   ar
    36    21    25    1
    37     7     8    1
    38    22    28    1
    39    10     9    3
    40    25    26    1
    41    28    27    3
