@<TRIPOS>MOLECULE
mol_data/opt/cam/geoms/mol2/5fd5fd5fd5fd-.out
 38 41 0 0 0
SMALL
GASTEIGER

@<TRIPOS>ATOM
      1 C          -1.9483   -1.9586    0.2827 C.ar    1  LIG1        0.0191
      2 C          -0.6588   -1.9321   -0.1460 C.ar    1  LIG1        0.1418
      3 C          -0.1313   -0.5967   -0.2283 C.ar    1  LIG1        0.1084
      4 C          -1.0390    0.3679    0.1544 C.ar    1  LIG1        0.0505
      5 S          -2.5322   -0.3697    0.6184 S.2     1  LIG1       -0.0910
      6 H          -2.5757   -2.8261    0.4139 H       1  LIG1        0.0731
      7 O           0.0387   -3.0383   -0.4746 O.3     1  LIG1       -0.5049
      8 H           0.9249   -2.7910   -0.7738 H       1  LIG1        0.2922
      9 N           2.2466   -0.3396   -1.1855 N.1     1  LIG1       -0.1907
     10 C           1.1794   -0.3842   -0.7375 C.1     1  LIG1        0.1040
     11 C          -0.8571    1.8039    0.2068 C.ar    1  LIG1        0.0705
     12 C           0.2435    2.4973    0.6378 C.ar    1  LIG1        0.1501
     13 C           0.0676    3.9196    0.5917 C.ar    1  LIG1        0.1090
     14 C          -1.1727    4.2982    0.1228 C.ar    1  LIG1        0.0511
     15 S          -2.1162    2.9080   -0.2819 S.2     1  LIG1       -0.0820
     16 O           1.3432    1.8890    1.1075 O.3     1  LIG1       -0.5043
     17 H           2.0291    2.5390    1.3173 H       1  LIG1        0.2922
     18 N           1.9789    5.3578    1.5490 N.1     1  LIG1       -0.1907
     19 C           1.0901    4.7713    1.0940 C.1     1  LIG1        0.1040
     20 C          -1.6948    5.6342   -0.0623 C.ar    1  LIG1        0.0705
     21 C          -1.0309    6.7379   -0.5346 C.ar    1  LIG1        0.1501
     22 C          -1.8689    7.8960   -0.6378 C.ar    1  LIG1        0.1090
     23 C          -3.1689    7.6622   -0.2433 C.ar    1  LIG1        0.0511
     24 S          -3.3608    6.0265    0.2771 S.2     1  LIG1       -0.0820
     25 O           0.2539    6.7002   -0.9129 O.3     1  LIG1       -0.5043
     26 H           0.5593    7.5789   -1.1809 H       1  LIG1        0.2922
     27 N          -0.8218   10.0075   -1.6790 N.1     1  LIG1       -0.1907
     28 C          -1.3474    9.0972   -1.1936 C.1     1  LIG1        0.1040
     29 C          -4.2773    8.5933   -0.2088 C.ar    1  LIG1        0.0699
     30 C          -4.2503    9.9098    0.1796 C.ar    1  LIG1        0.1494
     31 C          -5.5408   10.5330    0.1039 C.ar    1  LIG1        0.1007
     32 C          -6.5150    9.6753   -0.3280 C.ar    1  LIG1       -0.0027
     33 S          -5.8965    8.1211   -0.6580 S.2     1  LIG1       -0.0910
     34 H          -7.5621    9.8988   -0.4702 H       1  LIG1        0.0708
     35 O          -3.1359   10.5124    0.6173 O.3     1  LIG1       -0.5043
     36 H          -3.2909   11.4548    0.7733 H       1  LIG1        0.2922
     37 N          -5.7861   13.0106    0.7801 N.1     1  LIG1       -0.1907
     38 C          -5.7238   11.8982    0.4664 C.1     1  LIG1        0.1034
@<TRIPOS>BOND
     1    27    28    3
     2    28    22    1
     3     9    10    3
     4    26    25    1
     5    25    21    1
     6     8     7    1
     7    10     3    1
     8    33    32   ar
     9    33    29   ar
    10    22    21   ar
    11    22    23   ar
    12    21    20   ar
    13     7     2    1
    14    34    32    1
    15    32    31   ar
    16    15    14   ar
    17    15    11   ar
    18    23    29    1
    19    23    24   ar
    20     3     2   ar
    21     3     4   ar
    22    29    30   ar
    23     2     1   ar
    24    20    14    1
    25    20    24   ar
    26    31    30   ar
    27    31    38    1
    28    14    13   ar
    29     4    11    1
    30     4     5   ar
    31    30    35    1
    32    11    12   ar
    33     1     6    1
    34     1     5   ar
    35    38    37    3
    36    13    12   ar
    37    13    19    1
    38    35    36    1
    39    12    16    1
    40    19    18    3
    41    16    17    1
