@<TRIPOS>MOLECULE
mol_data/opt/cam/geoms/mol2/5fd5fd-5fd.out
 29 31 0 0 0
SMALL
GASTEIGER

@<TRIPOS>ATOM
      1 C          -1.8682   -1.8086    0.9989 C.ar    1  LIG1        0.0191
      2 C          -0.7675   -1.8753    0.2038 C.ar    1  LIG1        0.1418
      3 C          -0.2827   -0.5765   -0.1771 C.ar    1  LIG1        0.1084
      4 C          -1.0281    0.4556    0.3519 C.ar    1  LIG1        0.0505
      5 S          -2.3146   -0.1732    1.3189 S.2     1  LIG1       -0.0910
      6 H          -2.4308   -2.6340    1.4059 H       1  LIG1        0.0731
      7 O          -0.2078   -3.0353   -0.1952 O.3     1  LIG1       -0.5049
      8 H           0.5503   -2.8545   -0.7684 H       1  LIG1        0.2922
      9 N           1.6987   -0.4998   -1.8221 N.1     1  LIG1       -0.1907
     10 C           0.8154   -0.4639   -1.0739 C.1     1  LIG1        0.1040
     11 C          -0.8294    1.8820    0.1882 C.ar    1  LIG1        0.0705
     12 C           0.3555    2.5703    0.1972 C.ar    1  LIG1        0.1501
     13 C           0.1889    3.9794   -0.0084 C.ar    1  LIG1        0.1090
     14 C          -1.1295    4.3551   -0.1495 C.ar    1  LIG1        0.0511
     15 S          -2.1666    2.9789   -0.0374 S.2     1  LIG1       -0.0820
     16 O           1.5391    1.9707    0.3979 O.3     1  LIG1       -0.5043
     17 H           2.2654    2.5965    0.2650 H       1  LIG1        0.2922
     18 N           2.3285    5.4046   -0.1835 N.1     1  LIG1       -0.1907
     19 C           1.3312    4.8219   -0.1035 C.1     1  LIG1        0.1040
     20 C          -1.6645    5.6855   -0.3584 C.ar    1  LIG1        0.0699
     21 C          -1.2636    6.8504    0.2458 C.ar    1  LIG1        0.1494
     22 C          -2.0218    7.9878   -0.1914 C.ar    1  LIG1        0.1007
     23 C          -2.9840    7.6589   -1.1064 C.ar    1  LIG1       -0.0027
     24 S          -2.9830    5.9910   -1.4603 S.2     1  LIG1       -0.0910
     25 H          -3.6824    8.3291   -1.5857 H       1  LIG1        0.0708
     26 O          -0.2944    6.8899    1.1723 O.3     1  LIG1       -0.5043
     27 H          -0.0898    7.8032    1.4176 H       1  LIG1        0.2922
     28 N          -1.4852   10.3134    0.7882 N.1     1  LIG1       -0.1907
     29 C          -1.7607    9.2906    0.3213 C.1     1  LIG1        0.1034
@<TRIPOS>BOND
     1     9    10    3
     2    25    23    1
     3    24    23   ar
     4    24    20   ar
     5    23    22   ar
     6    10     3    1
     7     8     7    1
     8    20    14    1
     9    20    21   ar
    10     7     2    1
    11    22    21   ar
    12    22    29    1
    13    18    19    3
    14     3     2   ar
    15     3     4   ar
    16    14    15   ar
    17    14    13   ar
    18    19    13    1
    19    15    11   ar
    20    13    12   ar
    21    11    12   ar
    22    11     4    1
    23    12    16    1
    24     2     1   ar
    25    21    26    1
    26    17    16    1
    27    29    28    3
    28     4     5   ar
    29     1     5   ar
    30     1     6    1
    31    26    27    1
