@<TRIPOS>MOLECULE
mol_data/opt/cam/geoms/mol2/5fd5fd5fd.out
 29 31 0 0 0
SMALL
GASTEIGER

@<TRIPOS>ATOM
      1 C          -1.9725   -1.9093    0.2585 C.ar    1  LIG1        0.0191
      2 C          -0.7126   -1.8607   -0.2493 C.ar    1  LIG1        0.1418
      3 C          -0.1980   -0.5199   -0.3222 C.ar    1  LIG1        0.1084
      4 C          -1.0846    0.4258    0.1469 C.ar    1  LIG1        0.0505
      5 S          -2.5418   -0.3357    0.6801 S.2     1  LIG1       -0.0910
      6 H          -2.5862   -2.7847    0.4015 H       1  LIG1        0.0731
      7 O          -0.0320   -2.9515   -0.6554 O.3     1  LIG1       -0.5049
      8 H           0.8323   -2.6894   -1.0022 H       1  LIG1        0.2922
      9 N           2.1147   -0.2127   -1.4151 N.1     1  LIG1       -0.1907
     10 C           1.0775   -0.2814   -0.9043 C.1     1  LIG1        0.1040
     11 C          -0.9051    1.8609    0.2336 C.ar    1  LIG1        0.0705
     12 C           0.2166    2.5454    0.6227 C.ar    1  LIG1        0.1501
     13 C           0.0338    3.9674    0.6291 C.ar    1  LIG1        0.1090
     14 C          -1.2317    4.3537    0.2432 C.ar    1  LIG1        0.0511
     15 S          -2.1924    2.9736   -0.1498 S.2     1  LIG1       -0.0820
     16 O           1.3428    1.9277    1.0103 O.3     1  LIG1       -0.5043
     17 H           2.0401    2.5731    1.1945 H       1  LIG1        0.2922
     18 N           1.9884    5.3989    1.5068 N.1     1  LIG1       -0.1907
     19 C           1.0798    4.8132    1.0921 C.1     1  LIG1        0.1040
     20 C          -1.7642    5.6962    0.1304 C.ar    1  LIG1        0.0699
     21 C          -1.1294    6.8079   -0.3643 C.ar    1  LIG1        0.1494
     22 C          -1.9632    7.9757   -0.3390 C.ar    1  LIG1        0.1007
     23 C          -3.2104    7.7217    0.1622 C.ar    1  LIG1       -0.0027
     24 S          -3.3934    6.0888    0.6179 S.2     1  LIG1       -0.0910
     25 H          -4.0184    8.4278    0.2854 H       1  LIG1        0.0708
     26 O           0.1200    6.7724   -0.8503 O.3     1  LIG1       -0.5043
     27 H           0.4265    7.6612   -1.0787 H       1  LIG1        0.2922
     28 N          -1.0274   10.2145   -1.2156 N.1     1  LIG1       -0.1907
     29 C          -1.4888    9.2326   -0.8121 C.1     1  LIG1        0.1034
@<TRIPOS>BOND
     1     9    10    3
     2    28    29    3
     3    27    26    1
     4     8     7    1
     5    10     3    1
     6    26    21    1
     7    29    22    1
     8     7     2    1
     9    21    22   ar
    10    21    20   ar
    11    22    23   ar
    12     3     2   ar
    13     3     4   ar
    14     2     1   ar
    15    15    11   ar
    16    15    14   ar
    17    20    14    1
    18    20    24   ar
    19     4    11    1
    20     4     5   ar
    21    23    25    1
    22    23    24   ar
    23    11    12   ar
    24    14    13   ar
    25     1     6    1
    26     1     5   ar
    27    12    13   ar
    28    12    16    1
    29    13    19    1
    30    16    17    1
    31    19    18    3
