@<TRIPOS>MOLECULE
mol_data/opt/cam/geoms/mol2/5fd5fd-.out
 20 21 0 0 0
SMALL
GASTEIGER

@<TRIPOS>ATOM
      1 C          -2.0166   -1.7876    0.5061 C.ar    1  LIG1        0.0191
      2 C          -0.7277   -1.8095    0.0745 C.ar    1  LIG1        0.1418
      3 C          -0.2127   -0.4933   -0.1897 C.ar    1  LIG1        0.1084
      4 C          -1.1286    0.5058    0.0596 C.ar    1  LIG1        0.0504
      5 S          -2.6134   -0.1730    0.6234 S.2     1  LIG1       -0.0910
      6 H          -2.6360   -2.6344    0.7565 H       1  LIG1        0.0731
      7 O          -0.0215   -2.9447   -0.1009 O.3     1  LIG1       -0.5049
      8 H           0.8629   -2.7343   -0.4316 H       1  LIG1        0.2922
      9 N           2.1663   -0.3301   -1.1659 N.1     1  LIG1       -0.1907
     10 C           1.0975   -0.3346   -0.7197 C.1     1  LIG1        0.1040
     11 C          -0.9541    1.9386   -0.0866 C.ar    1  LIG1        0.0699
     12 C           0.1377    2.6880    0.2693 C.ar    1  LIG1        0.1494
     13 C          -0.0343    4.0844   -0.0154 C.ar    1  LIG1        0.1007
     14 C          -1.2534    4.3632   -0.5701 C.ar    1  LIG1       -0.0027
     15 S          -2.1970    2.9564   -0.7669 S.2     1  LIG1       -0.0911
     16 H          -1.6253    5.3313   -0.8713 H       1  LIG1        0.0708
     17 O           1.2232    2.1567    0.8545 O.3     1  LIG1       -0.5043
     18 H           1.9217    2.8197    0.9457 H       1  LIG1        0.2922
     19 N           1.8639    5.7349    0.5585 N.1     1  LIG1       -0.1907
     20 C           0.9865    5.0312    0.2841 C.1     1  LIG1        0.1034
@<TRIPOS>BOND
     1     9    10    3
     2    16    14    1
     3    15    14   ar
     4    15    11   ar
     5    10     3    1
     6    14    13   ar
     7     8     7    1
     8     3     4   ar
     9     3     2   ar
    10     7     2    1
    11    11     4    1
    12    11    12   ar
    13    13    12   ar
    14    13    20    1
    15     4     5   ar
    16     2     1   ar
    17    12    17    1
    18    20    19    3
    19     1     5   ar
    20     1     6    1
    21    17    18    1
