@<TRIPOS>MOLECULE
mol_data/opt/cam/geoms/mol2/5fd5fd5fd-5fd.out
 38 41 0 0 0
SMALL
GASTEIGER

@<TRIPOS>ATOM
      1 C          -1.9644   -1.9592    0.2554 C.ar    1  LIG1        0.0191
      2 C          -0.6665   -1.9334   -0.1474 C.ar    1  LIG1        0.1418
      3 C          -0.1355   -0.5985   -0.2149 C.ar    1  LIG1        0.1084
      4 C          -1.0492    0.3663    0.1526 C.ar    1  LIG1        0.0505
      5 S          -2.5525   -0.3704    0.5843 S.2     1  LIG1       -0.0910
      6 H          -2.5955   -2.8262    0.3713 H       1  LIG1        0.0731
      7 O           0.0358   -3.0396   -0.4653 O.3     1  LIG1       -0.5049
      8 H           0.9282   -2.7927   -0.7460 H       1  LIG1        0.2922
      9 N           2.2615   -0.3420   -1.1234 N.1     1  LIG1       -0.1907
     10 C           1.1855   -0.3865   -0.6970 C.1     1  LIG1        0.1040
     11 C          -0.8663    1.8019    0.2131 C.ar    1  LIG1        0.0705
     12 C           0.2265    2.4922    0.6683 C.ar    1  LIG1        0.1501
     13 C           0.0536    3.9149    0.6231 C.ar    1  LIG1        0.1090
     14 C          -1.1765    4.2969    0.1307 C.ar    1  LIG1        0.0511
     15 S          -2.1138    2.9094   -0.2973 S.2     1  LIG1       -0.0820
     16 O           1.3156    1.8808    1.1580 O.3     1  LIG1       -0.5043
     17 H           1.9981    2.5291    1.3835 H       1  LIG1        0.2922
     18 N           1.9474    5.3472    1.6230 N.1     1  LIG1       -0.1907
     19 C           1.0671    4.7636    1.1485 C.1     1  LIG1        0.1040
     20 C          -1.6929    5.6343   -0.0607 C.ar    1  LIG1        0.0705
     21 C          -1.0180    6.7383   -0.5161 C.ar    1  LIG1        0.1501
     22 C          -1.8521    7.8980   -0.6325 C.ar    1  LIG1        0.1090
     23 C          -3.1601    7.6650   -0.2649 C.ar    1  LIG1        0.0511
     24 S          -3.3648    6.0280    0.2465 S.2     1  LIG1       -0.0820
     25 O           0.2740    6.6999   -0.8687 O.3     1  LIG1       -0.5043
     26 H           0.5861    7.5790   -1.1278 H       1  LIG1        0.2922
     27 N          -0.7812   10.0112   -1.6459 N.1     1  LIG1       -0.1907
     28 C          -1.3177    9.1002   -1.1740 C.1     1  LIG1        0.1040
     29 C          -4.2676    8.5977   -0.2496 C.ar    1  LIG1        0.0699
     30 C          -4.2465    9.9129    0.1434 C.ar    1  LIG1        0.1494
     31 C          -5.5342   10.5383    0.0438 C.ar    1  LIG1        0.1007
     32 C          -6.5008    9.6835   -0.4103 C.ar    1  LIG1       -0.0027
     33 S          -5.8781    8.1294   -0.7327 S.2     1  LIG1       -0.0910
     34 H          -7.5446    9.9091   -0.5728 H       1  LIG1        0.0708
     35 O          -3.1402   10.5125    0.6051 O.3     1  LIG1       -0.5043
     36 H          -3.2969   11.4547    0.7610 H       1  LIG1        0.2922
     37 N          -5.7894   13.0142    0.7226 N.1     1  LIG1       -0.1907
     38 C          -5.7224   11.9027    0.4068 C.1     1  LIG1        0.1034
@<TRIPOS>BOND
     1    27    28    3
     2    28    22    1
     3    26    25    1
     4     9    10    3
     5    25    21    1
     6     8     7    1
     7    33    32   ar
     8    33    29   ar
     9    10     3    1
    10    22    21   ar
    11    22    23   ar
    12    34    32    1
    13    21    20   ar
    14     7     2    1
    15    32    31   ar
    16    15    14   ar
    17    15    11   ar
    18    23    29    1
    19    23    24   ar
    20    29    30   ar
    21     3     2   ar
    22     3     4   ar
    23     2     1   ar
    24    20    14    1
    25    20    24   ar
    26    31    30   ar
    27    31    38    1
    28    14    13   ar
    29    30    35    1
    30     4    11    1
    31     4     5   ar
    32    11    12   ar
    33     1     6    1
    34     1     5   ar
    35    38    37    3
    36    35    36    1
    37    13    12   ar
    38    13    19    1
    39    12    16    1
    40    19    18    3
    41    16    17    1
