@<TRIPOS>MOLECULE
mol_data/opt/cam/geoms/mol2/5fd5fd-5fd-5fd.out
 38 41 0 0 0
SMALL
GASTEIGER

@<TRIPOS>ATOM
      1 C          -2.0302   -1.9208    0.1823 C.ar    1  LIG1        0.0191
      2 C          -0.7278   -1.8785    0.5690 C.ar    1  LIG1        0.1418
      3 C          -0.1756   -0.5521    0.5055 C.ar    1  LIG1        0.1084
      4 C          -1.0782    0.3886    0.0572 C.ar    1  LIG1        0.0505
      5 S          -2.5971   -0.3606   -0.2894 S.2     1  LIG1       -0.0910
      6 H          -2.6760   -2.7843    0.1545 H       1  LIG1        0.0731
      7 O          -0.0395   -2.9613    0.9833 O.3     1  LIG1       -0.5049
      8 H           0.8593   -2.7038    1.2323 H       1  LIG1        0.2922
      9 N           2.2355   -0.2504    1.3615 N.1     1  LIG1       -0.1907
     10 C           1.1540   -0.3174    0.9523 C.1     1  LIG1        0.1040
     11 C          -0.8732    1.8087   -0.1416 C.ar    1  LIG1        0.0705
     12 C           0.2249    2.4335   -0.6727 C.ar    1  LIG1        0.1501
     13 C           0.0751    3.8564   -0.7625 C.ar    1  LIG1        0.1090
     14 C          -1.1428    4.3046   -0.2966 C.ar    1  LIG1        0.0511
     15 S          -2.0959    2.9812    0.2738 S.2     1  LIG1       -0.0820
     16 O           1.2977    1.7590   -1.1135 O.3     1  LIG1       -0.5043
     17 H           1.9888    2.3706   -1.4056 H       1  LIG1        0.2922
     18 N           1.9759    5.1576   -1.9168 N.1     1  LIG1       -0.1907
     19 C           1.0943    4.6347   -1.3782 C.1     1  LIG1        0.1040
     20 C          -1.6353    5.6638   -0.2322 C.ar    1  LIG1        0.0705
     21 C          -0.9360    6.7943    0.1056 C.ar    1  LIG1        0.1501
     22 C          -1.7355    7.9831    0.0617 C.ar    1  LIG1        0.1090
     23 C          -3.0471    7.7425   -0.2871 C.ar    1  LIG1        0.0511
     24 S          -3.3021    6.0575   -0.5672 S.2     1  LIG1       -0.0820
     25 O           0.3568    6.7656    0.4570 O.3     1  LIG1       -0.5043
     26 H           0.7023    7.6629    0.5707 H       1  LIG1        0.2922
     27 N          -0.5354   10.2201    0.5034 N.1     1  LIG1       -0.1907
     28 C          -1.1344    9.2490    0.3069 C.1     1  LIG1        0.1040
     29 C          -4.1282    8.6973   -0.4216 C.ar    1  LIG1        0.0699
     30 C          -4.4043    9.7648    0.3955 C.ar    1  LIG1        0.1494
     31 C          -5.5640   10.4969   -0.0272 C.ar    1  LIG1        0.1007
     32 C          -6.1445    9.9633   -1.1450 C.ar    1  LIG1       -0.0027
     33 S          -5.3045    8.5901   -1.7066 S.2     1  LIG1       -0.0910
     34 H          -7.0225   10.3268   -1.6586 H       1  LIG1        0.0708
     35 O          -3.6799   10.0473    1.4877 O.3     1  LIG1       -0.5043
     36 H          -3.9711   10.8780    1.8895 H       1  LIG1        0.2922
     37 N          -6.3196   12.5552    1.3323 N.1     1  LIG1       -0.1907
     38 C          -6.0180   11.6397    0.6915 C.1     1  LIG1        0.1034
@<TRIPOS>BOND
     1    18    19    3
     2    33    32   ar
     3    33    29   ar
     4    34    32    1
     5    17    16    1
     6    19    13    1
     7    32    31   ar
     8    16    12    1
     9    13    12   ar
    10    13    14   ar
    11    12    11   ar
    12    24    23   ar
    13    24    20   ar
    14    29    23    1
    15    29    30   ar
    16    14    20    1
    17    14    15   ar
    18     5     4   ar
    19     5     1   ar
    20    23    22   ar
    21    20    21   ar
    22    11     4    1
    23    11    15   ar
    24    31    30   ar
    25    31    38    1
    26     4     3   ar
    27    22    21   ar
    28    22    28    1
    29    21    25    1
    30     6     1    1
    31     1     2   ar
    32    28    27    3
    33    30    35    1
    34    25    26    1
    35     3     2   ar
    36     3    10    1
    37     2     7    1
    38    38    37    3
    39    10     9    3
    40     7     8    1
    41    35    36    1
