@<TRIPOS>MOLECULE
mol_data/opt/cam/geoms/mol2/5fe.out
 12 12 0 0 0
SMALL
GASTEIGER

@<TRIPOS>ATOM
      1 C          -2.0930   -1.7377    0.0003 C.ar    1  LIG1        0.0184
      2 C          -0.7352   -1.6763   -0.0004 C.ar    1  LIG1        0.1391
      3 C          -0.2365   -0.3236   -0.0004 C.ar    1  LIG1        0.0730
      4 C          -1.2497    0.5952    0.0004 C.ar    1  LIG1       -0.0053
      5 S          -2.7895   -0.1554    0.0009 S.2     1  LIG1       -0.1001
      6 H          -2.7090   -2.6231    0.0004 H       1  LIG1        0.0730
      7 H          -1.1539    1.6706    0.0006 H       1  LIG1        0.0707
      8 O           0.0706   -2.7614   -0.0011 O.3     1  LIG1       -0.5050
      9 H           0.9891   -2.4560   -0.0015 H       1  LIG1        0.2922
     10 C           1.1614   -0.0563   -0.0010 C.1     1  LIG1       -0.0655
     11 C           2.3593    0.0793   -0.0015 C.1     1  LIG1       -0.1138
     12 H           3.4138    0.2352   -0.0009 H       1  LIG1        0.1232
@<TRIPOS>BOND
     1     9     8    1
     2    11    10    3
     3    11    12    1
     4     8     2    1
     5    10     3    1
     6     2     3   ar
     7     2     1   ar
     8     3     4   ar
     9     1     6    1
    10     1     5   ar
    11     4     7    1
    12     4     5   ar
