@<TRIPOS>MOLECULE
mol_data/opt/cam/geoms/mol2/5fe5fe.out
 22 23 0 0 0
SMALL
GASTEIGER

@<TRIPOS>ATOM
      1 C          -2.0264   -1.7407    0.6184 C.ar    1  LIG1        0.0190
      2 C          -0.7211   -1.7900    0.2473 C.ar    1  LIG1        0.1398
      3 C          -0.1748   -0.4980   -0.0779 C.ar    1  LIG1        0.0814
      4 C          -1.0950    0.5151    0.0700 C.ar    1  LIG1        0.0484
      5 S          -2.6168   -0.1171    0.6075 S.2     1  LIG1       -0.0910
      6 H          -2.6621   -2.5682    0.8915 H       1  LIG1        0.0731
      7 O          -0.0015   -2.9310    0.1684 O.3     1  LIG1       -0.5050
      8 H           0.8887   -2.7034   -0.1380 H       1  LIG1        0.2922
      9 C           1.1607   -0.3895   -0.5509 C.1     1  LIG1       -0.0648
     10 C           2.2965   -0.4159   -0.9544 C.1     1  LIG1       -0.1138
     11 H           3.2997   -0.3962   -1.3136 H       1  LIG1        0.1232
     12 C          -0.9110    1.9373   -0.1558 C.ar    1  LIG1        0.0698
     13 C           0.1229    2.7335    0.2581 C.ar    1  LIG1        0.1474
     14 C          -0.0253    4.1092   -0.1348 C.ar    1  LIG1        0.0737
     15 C          -1.1814    4.3232   -0.8325 C.ar    1  LIG1       -0.0047
     16 S          -2.0859    2.8854   -1.0354 S.2     1  LIG1       -0.0911
     17 H          -1.5326    5.2615   -1.2354 H       1  LIG1        0.0707
     18 O           1.1616    2.2848    0.9879 O.3     1  LIG1       -0.5044
     19 H           1.7544    3.0293    1.1669 H       1  LIG1        0.2922
     20 C           0.9547    5.0795    0.2166 C.1     1  LIG1       -0.0655
     21 C           1.8291    5.8370    0.5547 C.1     1  LIG1       -0.1138
     22 H           2.5858    6.5319    0.8395 H       1  LIG1        0.1232
@<TRIPOS>BOND
     1    11    10    1
     2    17    15    1
     3    16    15   ar
     4    16    12   ar
     5    10     9    3
     6    15    14   ar
     7     9     3    1
     8    12     4    1
     9    12    13   ar
    10     8     7    1
    11    14    20    1
    12    14    13   ar
    13     3     4   ar
    14     3     2   ar
    15     4     5   ar
    16     7     2    1
    17    20    21    3
    18     2     1   ar
    19    13    18    1
    20    21    22    1
    21     5     1   ar
    22     1     6    1
    23    18    19    1
