@<TRIPOS>MOLECULE
mol_data/opt/cam/geoms/mol2/5fe5fe-5fe.out
 32 34 0 0 0
SMALL
GASTEIGER

@<TRIPOS>ATOM
      1 C          -1.8934   -1.7147    1.2027 C.ar    1  LIG1        0.0190
      2 C          -0.7713   -1.8297    0.4467 C.ar    1  LIG1        0.1398
      3 C          -0.2416   -0.5605    0.0205 C.ar    1  LIG1        0.0814
      4 C          -0.9839    0.5028    0.4838 C.ar    1  LIG1        0.0484
      5 S          -2.3192   -0.0569    1.4380 S.2     1  LIG1       -0.0910
      6 H          -2.4844   -2.5122    1.6247 H       1  LIG1        0.0731
      7 O          -0.2091   -3.0101    0.1048 O.3     1  LIG1       -0.5050
      8 H           0.5619   -2.8240   -0.4514 H       1  LIG1        0.2922
      9 C           0.8892   -0.5168   -0.8390 C.1     1  LIG1       -0.0648
     10 C           1.8393   -0.6009   -1.5765 C.1     1  LIG1       -0.1138
     11 H           2.6812   -0.6303   -2.2291 H       1  LIG1        0.1232
     12 C          -0.7594    1.9200    0.2695 C.ar    1  LIG1        0.0704
     13 C           0.4151    2.6162    0.3574 C.ar    1  LIG1        0.1481
     14 C           0.2786    4.0179    0.0730 C.ar    1  LIG1        0.0820
     15 C          -1.0202    4.3783   -0.2060 C.ar    1  LIG1        0.0490
     16 S          -2.0691    3.0023   -0.1349 S.2     1  LIG1       -0.0820
     17 O           1.5903    2.0516    0.6906 O.3     1  LIG1       -0.5044
     18 H           2.2725    2.7396    0.6743 H       1  LIG1        0.2922
     19 C           1.4299    4.8510    0.0598 C.1     1  LIG1       -0.0648
     20 C           2.4711    5.4585    0.0613 C.1     1  LIG1       -0.1138
     21 H           3.3697    6.0317    0.0556 H       1  LIG1        0.1232
     22 C          -1.5393    5.6954   -0.5236 C.ar    1  LIG1        0.0698
     23 C          -1.2730    6.8838    0.1030 C.ar    1  LIG1        0.1474
     24 C          -1.9816    7.9984   -0.4663 C.ar    1  LIG1        0.0737
     25 C          -2.7805    7.6207   -1.5095 C.ar    1  LIG1       -0.0047
     26 S          -2.6790    5.9427   -1.8251 S.2     1  LIG1       -0.0911
     27 H          -3.4166    8.2590   -2.1045 H       1  LIG1        0.0707
     28 O          -0.4577    6.9976    1.1674 O.3     1  LIG1       -0.5044
     29 H          -0.4413    7.9257    1.4435 H       1  LIG1        0.2922
     30 C          -1.8279    9.3098    0.0646 C.1     1  LIG1       -0.0655
     31 C          -1.6423   10.3862    0.5743 C.1     1  LIG1       -0.1138
     32 H          -1.5001   11.3518    1.0033 H       1  LIG1        0.1232
@<TRIPOS>BOND
     1    11    10    1
     2    27    25    1
     3    26    25   ar
     4    26    22   ar
     5    10     9    3
     6    25    24   ar
     7     9     3    1
     8    22    15    1
     9    22    23   ar
    10    24    30    1
    11    24    23   ar
    12     8     7    1
    13    15    16   ar
    14    15    14   ar
    15    16    12   ar
    16     3     2   ar
    17     3     4   ar
    18    21    20    1
    19    19    20    3
    20    19    14    1
    21    30    31    3
    22    14    13   ar
    23    23    28    1
    24     7     2    1
    25    12    13   ar
    26    12     4    1
    27    13    17    1
    28     2     1   ar
    29     4     5   ar
    30    31    32    1
    31    18    17    1
    32    28    29    1
    33     1     5   ar
    34     1     6    1
