@<TRIPOS>MOLECULE
mol_data/opt/cam/geoms/mol2/5fe5fe5fe.out
 32 34 0 0 0
SMALL
GASTEIGER

@<TRIPOS>ATOM
      1 C          -1.9292   -1.8913    0.3815 C.ar    1  LIG1        0.0190
      2 C          -0.6978   -1.8389   -0.1880 C.ar    1  LIG1        0.1398
      3 C          -0.1737   -0.5012   -0.2859 C.ar    1  LIG1        0.0814
      4 C          -1.0334    0.4408    0.2335 C.ar    1  LIG1        0.0484
      5 S          -2.4725   -0.3156    0.8379 S.2     1  LIG1       -0.0910
      6 H          -2.5376   -2.7659    0.5497 H       1  LIG1        0.0731
      7 O          -0.0281   -2.9222   -0.6399 O.3     1  LIG1       -0.5050
      8 H           0.8095   -2.6187   -1.0200 H       1  LIG1        0.2922
      9 C           1.0741   -0.2738   -0.9265 C.1     1  LIG1       -0.0648
     10 C           2.1310   -0.1979   -1.5016 C.1     1  LIG1       -0.1138
     11 H           3.0654   -0.0859   -2.0017 H       1  LIG1        0.1232
     12 C          -0.8513    1.8769    0.3201 C.ar    1  LIG1        0.0704
     13 C           0.2576    2.5700    0.7234 C.ar    1  LIG1        0.1481
     14 C           0.0772    3.9953    0.7305 C.ar    1  LIG1        0.0820
     15 C          -1.1836    4.3723    0.3262 C.ar    1  LIG1        0.0490
     16 S          -2.1382    2.9865   -0.0821 S.2     1  LIG1       -0.0820
     17 O           1.3962    1.9788    1.1292 O.3     1  LIG1       -0.5044
     18 H           2.0174    2.6715    1.4001 H       1  LIG1        0.2922
     19 C           1.1203    4.8354    1.2057 C.1     1  LIG1       -0.0648
     20 C           2.0626    5.4473    1.6426 C.1     1  LIG1       -0.1138
     21 H           2.8739    6.0251    2.0219 H       1  LIG1        0.1232
     22 C          -1.7278    5.7114    0.2075 C.ar    1  LIG1        0.0698
     23 C          -1.1391    6.8202   -0.3405 C.ar    1  LIG1        0.1474
     24 C          -1.9808    7.9858   -0.3078 C.ar    1  LIG1        0.0737
     25 C          -3.1979    7.7252    0.2577 C.ar    1  LIG1       -0.0047
     26 S          -3.3384    6.0978    0.7651 S.2     1  LIG1       -0.0911
     27 H          -4.0105    8.4220    0.4000 H       1  LIG1        0.0707
     28 O           0.0904    6.8167   -0.8874 O.3     1  LIG1       -0.5044
     29 H           0.2799    7.7058   -1.2214 H       1  LIG1        0.2922
     30 C          -1.5310    9.2267   -0.8401 C.1     1  LIG1       -0.0655
     31 C          -1.0746   10.2371   -1.3128 C.1     1  LIG1       -0.1138
     32 H          -0.7001   11.1468   -1.7238 H       1  LIG1        0.1232
@<TRIPOS>BOND
     1    11    10    1
     2    32    31    1
     3    10     9    3
     4    31    30    3
     5    29    28    1
     6     8     7    1
     7     9     3    1
     8    28    23    1
     9    30    24    1
    10     7     2    1
    11    23    24   ar
    12    23    22   ar
    13    24    25   ar
    14     3     2   ar
    15     3     4   ar
    16     2     1   ar
    17    16    12   ar
    18    16    15   ar
    19    22    15    1
    20    22    26   ar
    21     4    12    1
    22     4     5   ar
    23    25    27    1
    24    25    26   ar
    25    12    13   ar
    26    15    14   ar
    27     1     6    1
    28     1     5   ar
    29    13    14   ar
    30    13    17    1
    31    14    19    1
    32    17    18    1
    33    19    20    3
    34    20    21    1
