@<TRIPOS>MOLECULE
mol_data/opt/cam/geoms/mol2/5fe5fe-5fe5fe.out
 42 45 0 0 0
SMALL
GASTEIGER

@<TRIPOS>ATOM
      1 C          -1.9674   -1.9274    0.1953 C.ar    1  LIG1        0.0190
      2 C          -0.6705   -1.8981   -0.2053 C.ar    1  LIG1        0.1398
      3 C          -0.1187   -0.5685   -0.2475 C.ar    1  LIG1        0.0814
      4 C          -1.0262    0.3914    0.1420 C.ar    1  LIG1        0.0484
      5 S          -2.5438   -0.3389    0.5579 S.2     1  LIG1       -0.0910
      6 H          -2.6054   -2.7919    0.2904 H       1  LIG1        0.0731
      7 O           0.0380   -2.9955   -0.5522 O.3     1  LIG1       -0.5050
      8 H           0.9225   -2.7066   -0.8215 H       1  LIG1        0.2922
      9 C           1.2059   -0.3664   -0.7200 C.1     1  LIG1       -0.0648
     10 C           2.3306   -0.3132   -1.1513 C.1     1  LIG1       -0.1138
     11 H           3.3243   -0.2202   -1.5246 H       1  LIG1        0.1232
     12 C          -0.8379    1.8260    0.2347 C.ar    1  LIG1        0.0704
     13 C           0.2192    2.5126    0.7672 C.ar    1  LIG1        0.1481
     14 C           0.0574    3.9398    0.7358 C.ar    1  LIG1        0.0820
     15 C          -1.1376    4.3261    0.1706 C.ar    1  LIG1        0.0491
     16 S          -2.0507    2.9444   -0.3390 S.2     1  LIG1       -0.0820
     17 O           1.2898    1.9150    1.3217 O.3     1  LIG1       -0.5044
     18 H           1.8781    2.6055    1.6629 H       1  LIG1        0.2922
     19 C           1.0417    4.7715    1.3346 C.1     1  LIG1       -0.0648
     20 C           1.9287    5.3744    1.8852 C.1     1  LIG1       -0.1138
     21 H           2.6915    5.9464    2.3614 H       1  LIG1        0.1232
     22 C          -1.6479    5.6663   -0.0325 C.ar    1  LIG1        0.0704
     23 C          -0.9816    6.7696   -0.4949 C.ar    1  LIG1        0.1481
     24 C          -1.8131    7.9334   -0.6258 C.ar    1  LIG1        0.0820
     25 C          -3.1182    7.6971   -0.2564 C.ar    1  LIG1        0.0490
     26 S          -3.3225    6.0601    0.2701 S.2     1  LIG1       -0.0820
     27 O           0.3152    6.7591   -0.8508 O.3     1  LIG1       -0.5044
     28 H           0.5446    7.6391   -1.1861 H       1  LIG1        0.2922
     29 C          -1.2708    9.1274   -1.1733 C.1     1  LIG1       -0.0648
     30 C          -0.7108   10.0759   -1.6633 C.1     1  LIG1       -0.1138
     31 H          -0.2528   10.9372   -2.0928 H       1  LIG1        0.1232
     32 C          -4.2346    8.6222   -0.2523 C.ar    1  LIG1        0.0698
     33 C          -4.2606    9.9176    0.1932 C.ar    1  LIG1        0.1474
     34 C          -5.5525   10.5363    0.0668 C.ar    1  LIG1        0.0737
     35 C          -6.4805    9.6843   -0.4642 C.ar    1  LIG1       -0.0047
     36 S          -5.8158    8.1510   -0.8283 S.2     1  LIG1       -0.0911
     37 H          -7.5208    9.8975   -0.6602 H       1  LIG1        0.0707
     38 O          -3.1961   10.5418    0.7292 O.3     1  LIG1       -0.5044
     39 H          -3.4623   11.4371    0.9853 H       1  LIG1        0.2922
     40 C          -5.7627   11.8800    0.4860 C.1     1  LIG1       -0.0655
     41 C          -5.8558   13.0200    0.8659 C.1     1  LIG1       -0.1138
     42 H          -5.9712   14.0279    1.1937 H       1  LIG1        0.1232
@<TRIPOS>BOND
     1    31    30    1
     2    30    29    3
     3    11    10    1
     4    28    27    1
     5    29    24    1
     6    10     9    3
     7    27    23    1
     8    36    35   ar
     9    36    32   ar
    10     8     7    1
    11     9     3    1
    12    37    35    1
    13    24    23   ar
    14    24    25   ar
    15     7     2    1
    16    23    22   ar
    17    35    34   ar
    18    16    15   ar
    19    16    12   ar
    20    25    32    1
    21    25    26   ar
    22    32    33   ar
    23     3     2   ar
    24     3     4   ar
    25     2     1   ar
    26    22    15    1
    27    22    26   ar
    28    34    33   ar
    29    34    40    1
    30     4    12    1
    31     4     5   ar
    32    15    14   ar
    33    33    38    1
    34     1     6    1
    35     1     5   ar
    36    12    13   ar
    37    40    41    3
    38    38    39    1
    39    14    13   ar
    40    14    19    1
    41    13    17    1
    42    41    42    1
    43    17    18    1
    44    19    20    3
    45    20    21    1
