@<TRIPOS>MOLECULE
mol_data/opt/cam/geoms/mol2/5fe5fe-5fe5fe-.out
 42 45 0 0 0
SMALL
GASTEIGER

@<TRIPOS>ATOM
      1 C          -1.5452   -1.6337    1.8826 C.ar    1  LIG1        0.0190
      2 C          -0.7880   -1.8025    0.7682 C.ar    1  LIG1        0.1398
      3 C          -0.3792   -0.5601    0.1660 C.ar    1  LIG1        0.0814
      4 C          -0.8365    0.5379    0.8602 C.ar    1  LIG1        0.0484
      5 S          -1.7579    0.0427    2.2433 S.2     1  LIG1       -0.0910
      6 H          -1.9854   -2.4017    2.4989 H       1  LIG1        0.0731
      7 O          -0.4601   -3.0085    0.2536 O.3     1  LIG1       -0.5050
      8 H           0.0612   -2.8590   -0.5490 H       1  LIG1        0.2922
      9 C           0.3568   -0.5701   -1.0494 C.1     1  LIG1       -0.0648
     10 C           0.9624   -0.6996   -2.0840 C.1     1  LIG1       -0.1138
     11 H           1.5023   -0.7684   -3.0002 H       1  LIG1        0.1232
     12 C          -0.6248    1.9426    0.5663 C.ar    1  LIG1        0.0704
     13 C           0.5379    2.5690    0.2092 C.ar    1  LIG1        0.1481
     14 C           0.3891    3.9799   -0.0168 C.ar    1  LIG1        0.0820
     15 C          -0.8979    4.4193    0.2002 C.ar    1  LIG1        0.0491
     16 S          -1.9252    3.1043    0.6653 S.2     1  LIG1       -0.0820
     17 O           1.7180    1.9332    0.0899 O.3     1  LIG1       -0.5044
     18 H           2.3844    2.5814   -0.1836 H       1  LIG1        0.2922
     19 C           1.5016    4.7418   -0.4654 C.1     1  LIG1       -0.0648
     20 C           2.5052    5.2821   -0.8580 C.1     1  LIG1       -0.1138
     21 H           3.3706    5.7991   -1.2039 H       1  LIG1        0.1232
     22 C          -1.4212    5.7661    0.0842 C.ar    1  LIG1        0.0704
     23 C          -0.8678    6.9332    0.5371 C.ar    1  LIG1        0.1481
     24 C          -1.6599    8.0969    0.2511 C.ar    1  LIG1        0.0820
     25 C          -2.8336    7.7922   -0.4006 C.ar    1  LIG1        0.0490
     26 S          -2.9612    6.0874   -0.6754 S.2     1  LIG1       -0.0820
     27 O           0.2997    6.9929    1.2019 O.3     1  LIG1       -0.5044
     28 H           0.4834    7.9214    1.4104 H       1  LIG1        0.2922
     29 C          -1.1730    9.3850    0.6021 C.1     1  LIG1       -0.0648
     30 C          -0.6569   10.4238    0.9302 C.1     1  LIG1       -0.1138
     31 H          -0.2363   11.3632    1.2074 H       1  LIG1        0.1232
     32 C          -3.8803    8.6968   -0.8371 C.ar    1  LIG1        0.0698
     33 C          -4.4539    9.7262   -0.1389 C.ar    1  LIG1        0.1474
     34 C          -5.4850   10.4072   -0.8746 C.ar    1  LIG1        0.0737
     35 C          -5.6744    9.8651   -2.1152 C.ar    1  LIG1       -0.0047
     36 S          -4.6174    8.5541   -2.4151 S.2     1  LIG1       -0.0911
     37 H          -6.3853   10.1854   -2.8622 H       1  LIG1        0.0707
     38 O          -4.1147   10.0500    1.1221 O.3     1  LIG1       -0.5044
     39 H          -4.6675   10.7923    1.4076 H       1  LIG1        0.2922
     40 C          -6.1923   11.4998   -0.2990 C.1     1  LIG1       -0.0655
     41 C          -6.7428   12.4136    0.2619 C.1     1  LIG1       -0.1138
     42 H          -7.2496   13.2258    0.7310 H       1  LIG1        0.1232
@<TRIPOS>BOND
     1    11    10    1
     2    37    35    1
     3    36    35   ar
     4    36    32   ar
     5    35    34   ar
     6    10     9    3
     7    21    20    1
     8     9     3    1
     9    34    40    1
    10    34    33   ar
    11    20    19    3
    12    32    25    1
    13    32    33   ar
    14    26    25   ar
    15    26    22   ar
    16     8     7    1
    17    19    14    1
    18    25    24   ar
    19    40    41    3
    20    18    17    1
    21    33    38    1
    22    14    15   ar
    23    14    13   ar
    24    22    15    1
    25    22    23   ar
    26    17    13    1
    27     3     2   ar
    28     3     4   ar
    29    15    16   ar
    30    13    12   ar
    31    24    23   ar
    32    24    29    1
    33     7     2    1
    34    41    42    1
    35    23    27    1
    36    12    16   ar
    37    12     4    1
    38    29    30    3
    39     2     1   ar
    40     4     5   ar
    41    30    31    1
    42    38    39    1
    43    27    28    1
    44     1     5   ar
    45     1     6    1
