@<TRIPOS>MOLECULE
mol_data/opt/cam/geoms/mol2/5fe5fe-5fe-5fe.out
 42 45 0 0 0
SMALL
GASTEIGER

@<TRIPOS>ATOM
      1 C          -2.0750   -1.8562    0.1035 C.ar    1  LIG1        0.0190
      2 C          -0.8047   -1.8231    0.5817 C.ar    1  LIG1        0.1398
      3 C          -0.2186   -0.5081    0.5472 C.ar    1  LIG1        0.0814
      4 C          -1.0727    0.4359    0.0219 C.ar    1  LIG1        0.0484
      5 S          -2.5824   -0.2913   -0.4263 S.2     1  LIG1       -0.0910
      6 H          -2.7305   -2.7104    0.0411 H       1  LIG1        0.0731
      7 O          -0.1506   -2.9032    1.0634 O.3     1  LIG1       -0.5050
      8 H           0.7239   -2.6134    1.3629 H       1  LIG1        0.2922
      9 C           1.0802   -0.2974    1.0833 C.1     1  LIG1       -0.0648
     10 C           2.1778   -0.2336    1.5783 C.1     1  LIG1       -0.1138
     11 H           3.1492   -0.1321    2.0044 H       1  LIG1        0.1232
     12 C          -0.8370    1.8522   -0.1807 C.ar    1  LIG1        0.0704
     13 C           0.2696    2.4631   -0.7049 C.ar    1  LIG1        0.1481
     14 C           0.1484    3.8909   -0.8069 C.ar    1  LIG1        0.0820
     15 C          -1.0659    4.3545   -0.3515 C.ar    1  LIG1        0.0491
     16 S          -2.0470    3.0460    0.2200 S.2     1  LIG1       -0.0820
     17 O           1.3524    1.7928   -1.1396 O.3     1  LIG1       -0.5044
     18 H           1.9802    2.4358   -1.5025 H       1  LIG1        0.2922
     19 C           1.1901    4.6423   -1.4148 C.1     1  LIG1       -0.0648
     20 C           2.1253    5.1714   -1.9615 C.1     1  LIG1       -0.1138
     21 H           2.9318    5.6791   -2.4389 H       1  LIG1        0.1232
     22 C          -1.5471    5.7202   -0.2987 C.ar    1  LIG1        0.0704
     23 C          -0.8752    6.8429    0.1041 C.ar    1  LIG1        0.1481
     24 C          -1.6598    8.0436    0.0286 C.ar    1  LIG1        0.0820
     25 C          -2.9436    7.8113   -0.4108 C.ar    1  LIG1        0.0490
     26 S          -3.1861    6.1295   -0.7442 S.2     1  LIG1       -0.0820
     27 O           0.3955    6.8302    0.5446 O.3     1  LIG1       -0.5044
     28 H           0.6499    7.7395    0.7634 H       1  LIG1        0.2922
     29 C          -1.0665    9.2945    0.3489 C.1     1  LIG1       -0.0648
     30 C          -0.4587   10.2972    0.6287 C.1     1  LIG1       -0.1138
     31 H           0.0421   11.2064    0.8709 H       1  LIG1        0.1232
     32 C          -4.0159    8.7694   -0.6009 C.ar    1  LIG1        0.0698
     33 C          -4.4108    9.7751    0.2410 C.ar    1  LIG1        0.1474
     34 C          -5.5316   10.5262   -0.2568 C.ar    1  LIG1        0.0737
     35 C          -5.9663   10.0596   -1.4661 C.ar    1  LIG1       -0.0047
     36 S          -5.0346    8.7366   -2.0204 S.2     1  LIG1       -0.0911
     37 H          -6.7889   10.4417   -2.0520 H       1  LIG1        0.0707
     38 O          -3.8339   10.0179    1.4319 O.3     1  LIG1       -0.5044
     39 H          -4.2948   10.7595    1.8511 H       1  LIG1        0.2922
     40 C          -6.0781   11.6058    0.4924 C.1     1  LIG1       -0.0655
     41 C          -6.4803   12.5030    1.1893 C.1     1  LIG1       -0.1138
     42 H          -6.8606   13.3028    1.7830 H       1  LIG1        0.1232
@<TRIPOS>BOND
     1    21    20    1
     2    37    35    1
     3    36    35   ar
     4    36    32   ar
     5    20    19    3
     6    18    17    1
     7    35    34   ar
     8    19    14    1
     9    17    13    1
    10    14    13   ar
    11    14    15   ar
    12    26    25   ar
    13    26    22   ar
    14    13    12   ar
    15    32    25    1
    16    32    33   ar
    17     5     4   ar
    18     5     1   ar
    19    25    24   ar
    20    15    22    1
    21    15    16   ar
    22    22    23   ar
    23    34    33   ar
    24    34    40    1
    25    12     4    1
    26    12    16   ar
    27     4     3   ar
    28    24    23   ar
    29    24    29    1
    30     6     1    1
    31     1     2   ar
    32    23    27    1
    33    33    38    1
    34    29    30    3
    35    40    41    3
    36    27    28    1
    37     3     2   ar
    38     3     9    1
    39     2     7    1
    40    30    31    1
    41     7     8    1
    42     9    10    3
    43    41    42    1
    44    38    39    1
    45    10    11    1
