@<TRIPOS>MOLECULE
mol_data/opt/cam/geoms/mol2/5fe5fe5fe-.out
 32 34 0 0 0
SMALL
GASTEIGER

@<TRIPOS>ATOM
      1 C          -1.8982   -1.7158    1.1918 C.ar    1  LIG1        0.0190
      2 C          -0.7735   -1.8302    0.4394 C.ar    1  LIG1        0.1398
      3 C          -0.2422   -0.5605    0.0164 C.ar    1  LIG1        0.0814
      4 C          -0.9859    0.5024    0.4784 C.ar    1  LIG1        0.0484
      5 S          -2.3244   -0.0581    1.4275 S.2     1  LIG1       -0.0910
      6 H          -2.4906   -2.5137    1.6111 H       1  LIG1        0.0731
      7 O          -0.2103   -3.0102    0.0982 O.3     1  LIG1       -0.5050
      8 H           0.5624   -2.8237   -0.4553 H       1  LIG1        0.2922
      9 C           0.8914   -0.5162   -0.8393 C.1     1  LIG1       -0.0648
     10 C           1.8439   -0.5995   -1.5738 C.1     1  LIG1       -0.1138
     11 H           2.6882   -0.6284   -2.2234 H       1  LIG1        0.1232
     12 C          -0.7605    1.9197    0.2663 C.ar    1  LIG1        0.0704
     13 C           0.4138    2.6157    0.3588 C.ar    1  LIG1        0.1481
     14 C           0.2785    4.0177    0.0755 C.ar    1  LIG1        0.0820
     15 C          -1.0194    4.3787   -0.2073 C.ar    1  LIG1        0.0490
     16 S          -2.0687    3.0027   -0.1412 S.2     1  LIG1       -0.0820
     17 O           1.5878    2.0506    0.6953 O.3     1  LIG1       -0.5044
     18 H           2.2702    2.7384    0.6820 H       1  LIG1        0.2922
     19 C           1.4299    4.8506    0.0670 C.1     1  LIG1       -0.0648
     20 C           2.4712    5.4580    0.0725 C.1     1  LIG1       -0.1138
     21 H           3.3699    6.0310    0.0703 H       1  LIG1        0.1232
     22 C          -1.5372    5.6962   -0.5252 C.ar    1  LIG1        0.0698
     23 C          -1.2728    6.8839    0.1035 C.ar    1  LIG1        0.1474
     24 C          -1.9794    7.9991   -0.4669 C.ar    1  LIG1        0.0737
     25 C          -2.7750    7.6227   -1.5131 C.ar    1  LIG1       -0.0047
     26 S          -2.6727    5.9449   -1.8301 S.2     1  LIG1       -0.0911
     27 H          -3.4091    8.2617   -2.1094 H       1  LIG1        0.0707
     28 O          -0.4610    6.9963    1.1707 O.3     1  LIG1       -0.5044
     29 H          -0.4453    7.9242    1.4478 H       1  LIG1        0.2922
     30 C          -1.8273    9.3100    0.0660 C.1     1  LIG1       -0.0655
     31 C          -1.6432   10.3857    0.5773 C.1     1  LIG1       -0.1138
     32 H          -1.5023   11.3509    1.0078 H       1  LIG1        0.1232
@<TRIPOS>BOND
     1    11    10    1
     2    27    25    1
     3    26    25   ar
     4    26    22   ar
     5    10     9    3
     6    25    24   ar
     7     9     3    1
     8    22    15    1
     9    22    23   ar
    10    24    30    1
    11    24    23   ar
    12     8     7    1
    13    15    16   ar
    14    15    14   ar
    15    16    12   ar
    16     3     2   ar
    17     3     4   ar
    18    30    31    3
    19    19    20    3
    20    19    14    1
    21    21    20    1
    22    14    13   ar
    23     7     2    1
    24    23    28    1
    25    12    13   ar
    26    12     4    1
    27    13    17    1
    28     2     1   ar
    29     4     5   ar
    30    31    32    1
    31    18    17    1
    32    28    29    1
    33     1     5   ar
    34     1     6    1
