@<TRIPOS>MOLECULE
mol_data/opt/cam/geoms/mol2/5fe5fe-.out
 22 23 0 0 0
SMALL
GASTEIGER

@<TRIPOS>ATOM
      1 C          -2.0217   -1.7393    0.6327 C.ar    1  LIG1        0.0190
      2 C          -0.7187   -1.7895    0.2535 C.ar    1  LIG1        0.1398
      3 C          -0.1747   -0.4984   -0.0789 C.ar    1  LIG1        0.0814
      4 C          -1.0942    0.5150    0.0716 C.ar    1  LIG1        0.0484
      5 S          -2.6124   -0.1158    0.6205 S.2     1  LIG1       -0.0910
      6 H          -2.6555   -2.5660    0.9123 H       1  LIG1        0.0731
      7 O           0.0006   -2.9305    0.1736 O.3     1  LIG1       -0.5050
      8 H           0.8888   -2.7037   -0.1393 H       1  LIG1        0.2922
      9 C           1.1578   -0.3911   -0.5608 C.1     1  LIG1       -0.0648
     10 C           2.2909   -0.4189   -0.9717 C.1     1  LIG1       -0.1138
     11 H           3.2916   -0.4004   -1.3377 H       1  LIG1        0.1232
     12 C          -0.9121    1.9366   -0.1596 C.ar    1  LIG1        0.0698
     13 C           0.1244    2.7343    0.2450 C.ar    1  LIG1        0.1474
     14 C          -0.0269    4.1089   -0.1509 C.ar    1  LIG1        0.0737
     15 C          -1.1878    4.3205   -0.8414 C.ar    1  LIG1       -0.0047
     16 S          -2.0931    2.8818   -1.0340 S.2     1  LIG1       -0.0911
     17 H          -1.5421    5.2574   -1.2446 H       1  LIG1        0.0707
     18 O           1.1681    2.2882    0.9690 O.3     1  LIG1       -0.5044
     19 H           1.7618    3.0334    1.1419 H       1  LIG1        0.2922
     20 C           0.9551    5.0805    0.1910 C.1     1  LIG1       -0.0655
     21 C           1.8315    5.8393    0.5211 C.1     1  LIG1       -0.1138
     22 H           2.5897    6.5355    0.7987 H       1  LIG1        0.1232
@<TRIPOS>BOND
     1    11    10    1
     2    17    15    1
     3    16    15   ar
     4    16    12   ar
     5    10     9    3
     6    15    14   ar
     7     9     3    1
     8    12     4    1
     9    12    13   ar
    10    14    20    1
    11    14    13   ar
    12     8     7    1
    13     3     4   ar
    14     3     2   ar
    15     4     5   ar
    16     7     2    1
    17    20    21    3
    18    13    18    1
    19     2     1   ar
    20    21    22    1
    21     5     1   ar
    22     1     6    1
    23    18    19    1
