@<TRIPOS>MOLECULE
mol_data/opt/cam/geoms/mol2/5fe5fe-5fe-.out
 32 34 0 0 0
SMALL
GASTEIGER

@<TRIPOS>ATOM
      1 C          -1.9265   -1.8913   -0.3896 C.ar    1  LIG1        0.0190
      2 C          -0.7063   -1.8381    0.2035 C.ar    1  LIG1        0.1398
      3 C          -0.1830   -0.5005    0.3072 C.ar    1  LIG1        0.0814
      4 C          -1.0316    0.4405   -0.2320 C.ar    1  LIG1        0.0484
      5 S          -2.4594   -0.3166   -0.8617 S.2     1  LIG1       -0.0910
      6 H          -2.5322   -2.7660   -0.5668 H       1  LIG1        0.0731
      7 O          -0.0466   -2.9205    0.6718 O.3     1  LIG1       -0.5050
      8 H           0.7838   -2.6164    1.0672 H       1  LIG1        0.2922
      9 C           1.0523   -0.2721    0.9712 C.1     1  LIG1       -0.0648
     10 C           2.0979   -0.1951    1.5664 C.1     1  LIG1       -0.1138
     11 H           3.0225   -0.0822    2.0842 H       1  LIG1        0.1232
     12 C          -0.8465    1.8762   -0.3197 C.ar    1  LIG1        0.0704
     13 C           0.2706    2.5670   -0.7036 C.ar    1  LIG1        0.1481
     14 C           0.0917    3.9924   -0.7189 C.ar    1  LIG1        0.0820
     15 C          -1.1763    4.3718   -0.3403 C.ar    1  LIG1        0.0490
     16 S          -2.1400    2.9882    0.0538 S.2     1  LIG1       -0.0820
     17 O           1.4163    1.9735   -1.0853 O.3     1  LIG1       -0.5044
     18 H           2.0434    2.6648   -1.3463 H       1  LIG1        0.2922
     19 C           1.1446    4.8300   -1.1764 C.1     1  LIG1       -0.0648
     20 C           2.0958    5.4398   -1.5969 C.1     1  LIG1       -0.1138
     21 H           2.9149    6.0157   -1.9621 H       1  LIG1        0.1232
     22 C          -1.7215    5.7117   -0.2367 C.ar    1  LIG1        0.0698
     23 C          -1.1425    6.8219    0.3190 C.ar    1  LIG1        0.1474
     24 C          -1.9823    7.9881    0.2662 C.ar    1  LIG1        0.0737
     25 C          -3.1885    7.7267   -0.3220 C.ar    1  LIG1       -0.0047
     26 S          -3.3206    6.0977   -0.8267 S.2     1  LIG1       -0.0911
     27 H          -3.9975    8.4237   -0.4823 H       1  LIG1        0.0707
     28 O           0.0761    6.8191    0.8898 O.3     1  LIG1       -0.5044
     29 H           0.2599    7.7091    1.2245 H       1  LIG1        0.2922
     30 C          -1.5418    9.2303    0.8031 C.1     1  LIG1       -0.0655
     31 C          -1.0938   10.2419    1.2813 C.1     1  LIG1       -0.1138
     32 H          -0.7264   11.1526    1.6965 H       1  LIG1        0.1232
@<TRIPOS>BOND
     1    21    20    1
     2    20    19    3
     3    18    17    1
     4    19    14    1
     5    17    13    1
     6     5     1   ar
     7     5     4   ar
     8    26    25   ar
     9    26    22   ar
    10    14    13   ar
    11    14    15   ar
    12    13    12   ar
    13     6     1    1
    14    27    25    1
    15     1     2   ar
    16    15    22    1
    17    15    16   ar
    18    25    24   ar
    19    12     4    1
    20    12    16   ar
    21    22    23   ar
    22     4     3   ar
    23     2     3   ar
    24     2     7    1
    25    24    23   ar
    26    24    30    1
    27     3     9    1
    28    23    28    1
    29     7     8    1
    30    30    31    3
    31    28    29    1
    32     9    10    3
    33    31    32    1
    34    10    11    1
