@<TRIPOS>MOLECULE
mol_data/opt/cam/geoms/mol2/5fe5fe5fe5fe-.out
 42 45 0 0 0
SMALL
GASTEIGER

@<TRIPOS>ATOM
      1 C          -1.9234   -1.9214    0.3734 C.ar    1  LIG1        0.0190
      2 C          -0.6439   -1.8975   -0.0799 C.ar    1  LIG1        0.1398
      3 C          -0.1009   -0.5674   -0.1793 C.ar    1  LIG1        0.0814
      4 C          -0.9967    0.3989    0.2213 C.ar    1  LIG1        0.0484
      5 S          -2.4926   -0.3261    0.7171 S.2     1  LIG1       -0.0910
      6 H          -2.5526   -2.7856    0.5167 H       1  LIG1        0.0731
      7 O           0.0556   -3.0009   -0.4263 O.3     1  LIG1       -0.5050
      8 H           0.9271   -2.7157   -0.7386 H       1  LIG1        0.2922
      9 C           1.2026   -0.3726   -0.7101 C.1     1  LIG1       -0.0648
     10 C           2.3087   -0.3263   -1.1876 C.1     1  LIG1       -0.1138
     11 H           3.2861   -0.2393   -1.6033 H       1  LIG1        0.1232
     12 C          -0.8121    1.8362    0.2686 C.ar    1  LIG1        0.0704
     13 C           0.2621    2.5408    0.7397 C.ar    1  LIG1        0.1481
     14 C           0.0920    3.9660    0.6776 C.ar    1  LIG1        0.0820
     15 C          -1.1268    4.3325    0.1511 C.ar    1  LIG1        0.0491
     16 S          -2.0527    2.9342   -0.2848 S.2     1  LIG1       -0.0820
     17 O           1.3572    1.9623    1.2660 O.3     1  LIG1       -0.5044
     18 H           1.9552    2.6640    1.5650 H       1  LIG1        0.2922
     19 C           1.0954    4.8172    1.2140 C.1     1  LIG1       -0.0648
     20 C           2.0008    5.4379    1.7124 C.1     1  LIG1       -0.1138
     21 H           2.7793    6.0253    2.1421 H       1  LIG1        0.1232
     22 C          -1.6515    5.6649   -0.0663 C.ar    1  LIG1        0.0704
     23 C          -1.0100    6.7582   -0.5840 C.ar    1  LIG1        0.1481
     24 C          -1.8519    7.9148   -0.7117 C.ar    1  LIG1        0.0820
     25 C          -3.1399    7.6831   -0.2837 C.ar    1  LIG1        0.0490
     26 S          -3.3146    6.0598    0.2933 S.2     1  LIG1       -0.0820
     27 O           0.2715    6.7435   -0.9915 O.3     1  LIG1       -0.5044
     28 H           0.4828    7.6152   -1.3588 H       1  LIG1        0.2922
     29 C          -1.3381    9.0961   -1.3118 C.1     1  LIG1       -0.0648
     30 C          -0.8031   10.0335   -1.8486 C.1     1  LIG1       -0.1138
     31 H          -0.3671   10.8850   -2.3187 H       1  LIG1        0.1232
     32 C          -4.2598    8.6036   -0.2588 C.ar    1  LIG1        0.0698
     33 C          -4.2745    9.9102    0.1532 C.ar    1  LIG1        0.1474
     34 C          -5.5735   10.5202    0.0629 C.ar    1  LIG1        0.0737
     35 C          -6.5178    9.6508   -0.4077 C.ar    1  LIG1       -0.0047
     36 S          -5.8606    8.1110   -0.7579 S.2     1  LIG1       -0.0911
     37 H          -7.5663    9.8545   -0.5670 H       1  LIG1        0.0707
     38 O          -3.1924   10.5525    0.6292 O.3     1  LIG1       -0.5044
     39 H          -3.4526   11.4533    0.8723 H       1  LIG1        0.2922
     40 C          -5.7734   11.8736    0.4549 C.1     1  LIG1       -0.0655
     41 C          -5.8569   13.0229    0.8082 C.1     1  LIG1       -0.1138
     42 H          -5.9641   14.0387    1.1138 H       1  LIG1        0.1232
@<TRIPOS>BOND
     1    31    30    1
     2    30    29    3
     3    11    10    1
     4    28    27    1
     5    29    24    1
     6    10     9    3
     7    27    23    1
     8    36    35   ar
     9    36    32   ar
    10     8     7    1
    11    24    23   ar
    12    24    25   ar
    13     9     3    1
    14    23    22   ar
    15    37    35    1
    16     7     2    1
    17    35    34   ar
    18    16    15   ar
    19    16    12   ar
    20    25    32    1
    21    25    26   ar
    22    32    33   ar
    23     3     2   ar
    24     3     4   ar
    25     2     1   ar
    26    22    15    1
    27    22    26   ar
    28    34    33   ar
    29    34    40    1
    30    15    14   ar
    31    33    38    1
    32     4    12    1
    33     4     5   ar
    34    12    13   ar
    35     1     6    1
    36     1     5   ar
    37    40    41    3
    38    38    39    1
    39    14    13   ar
    40    14    19    1
    41    13    17    1
    42    41    42    1
    43    19    20    3
    44    17    18    1
    45    20    21    1
