@<TRIPOS>MOLECULE
mol_data/opt/cam/geoms/mol2/5fe5fe5fe-5fe.out
 42 45 0 0 0
SMALL
GASTEIGER

@<TRIPOS>ATOM
      1 C          -1.5433   -1.6214    1.9059 C.ar    1  LIG1        0.0190
      2 C          -0.7734   -1.7948    0.8010 C.ar    1  LIG1        0.1398
      3 C          -0.3621   -0.5549    0.1953 C.ar    1  LIG1        0.0814
      4 C          -0.8305    0.5459    0.8774 C.ar    1  LIG1        0.0484
      5 S          -1.7653    0.0564    2.2536 S.2     1  LIG1       -0.0910
      6 H          -1.9876   -2.3870    2.5223 H       1  LIG1        0.0731
      7 O          -0.4361   -3.0030    0.2977 O.3     1  LIG1       -0.5050
      8 H           0.0932   -2.8569   -0.5003 H       1  LIG1        0.2922
      9 C           0.3871   -0.5704   -1.0120 C.1     1  LIG1       -0.0648
     10 C           1.0041   -0.7044   -2.0392 C.1     1  LIG1       -0.1138
     11 H           1.5541   -0.7774   -2.9490 H       1  LIG1        0.1232
     12 C          -0.6202    1.9494    0.5769 C.ar    1  LIG1        0.0704
     13 C           0.5442    2.5773    0.2282 C.ar    1  LIG1        0.1481
     14 C           0.3933    3.9863   -0.0083 C.ar    1  LIG1        0.0820
     15 C          -0.8973    4.4228    0.1922 C.ar    1  LIG1        0.0491
     16 S          -1.9254    3.1074    0.6545 S.2     1  LIG1       -0.0820
     17 O           1.7276    1.9447    0.1256 O.3     1  LIG1       -0.5044
     18 H           2.3948    2.5933   -0.1450 H       1  LIG1        0.2922
     19 C           1.5080    4.7490   -0.4499 C.1     1  LIG1       -0.0648
     20 C           2.5139    5.2902   -0.8352 C.1     1  LIG1       -0.1138
     21 H           3.3814    5.8078   -1.1752 H       1  LIG1        0.1232
     22 C          -1.4238    5.7671    0.0621 C.ar    1  LIG1        0.0704
     23 C          -0.8791    6.9389    0.5136 C.ar    1  LIG1        0.1481
     24 C          -1.6718    8.0982    0.2116 C.ar    1  LIG1        0.0820
     25 C          -2.8373    7.7855   -0.4509 C.ar    1  LIG1        0.0490
     26 S          -2.9566    6.0785   -0.7161 S.2     1  LIG1       -0.0820
     27 O           0.2810    7.0066    1.1905 O.3     1  LIG1       -0.5044
     28 H           0.4594    7.9370    1.3951 H       1  LIG1        0.2922
     29 C          -1.1928    9.3900    0.5597 C.1     1  LIG1       -0.0648
     30 C          -0.6837   10.4326    0.8867 C.1     1  LIG1       -0.1138
     31 H          -0.2692   11.3750    1.1625 H       1  LIG1        0.1232
     32 C          -3.8821    8.6838   -0.9044 C.ar    1  LIG1        0.0698
     33 C          -4.4666    9.7157   -0.2191 C.ar    1  LIG1        0.1474
     34 C          -5.4918   10.3887   -0.9702 C.ar    1  LIG1        0.0737
     35 C          -5.6660    9.8380   -2.2093 C.ar    1  LIG1       -0.0047
     36 S          -4.6016    8.5286   -2.4893 S.2     1  LIG1       -0.0911
     37 H          -6.3698   10.1511   -2.9660 H       1  LIG1        0.0707
     38 O          -4.1422   10.0487    1.0434 O.3     1  LIG1       -0.5044
     39 H          -4.7003   10.7911    1.3181 H       1  LIG1        0.2922
     40 C          -6.2089   11.4826   -0.4094 C.1     1  LIG1       -0.0655
     41 C          -6.7683   12.3981    0.1396 C.1     1  LIG1       -0.1138
     42 H          -7.2827   13.2117    0.5980 H       1  LIG1        0.1232
@<TRIPOS>BOND
     1    37    35    1
     2    11    10    1
     3    36    35   ar
     4    36    32   ar
     5    35    34   ar
     6    10     9    3
     7    21    20    1
     8     9     3    1
     9    34    40    1
    10    34    33   ar
    11    32    25    1
    12    32    33   ar
    13    20    19    3
    14    26    25   ar
    15    26    22   ar
    16     8     7    1
    17    25    24   ar
    18    19    14    1
    19    40    41    3
    20    33    38    1
    21    18    17    1
    22    14    15   ar
    23    14    13   ar
    24    22    15    1
    25    22    23   ar
    26    17    13    1
    27    41    42    1
    28    15    16   ar
    29     3     2   ar
    30     3     4   ar
    31    24    23   ar
    32    24    29    1
    33    13    12   ar
    34     7     2    1
    35    23    27    1
    36    29    30    3
    37    12    16   ar
    38    12     4    1
    39     2     1   ar
    40     4     5   ar
    41    30    31    1
    42    38    39    1
    43    27    28    1
    44     1     5   ar
    45     1     6    1
