@<TRIPOS>MOLECULE
mol_data/opt/cam/geoms/mol2/5fe5fe5fe-5fe-.out
 42 45 0 0 0
SMALL
GASTEIGER

@<TRIPOS>ATOM
      1 C          -1.3092   -1.8217    1.5693 C.ar    1  LIG1        0.0190
      2 C          -0.5944   -1.8662    0.4157 C.ar    1  LIG1        0.1398
      3 C          -0.2641   -0.5623   -0.0983 C.ar    1  LIG1        0.0814
      4 C          -0.7361    0.4547    0.7013 C.ar    1  LIG1        0.0484
      5 S          -1.5755   -0.1909    2.0746 S.2     1  LIG1       -0.0910
      6 H          -1.6902   -2.6557    2.1374 H       1  LIG1        0.0731
      7 O          -0.2392   -3.0109   -0.2090 O.3     1  LIG1       -0.5050
      8 H           0.2404   -2.7737   -1.0165 H       1  LIG1        0.2922
      9 C           0.4182   -0.4419   -1.3389 C.1     1  LIG1       -0.0648
     10 C           0.9830   -0.4609   -2.4040 C.1     1  LIG1       -0.1138
     11 H           1.4849   -0.4323   -3.3436 H       1  LIG1        0.1232
     12 C          -0.5955    1.8864    0.5156 C.ar    1  LIG1        0.0704
     13 C           0.5231    2.5908    0.1634 C.ar    1  LIG1        0.1481
     14 C           0.3067    4.0073    0.0596 C.ar    1  LIG1        0.0820
     15 C          -0.9861    4.3702    0.3655 C.ar    1  LIG1        0.0491
     16 S          -1.9375    2.9774    0.7626 S.2     1  LIG1       -0.0820
     17 O           1.7221    2.0205   -0.0561 O.3     1  LIG1       -0.5044
     18 H           2.3476    2.7179   -0.3041 H       1  LIG1        0.2922
     19 C           1.3658    4.8505   -0.3720 C.1     1  LIG1       -0.0648
     20 C           2.3279    5.4638   -0.7613 C.1     1  LIG1       -0.1138
     21 H           3.1544    6.0451   -1.1002 H       1  LIG1        0.1232
     22 C          -1.5693    5.6965    0.3830 C.ar    1  LIG1        0.0704
     23 C          -1.0435    6.8493    0.9020 C.ar    1  LIG1        0.1481
     24 C          -1.9192    7.9828    0.7945 C.ar    1  LIG1        0.0820
     25 C          -3.1153    7.6731    0.1872 C.ar    1  LIG1        0.0490
     26 S          -3.1598    6.0037   -0.2704 S.2     1  LIG1       -0.0820
     27 O           0.1546    6.9115    1.5094 O.3     1  LIG1       -0.5044
     28 H           0.2856    7.8168    1.8299 H       1  LIG1        0.2922
     29 C          -1.5347    9.2259    1.3659 C.1     1  LIG1       -0.0648
     30 C          -1.1138   10.2217    1.8991 C.1     1  LIG1       -0.1138
     31 H          -0.7779   11.1231    2.3583 H       1  LIG1        0.1232
     32 C          -4.2355    8.5500   -0.0933 C.ar    1  LIG1        0.0698
     33 C          -4.2104    9.8171   -0.6134 C.ar    1  LIG1        0.1474
     34 C          -5.5190   10.3899   -0.7786 C.ar    1  LIG1        0.0737
     35 C          -6.5086    9.5317   -0.3872 C.ar    1  LIG1       -0.0047
     36 S          -5.8850    8.0478    0.1915 S.2     1  LIG1       -0.0911
     37 H          -7.5728    9.7135   -0.4107 H       1  LIG1        0.0707
     38 O          -3.0794   10.4535   -0.9686 O.3     1  LIG1       -0.5044
     39 H          -3.3154   11.3227   -1.3247 H       1  LIG1        0.2922
     40 C          -5.6809   11.6995   -1.3117 C.1     1  LIG1       -0.0655
     41 C          -5.7299   12.8127   -1.7710 C.1     1  LIG1       -0.1138
     42 H          -5.8071   13.7961   -2.1755 H       1  LIG1        0.1232
@<TRIPOS>BOND
     1    11    10    1
     2    10     9    3
     3    42    41    1
     4    41    40    3
     5     9     3    1
     6    39    38    1
     7    40    34    1
     8    21    20    1
     9     8     7    1
    10    38    33    1
    11    34    33   ar
    12    34    35   ar
    13    20    19    3
    14    33    32   ar
    15    37    35    1
    16    35    36   ar
    17    19    14    1
    18    18    17    1
    19    26    25   ar
    20    26    22   ar
    21     7     2    1
    22     3     2   ar
    23     3     4   ar
    24    32    25    1
    25    32    36   ar
    26    17    13    1
    27    14    13   ar
    28    14    15   ar
    29    13    12   ar
    30    25    24   ar
    31    15    22    1
    32    15    16   ar
    33    22    23   ar
    34     2     1   ar
    35    12     4    1
    36    12    16   ar
    37     4     5   ar
    38    24    23   ar
    39    24    29    1
    40    23    27    1
    41    29    30    3
    42    27    28    1
    43     1     5   ar
    44     1     6    1
    45    30    31    1
