@<TRIPOS>MOLECULE
mol_data/opt/cam/geoms/mol2/5fe5fe-5fe-5fe-.out
 42 45 0 0 0
SMALL
GASTEIGER

@<TRIPOS>ATOM
      1 C          -1.9496   -1.9266   -0.2471 C.ar    1  LIG1        0.0190
      2 C          -0.6605   -1.8976    0.1779 C.ar    1  LIG1        0.1398
      3 C          -0.1122   -0.5674    0.2398 C.ar    1  LIG1        0.0814
      4 C          -1.0141    0.3936   -0.1599 C.ar    1  LIG1        0.0484
      5 S          -2.5222   -0.3366   -0.6092 S.2     1  LIG1       -0.0910
      6 H          -2.5840   -2.7915   -0.3601 H       1  LIG1        0.0731
      7 O           0.0435   -2.9962    0.5304 O.3     1  LIG1       -0.5050
      8 H           0.9223   -2.7076    0.8182 H       1  LIG1        0.2922
      9 C           1.2029   -0.3662    0.7385 C.1     1  LIG1       -0.0648
     10 C           2.3192   -0.3140    1.1911 C.1     1  LIG1       -0.1138
     11 H           3.3056   -0.2218    1.5838 H       1  LIG1        0.1232
     12 C          -0.8270    1.8291   -0.2389 C.ar    1  LIG1        0.0704
     13 C           0.2386    2.5214   -0.7467 C.ar    1  LIG1        0.1481
     14 C           0.0734    3.9480   -0.7084 C.ar    1  LIG1        0.0820
     15 C          -1.1328    4.3281   -0.1630 C.ar    1  LIG1        0.0491
     16 S          -2.0526    2.9412    0.3197 S.2     1  LIG1       -0.0820
     17 O           1.3205    1.9297   -1.2852 O.3     1  LIG1       -0.5044
     18 H           1.9137    2.6237   -1.6105 H       1  LIG1        0.2922
     19 C           1.0670    4.7858   -1.2827 C.1     1  LIG1       -0.0648
     20 C           1.9630    5.3941   -1.8124 C.1     1  LIG1       -0.1138
     21 H           2.7335    5.9709   -2.2701 H       1  LIG1        0.1232
     22 C          -1.6495    5.6659    0.0399 C.ar    1  LIG1        0.0704
     23 C          -0.9941    6.7672    0.5224 C.ar    1  LIG1        0.1481
     24 C          -1.8302    7.9285    0.6459 C.ar    1  LIG1        0.0820
     25 C          -3.1277    7.6923    0.2504 C.ar    1  LIG1        0.0490
     26 S          -3.3189    6.0587   -0.2913 S.2     1  LIG1       -0.0820
     27 O           0.2958    6.7566    0.9024 O.3     1  LIG1       -0.5044
     28 H           0.5172    7.6346    1.2482 H       1  LIG1        0.2922
     29 C          -1.3006    9.1196    1.2118 C.1     1  LIG1       -0.0648
     30 C          -0.7518   10.0656    1.7188 C.1     1  LIG1       -0.1138
     31 H          -0.3037   10.9248    2.1628 H       1  LIG1        0.1232
     32 C          -4.2457    8.6154    0.2319 C.ar    1  LIG1        0.0698
     33 C          -4.2659    9.9138   -0.2049 C.ar    1  LIG1        0.1474
     34 C          -5.5612   10.5293   -0.0984 C.ar    1  LIG1        0.0737
     35 C          -6.4973    9.6718    0.4092 C.ar    1  LIG1       -0.0047
     36 S          -5.8365    8.1372    0.7749 S.2     1  LIG1       -0.0911
     37 H          -7.5415    9.8816    0.5871 H       1  LIG1        0.0707
     38 O          -3.1929   10.5438   -0.7165 O.3     1  LIG1       -0.5044
     39 H          -3.4560   11.4404   -0.9712 H       1  LIG1        0.2922
     40 C          -5.7662   11.8754   -0.5120 C.1     1  LIG1       -0.0655
     41 C          -5.8544   13.0179   -0.8856 C.1     1  LIG1       -0.1138
     42 H          -5.9657   14.0279   -1.2084 H       1  LIG1        0.1232
@<TRIPOS>BOND
     1    21    20    1
     2    20    19    3
     3    18    17    1
     4    17    13    1
     5    19    14    1
     6    42    41    1
     7    39    38    1
     8    41    40    3
     9    13    14   ar
    10    13    12   ar
    11    38    33    1
    12    14    15   ar
    13     5     1   ar
    14     5     4   ar
    15    40    34    1
    16     6     1    1
    17    26    22   ar
    18    26    25   ar
    19     1     2   ar
    20    12     4    1
    21    12    16   ar
    22    33    34   ar
    23    33    32   ar
    24    15    22    1
    25    15    16   ar
    26     4     3   ar
    27    34    35   ar
    28    22    23   ar
    29     2     3   ar
    30     2     7    1
    31    32    25    1
    32    32    36   ar
    33     3     9    1
    34    25    24   ar
    35    35    37    1
    36    35    36   ar
    37    23    24   ar
    38    23    27    1
    39     7     8    1
    40    24    29    1
    41     9    10    3
    42    27    28    1
    43    10    11    1
    44    29    30    3
    45    30    31    1
