@<TRIPOS>MOLECULE
mol_data/opt/cam/geoms/mol2/5fe5fe5fe5fe.out
 42 45 0 0 0
SMALL
GASTEIGER

@<TRIPOS>ATOM
      1 C          -1.9390   -1.9242    0.3066 C.ar    1  LIG1        0.0190
      2 C          -0.6504   -1.8978   -0.1199 C.ar    1  LIG1        0.1398
      3 C          -0.1041   -0.5675   -0.1961 C.ar    1  LIG1        0.0814
      4 C          -1.0070    0.3962    0.1945 C.ar    1  LIG1        0.0484
      5 S          -2.5136   -0.3314    0.6528 S.2     1  LIG1       -0.0910
      6 H          -2.5720   -2.7889    0.4292 H       1  LIG1        0.0731
      7 O           0.0549   -2.9989   -0.4617 O.3     1  LIG1       -0.5050
      8 H           0.9330   -2.7121   -0.7533 H       1  LIG1        0.2922
      9 C           1.2103   -0.3696   -0.6981 C.1     1  LIG1       -0.0648
     10 C           2.3261   -0.3205   -1.1523 C.1     1  LIG1       -0.1138
     11 H           3.3120   -0.2310   -1.5469 H       1  LIG1        0.1232
     12 C          -0.8218    1.8328    0.2585 C.ar    1  LIG1        0.0704
     13 C           0.2432    2.5318    0.7580 C.ar    1  LIG1        0.1481
     14 C           0.0759    3.9577    0.7052 C.ar    1  LIG1        0.0820
     15 C          -1.1313    4.3304    0.1570 C.ar    1  LIG1        0.0491
     16 S          -2.0495    2.9373   -0.3104 S.2     1  LIG1       -0.0820
     17 O           1.3265    1.9473    1.3016 O.3     1  LIG1       -0.5044
     18 H           1.9190    2.6455    1.6191 H       1  LIG1        0.2922
     19 C           1.0689    4.8028    1.2698 C.1     1  LIG1       -0.0648
     20 C           1.9645    5.4179    1.7923 C.1     1  LIG1       -0.1138
     21 H           2.7346    6.0005    2.2433 H       1  LIG1        0.1232
     22 C          -1.6501    5.6654   -0.0592 C.ar    1  LIG1        0.0704
     23 C          -0.9968    6.7625   -0.5537 C.ar    1  LIG1        0.1481
     24 C          -1.8347    7.9213   -0.6884 C.ar    1  LIG1        0.0820
     25 C          -3.1315    7.6874   -0.2892 C.ar    1  LIG1        0.0490
     26 S          -3.3197    6.0592    0.2695 S.2     1  LIG1       -0.0820
     27 O           0.2928    6.7498   -0.9349 O.3     1  LIG1       -0.5044
     28 H           0.5126    7.6245   -1.2899 H       1  LIG1        0.2922
     29 C          -1.3073    9.1072   -1.2671 C.1     1  LIG1       -0.0648
     30 C          -0.7603   10.0487   -1.7844 C.1     1  LIG1       -0.1138
     31 H          -0.3139   10.9039   -2.2377 H       1  LIG1        0.1232
     32 C          -4.2507    8.6090   -0.2792 C.ar    1  LIG1        0.0698
     33 C          -4.2724    9.9118    0.1442 C.ar    1  LIG1        0.1474
     34 C          -5.5687   10.5243    0.0325 C.ar    1  LIG1        0.0737
     35 C          -6.5040    9.6603   -0.4652 C.ar    1  LIG1       -0.0047
     36 S          -5.8414    8.1229   -0.8156 S.2     1  LIG1       -0.0911
     37 H          -7.5487    9.8668   -0.6442 H       1  LIG1        0.0707
     38 O          -3.1998   10.5485    0.6482 O.3     1  LIG1       -0.5044
     39 H          -3.4640   11.4474    0.8939 H       1  LIG1        0.2922
     40 C          -5.7752   11.8744    0.4324 C.1     1  LIG1       -0.0655
     41 C          -5.8647   13.0205    0.7943 C.1     1  LIG1       -0.1138
     42 H          -5.9771   14.0337    1.1067 H       1  LIG1        0.1232
@<TRIPOS>BOND
     1    31    30    1
     2    30    29    3
     3    11    10    1
     4    28    27    1
     5    29    24    1
     6    10     9    3
     7    27    23    1
     8    36    35   ar
     9    36    32   ar
    10     8     7    1
    11     9     3    1
    12    24    23   ar
    13    24    25   ar
    14    37    35    1
    15    23    22   ar
    16    35    34   ar
    17     7     2    1
    18    16    15   ar
    19    16    12   ar
    20    25    32    1
    21    25    26   ar
    22    32    33   ar
    23     3     2   ar
    24     3     4   ar
    25     2     1   ar
    26    22    15    1
    27    22    26   ar
    28    34    33   ar
    29    34    40    1
    30    33    38    1
    31    15    14   ar
    32     4    12    1
    33     4     5   ar
    34    12    13   ar
    35     1     6    1
    36     1     5   ar
    37    40    41    3
    38    38    39    1
    39    14    13   ar
    40    14    19    1
    41    13    17    1
    42    41    42    1
    43    19    20    3
    44    17    18    1
    45    20    21    1
