@<TRIPOS>MOLECULE
mol_data/opt/cam/geoms/mol2/5ff.out
 11 11 0 0 0
SMALL
GASTEIGER

@<TRIPOS>ATOM
      1 C          -2.0947   -1.7292    0.0000 C.ar    1  LIG1        0.0209
      2 C          -0.7390   -1.6813   -0.0003 C.ar    1  LIG1        0.1654
      3 C          -0.2384   -0.3380   -0.0001 C.ar    1  LIG1        0.1654
      4 C          -1.2155    0.6025    0.0004 C.ar    1  LIG1        0.0209
      5 S          -2.7813   -0.1390    0.0006 S.2     1  LIG1       -0.0976
      6 H          -2.7197   -2.6084   -0.0001 H       1  LIG1        0.0731
      7 H          -1.1117    1.6776    0.0007 H       1  LIG1        0.0731
      8 O           0.0889   -2.7537   -0.0009 O.3     1  LIG1       -0.5029
      9 H           0.9964   -2.4188   -0.0010 H       1  LIG1        0.2923
     10 O           1.1187   -0.1937   -0.0004 O.3     1  LIG1       -0.5029
     11 H           1.3575    0.7396   -0.0004 H       1  LIG1        0.2923
@<TRIPOS>BOND
     1     9     8    1
     2     8     2    1
     3    10    11    1
     4    10     3    1
     5     2     3   ar
     6     2     1   ar
     7     3     4   ar
     8     6     1    1
     9     1     5   ar
    10     4     5   ar
    11     4     7    1
