@<TRIPOS>MOLECULE
mol_data/opt/cam/geoms/mol2/5ff5ff5ff5ff-.out
 38 41 0 0 0
SMALL
GASTEIGER

@<TRIPOS>ATOM
      1 C          -1.9667   -2.0657    0.1368 C.ar    1  LIG1        0.0215
      2 C          -0.6398   -1.9979   -0.1329 C.ar    1  LIG1        0.1661
      3 C          -0.1403   -0.6562   -0.1558 C.ar    1  LIG1        0.1740
      4 C          -1.0973    0.2872    0.1064 C.ar    1  LIG1        0.0747
      5 S          -2.6366   -0.4892    0.4035 S.2     1  LIG1       -0.0885
      6 H          -2.5803   -2.9497    0.2100 H       1  LIG1        0.0731
      7 O           0.1784   -3.0481   -0.3743 O.3     1  LIG1       -0.5029
      8 H           1.0635   -2.6791   -0.5138 H       1  LIG1        0.2923
      9 O           1.1688   -0.4945   -0.4654 O.3     1  LIG1       -0.5025
     10 H           1.4962    0.3480   -0.0946 H       1  LIG1        0.2923
     11 C          -0.9401    1.7254    0.1404 C.ar    1  LIG1        0.0753
     12 C           0.1869    2.4459    0.4042 C.ar    1  LIG1        0.1746
     13 C           0.0220    3.8565    0.3339 C.ar    1  LIG1        0.1746
     14 C          -1.2550    4.2349    0.0144 C.ar    1  LIG1        0.0753
     15 S          -2.2490    2.8179   -0.2490 S.2     1  LIG1       -0.0794
     16 O           1.3977    1.9070    0.7461 O.3     1  LIG1       -0.5025
     17 H           2.0224    2.6451    0.8264 H       1  LIG1        0.2923
     18 O           1.1032    4.6128    0.6379 O.3     1  LIG1       -0.5025
     19 H           1.0133    5.4992    0.2340 H       1  LIG1        0.2923
     20 C          -1.7827    5.5758   -0.1002 C.ar    1  LIG1        0.0753
     21 C          -1.1072    6.7265   -0.3823 C.ar    1  LIG1        0.1746
     22 C          -1.9115    7.8985   -0.4013 C.ar    1  LIG1        0.1746
     23 C          -3.2315    7.6508   -0.1361 C.ar    1  LIG1        0.0753
     24 S          -3.4665    5.9476    0.1909 S.2     1  LIG1       -0.0794
     25 O           0.2304    6.7993   -0.6638 O.3     1  LIG1       -0.5025
     26 H           0.4453    7.7387   -0.7783 H       1  LIG1        0.2923
     27 O          -1.2923    9.0588   -0.7245 O.3     1  LIG1       -0.5025
     28 H          -1.7963    9.8146   -0.3633 H       1  LIG1        0.2923
     29 C          -4.3281    8.5954   -0.1178 C.ar    1  LIG1        0.0747
     30 C          -4.2762    9.9350    0.1361 C.ar    1  LIG1        0.1740
     31 C          -5.5365   10.5926    0.0468 C.ar    1  LIG1        0.1661
     32 C          -6.5546    9.7517   -0.2625 C.ar    1  LIG1        0.0215
     33 S          -5.9734    8.1336   -0.4808 S.2     1  LIG1       -0.0885
     34 H          -7.6043    9.9786   -0.3756 H       1  LIG1        0.0731
     35 O          -3.1357   10.6171    0.4705 O.3     1  LIG1       -0.5025
     36 H          -3.3643   11.5531    0.5700 H       1  LIG1        0.2923
     37 O          -5.5375   11.9332    0.2940 O.3     1  LIG1       -0.5029
     38 H          -6.4295   12.2917    0.2281 H       1  LIG1        0.2923
@<TRIPOS>BOND
     1    26    25    1
     2    27    22    1
     3    27    28    1
     4    25    21    1
     5     8     7    1
     6    33    32   ar
     7    33    29   ar
     8     9     3    1
     9     9    10    1
    10    22    21   ar
    11    22    23   ar
    12    21    20   ar
    13    34    32    1
    14     7     2    1
    15    32    31   ar
    16    15    14   ar
    17    15    11   ar
    18     3     2   ar
    19     3     4   ar
    20    23    29    1
    21    23    24   ar
    22     2     1   ar
    23    29    30   ar
    24    20    14    1
    25    20    24   ar
    26    14    13   ar
    27    31    30   ar
    28    31    37    1
    29     4    11    1
    30     4     5   ar
    31    30    35    1
    32     1     6    1
    33     1     5   ar
    34    11    12   ar
    35    38    37    1
    36    19    18    1
    37    13    12   ar
    38    13    18    1
    39    12    16    1
    40    35    36    1
    41    16    17    1
