@<TRIPOS>MOLECULE
mol_data/opt/cam/geoms/mol2/5ff5ff-5ff.out
 29 31 0 0 0
SMALL
GASTEIGER

@<TRIPOS>ATOM
      1 C          -1.9683   -1.9362    0.6186 C.ar    1  LIG1        0.0215
      2 C          -0.7544   -1.9074    0.0156 C.ar    1  LIG1        0.1661
      3 C          -0.2712   -0.5780   -0.2079 C.ar    1  LIG1        0.1740
      4 C          -1.1256    0.3951    0.2367 C.ar    1  LIG1        0.0747
      5 S          -2.5412   -0.3360    0.9590 S.2     1  LIG1       -0.0885
      6 H          -2.5468   -2.8037    0.8948 H       1  LIG1        0.0731
      7 O          -0.0303   -2.9839   -0.3677 O.3     1  LIG1       -0.5029
      8 H           0.7914   -2.6400   -0.7493 H       1  LIG1        0.2923
      9 O           0.9155   -0.4573   -0.8501 O.3     1  LIG1       -0.5025
     10 H           1.3337    0.3950   -0.6202 H       1  LIG1        0.2923
     11 C          -0.9571    1.8299    0.1473 C.ar    1  LIG1        0.0753
     12 C           0.2053    2.5394    0.0875 C.ar    1  LIG1        0.1746
     13 C           0.0378    3.9461   -0.0379 C.ar    1  LIG1        0.1746
     14 C          -1.2748    4.3340   -0.0515 C.ar    1  LIG1        0.0753
     15 S          -2.3139    2.9308    0.0768 S.2     1  LIG1       -0.0794
     16 O           1.4580    1.9923    0.1470 O.3     1  LIG1       -0.5025
     17 H           2.0909    2.7233    0.0680 H       1  LIG1        0.2923
     18 O           1.1654    4.6891   -0.1477 O.3     1  LIG1       -0.5025
     19 H           0.9965    5.5964    0.1742 H       1  LIG1        0.2923
     20 C          -1.8044    5.6765   -0.1629 C.ar    1  LIG1        0.0747
     21 C          -1.2072    6.8470    0.2048 C.ar    1  LIG1        0.1740
     22 C          -1.9863    8.0079   -0.0675 C.ar    1  LIG1        0.1661
     23 C          -3.1860    7.7235   -0.6326 C.ar    1  LIG1        0.0215
     24 S          -3.3659    6.0161   -0.8696 S.2     1  LIG1       -0.0885
     25 H          -3.9721    8.4049   -0.9221 H       1  LIG1        0.0731
     26 O           0.0215    6.9354    0.8049 O.3     1  LIG1       -0.5025
     27 H           0.2240    7.8733    0.9369 H       1  LIG1        0.2923
     28 O          -1.4339    9.2034    0.2852 O.3     1  LIG1       -0.5029
     29 H          -2.0343    9.9293    0.0825 H       1  LIG1        0.2923
@<TRIPOS>BOND
     1    25    23    1
     2    24    23   ar
     3    24    20   ar
     4     9    10    1
     5     9     3    1
     6     8     7    1
     7    23    22   ar
     8     7     2    1
     9     3     2   ar
    10     3     4   ar
    11    20    14    1
    12    20    21   ar
    13    18    13    1
    14    18    19    1
    15    22    21   ar
    16    22    28    1
    17    14    13   ar
    18    14    15   ar
    19    13    12   ar
    20     2     1   ar
    21    17    16    1
    22    15    11   ar
    23    29    28    1
    24    12    16    1
    25    12    11   ar
    26    11     4    1
    27    21    26    1
    28     4     5   ar
    29     1     6    1
    30     1     5   ar
    31    26    27    1
