@<TRIPOS>MOLECULE
mol_data/opt/cam/geoms/mol2/5ff5ff5ff-5ff-.out
 38 41 0 0 0
SMALL
GASTEIGER

@<TRIPOS>ATOM
      1 C          -1.7988   -2.0585    0.6735 C.ar    1  LIG1        0.0215
      2 C          -0.6821   -1.9924   -0.0922 C.ar    1  LIG1        0.1661
      3 C          -0.2409   -0.6502   -0.3255 C.ar    1  LIG1        0.1740
      4 C          -1.0282    0.2953    0.2752 C.ar    1  LIG1        0.0747
      5 S          -2.3249   -0.4793    1.1578 S.2     1  LIG1       -0.0885
      6 H          -2.3288   -2.9424    0.9918 H       1  LIG1        0.0731
      7 O          -0.0142   -3.0447   -0.6187 O.3     1  LIG1       -0.5029
      8 H           0.7432   -2.6762   -1.0979 H       1  LIG1        0.2923
      9 O           0.8431   -0.4914   -1.1226 O.3     1  LIG1       -0.5025
     10 H           1.2860    0.3548   -0.9176 H       1  LIG1        0.2923
     11 C          -0.8799    1.7341    0.2238 C.ar    1  LIG1        0.0753
     12 C           0.2600    2.4566    0.0307 C.ar    1  LIG1        0.1746
     13 C           0.0724    3.8653   -0.0105 C.ar    1  LIG1        0.1746
     14 C          -1.2307    4.2419    0.1789 C.ar    1  LIG1        0.0753
     15 S          -2.2368    2.8242    0.3924 S.2     1  LIG1       -0.0794
     16 O           1.5106    1.9197   -0.1110 O.3     1  LIG1       -0.5025
     17 H           2.1224    2.6602   -0.2476 H       1  LIG1        0.2923
     18 O           1.1711    4.6209   -0.2482 O.3     1  LIG1       -0.5025
     19 H           1.0428    5.5192    0.1173 H       1  LIG1        0.2923
     20 C          -1.7741    5.5812    0.2038 C.ar    1  LIG1        0.0753
     21 C          -1.1317    6.7458    0.5060 C.ar    1  LIG1        0.1746
     22 C          -1.9405    7.9114    0.4165 C.ar    1  LIG1        0.1746
     23 C          -3.2308    7.6449    0.0445 C.ar    1  LIG1        0.0753
     24 S          -3.4270    5.9307   -0.2480 S.2     1  LIG1       -0.0794
     25 O           0.1750    6.8381    0.9021 O.3     1  LIG1       -0.5025
     26 H           0.3737    7.7822    1.0070 H       1  LIG1        0.2923
     27 O          -1.3585    9.0859    0.7568 O.3     1  LIG1       -0.5025
     28 H          -1.8331    9.8265    0.3299 H       1  LIG1        0.2923
     29 C          -4.3269    8.5795   -0.0982 C.ar    1  LIG1        0.0747
     30 C          -4.2605    9.9113   -0.3871 C.ar    1  LIG1        0.1740
     31 C          -5.5275   10.5610   -0.4274 C.ar    1  LIG1        0.1661
     32 C          -6.5639    9.7214   -0.1819 C.ar    1  LIG1        0.0215
     33 S          -5.9949    8.1152    0.1345 S.2     1  LIG1       -0.0885
     34 H          -7.6207    9.9428   -0.1670 H       1  LIG1        0.0731
     35 O          -3.0992   10.5926   -0.6417 O.3     1  LIG1       -0.5025
     36 H          -3.3234   11.5233   -0.7891 H       1  LIG1        0.2923
     37 O          -5.5144   11.8937   -0.7139 O.3     1  LIG1       -0.5029
     38 H          -6.4108   12.2465   -0.7376 H       1  LIG1        0.2923
@<TRIPOS>BOND
     1     9    10    1
     2     9     3    1
     3     8     7    1
     4    36    35    1
     5    38    37    1
     6    37    31    1
     7    35    30    1
     8     7     2    1
     9    31    30   ar
    10    31    32   ar
    11    30    29   ar
    12     3     2   ar
    13     3     4   ar
    14    18    13    1
    15    18    19    1
    16    24    23   ar
    17    24    20   ar
    18    17    16    1
    19    32    34    1
    20    32    33   ar
    21    16    12    1
    22    29    23    1
    23    29    33   ar
    24     2     1   ar
    25    13    12   ar
    26    13    14   ar
    27    12    11   ar
    28    23    22   ar
    29    14    20    1
    30    14    15   ar
    31    20    21   ar
    32    11     4    1
    33    11    15   ar
    34     4     5   ar
    35    28    27    1
    36    22    21   ar
    37    22    27    1
    38    21    25    1
    39     1     6    1
    40     1     5   ar
    41    25    26    1
