@<TRIPOS>MOLECULE
mol_data/opt/cam/geoms/mol2/5ff5ff-5ff5ff-.out
 38 41 0 0 0
SMALL
GASTEIGER

@<TRIPOS>ATOM
      1 C          -2.2074   -1.9205    0.0003 C.ar    1  LIG1        0.0215
      2 C          -0.8554   -1.9958   -0.0008 C.ar    1  LIG1        0.1661
      3 C          -0.2163   -0.7130   -0.0005 C.ar    1  LIG1        0.1740
      4 C          -1.0982    0.3385    0.0008 C.ar    1  LIG1        0.0747
      5 S          -2.7424   -0.2740    0.0017 S.2     1  LIG1       -0.0885
      6 H          -2.9145   -2.7350    0.0003 H       1  LIG1        0.0731
      7 O          -0.1228   -3.1332   -0.0020 O.3     1  LIG1       -0.5029
      8 H           0.8074   -2.8620   -0.0025 H       1  LIG1        0.2923
      9 O           1.1353   -0.7400   -0.0015 O.3     1  LIG1       -0.5025
     10 H           1.5042    0.1642   -0.0010 H       1  LIG1        0.2923
     11 C          -0.8433    1.7668    0.0014 C.ar    1  LIG1        0.0753
     12 C           0.3378    2.4496    0.0014 C.ar    1  LIG1        0.1746
     13 C           0.2177    3.8667    0.0021 C.ar    1  LIG1        0.1746
     14 C          -1.0823    4.3041    0.0027 C.ar    1  LIG1        0.0753
     15 S          -2.1594    2.9198    0.0023 S.2     1  LIG1       -0.0794
     16 O           1.5842    1.8857    0.0009 O.3     1  LIG1       -0.5025
     17 H           2.2307    2.6084    0.0009 H       1  LIG1        0.2923
     18 O           1.3883    4.5433    0.0021 O.3     1  LIG1       -0.5025
     19 H           1.2351    5.5090    0.0025 H       1  LIG1        0.2923
     20 C          -1.6113    5.6519    0.0035 C.ar    1  LIG1        0.0753
     21 C          -0.9562    6.8488    0.0036 C.ar    1  LIG1        0.1746
     22 C          -1.7952    7.9968    0.0045 C.ar    1  LIG1        0.1746
     23 C          -3.1327    7.6951    0.0051 C.ar    1  LIG1        0.0753
     24 S          -3.3344    5.9527    0.0044 S.2     1  LIG1       -0.0794
     25 O           0.4023    7.0119    0.0029 O.3     1  LIG1       -0.5025
     26 H           0.5820    7.9649    0.0032 H       1  LIG1        0.2923
     27 O          -1.1450    9.1826    0.0047 O.3     1  LIG1       -0.5025
     28 H          -1.7769    9.9281    0.0049 H       1  LIG1        0.2923
     29 C          -4.2905    8.5693    0.0061 C.ar    1  LIG1        0.0747
     30 C          -4.3535    9.9343    0.0058 C.ar    1  LIG1        0.1740
     31 C          -5.6772   10.4590    0.0072 C.ar    1  LIG1        0.1661
     32 C          -6.6347    9.5000    0.0084 C.ar    1  LIG1        0.0215
     33 S          -5.9172    7.9236    0.0080 S.2     1  LIG1       -0.0885
     34 H          -7.7081    9.6151    0.0095 H       1  LIG1        0.0731
     35 O          -3.2740   10.7777    0.0044 O.3     1  LIG1       -0.5025
     36 H          -3.5969   11.6901    0.0044 H       1  LIG1        0.2923
     37 O          -5.7832   11.8185    0.0069 O.3     1  LIG1       -0.5029
     38 H          -6.7080   12.0892    0.0075 H       1  LIG1        0.2923
@<TRIPOS>BOND
     1     8     7    1
     2     7     2    1
     3     9    10    1
     4     9     3    1
     5     2     3   ar
     6     2     1   ar
     7     3     4   ar
     8     1     6    1
     9     1     5   ar
    10     4    11    1
    11     4     5   ar
    12    16    17    1
    13    16    12    1
    14    12    11   ar
    15    12    13   ar
    16    11    15   ar
    17    13    18    1
    18    13    14   ar
    19    18    19    1
    20    15    14   ar
    21    14    20    1
    22    25    26    1
    23    25    21    1
    24    20    21   ar
    25    20    24   ar
    26    21    22   ar
    27    35    36    1
    28    35    30    1
    29    24    23   ar
    30    22    27    1
    31    22    23   ar
    32    27    28    1
    33    23    29    1
    34    30    29   ar
    35    30    31   ar
    36    29    33   ar
    37    37    31    1
    38    37    38    1
    39    31    32   ar
    40    33    32   ar
    41    32    34    1
