@<TRIPOS>MOLECULE
mol_data/opt/cam/geoms/mol2/5ff5ff5ff.out
 29 31 0 0 0
SMALL
GASTEIGER

@<TRIPOS>ATOM
      1 C          -2.0397   -1.9652    0.0769 C.ar    1  LIG1        0.0215
      2 C          -0.7193   -1.8943   -0.2221 C.ar    1  LIG1        0.1661
      3 C          -0.2154   -0.5541   -0.2194 C.ar    1  LIG1        0.1740
      4 C          -1.1625    0.3845    0.0913 C.ar    1  LIG1        0.0747
      5 S          -2.6976   -0.3948    0.4020 S.2     1  LIG1       -0.0885
      6 H          -2.6548   -2.8491    0.1405 H       1  LIG1        0.0731
      7 O           0.0886   -2.9402   -0.5115 O.3     1  LIG1       -0.5029
      8 H           0.9720   -2.5712   -0.6612 H       1  LIG1        0.2923
      9 O           1.0866   -0.3877   -0.5549 O.3     1  LIG1       -0.5025
     10 H           1.4268    0.4416   -0.1662 H       1  LIG1        0.2923
     11 C          -0.9987    1.8208    0.1612 C.ar    1  LIG1        0.0753
     12 C           0.1366    2.5297    0.4199 C.ar    1  LIG1        0.1746
     13 C          -0.0245    3.9425    0.3897 C.ar    1  LIG1        0.1746
     14 C          -1.3059    4.3333    0.1088 C.ar    1  LIG1        0.0753
     15 S          -2.3110    2.9281   -0.1710 S.2     1  LIG1       -0.0794
     16 O           1.3520    1.9772    0.7208 O.3     1  LIG1       -0.5025
     17 H           1.9822    2.7098    0.8075 H       1  LIG1        0.2923
     18 O           1.0660    4.6884    0.6886 O.3     1  LIG1       -0.5025
     19 H           0.9759    5.5783    0.2942 H       1  LIG1        0.2923
     20 C          -1.8308    5.6807    0.0438 C.ar    1  LIG1        0.0747
     21 C          -1.1570    6.8298   -0.2510 C.ar    1  LIG1        0.1740
     22 C          -1.9611    8.0044   -0.2014 C.ar    1  LIG1        0.1661
     23 C          -3.2546    7.7512    0.1182 C.ar    1  LIG1        0.0215
     24 S          -3.5003    6.0578    0.3956 S.2     1  LIG1       -0.0885
     25 H          -4.0748    8.4478    0.2077 H       1  LIG1        0.0731
     26 O           0.1699    6.8855   -0.5895 O.3     1  LIG1       -0.5025
     27 H           0.4065    7.8152   -0.7224 H       1  LIG1        0.2923
     28 O          -1.3331    9.1797   -0.4900 O.3     1  LIG1       -0.5029
     29 H          -1.9538    9.9159   -0.4527 H       1  LIG1        0.2923
@<TRIPOS>BOND
     1    27    26    1
     2     8     7    1
     3    26    21    1
     4     9     3    1
     5     9    10    1
     6     7     2    1
     7    28    29    1
     8    28    22    1
     9    21    22   ar
    10    21    20   ar
    11     2     3   ar
    12     2     1   ar
    13     3     4   ar
    14    22    23   ar
    15    15    14   ar
    16    15    11   ar
    17    20    14    1
    18    20    24   ar
    19     1     6    1
    20     1     5   ar
    21     4    11    1
    22     4     5   ar
    23    14    13   ar
    24    23    25    1
    25    23    24   ar
    26    11    12   ar
    27    19    18    1
    28    13    12   ar
    29    13    18    1
    30    12    16    1
    31    16    17    1
