@<TRIPOS>MOLECULE
mol_data/opt/cam/geoms/mol2/5ff5ff-5ff-5ff.out
 38 41 0 0 0
SMALL
GASTEIGER

@<TRIPOS>ATOM
      1 C          -1.7756   -2.0035    0.9747 C.ar    1  LIG1        0.0215
      2 C          -0.7108   -1.9918    0.1357 C.ar    1  LIG1        0.1661
      3 C          -0.2783   -0.6693   -0.2027 C.ar    1  LIG1        0.1740
      4 C          -1.0195    0.3163    0.3921 C.ar    1  LIG1        0.0747
      5 S          -2.2601   -0.3943    1.4002 S.2     1  LIG1       -0.0885
      6 H          -2.2888   -2.8628    1.3769 H       1  LIG1        0.0731
      7 O          -0.0846   -3.0787   -0.3714 O.3     1  LIG1       -0.5029
      8 H           0.6419   -2.7452   -0.9191 H       1  LIG1        0.2923
      9 O           0.7524   -0.5666   -1.0761 O.3     1  LIG1       -0.5025
     10 H           1.2116    0.2864   -0.9505 H       1  LIG1        0.2923
     11 C          -0.8665    1.7483    0.2479 C.ar    1  LIG1        0.0753
     12 C           0.2623    2.4478   -0.0602 C.ar    1  LIG1        0.1746
     13 C           0.0803    3.8535   -0.1717 C.ar    1  LIG1        0.1746
     14 C          -1.2059    4.2524    0.0782 C.ar    1  LIG1        0.0753
     15 S          -2.2037    2.8591    0.4392 S.2     1  LIG1       -0.0794
     16 O           1.4980    1.8921   -0.2511 O.3     1  LIG1       -0.5025
     17 H           2.1031    2.6178   -0.4715 H       1  LIG1        0.2923
     18 O           1.1656    4.5827   -0.5247 O.3     1  LIG1       -0.5025
     19 H           1.0693    5.5015   -0.2037 H       1  LIG1        0.2923
     20 C          -1.7375    5.5965    0.0555 C.ar    1  LIG1        0.0753
     21 C          -1.0688    6.7679    0.2570 C.ar    1  LIG1        0.1746
     22 C          -1.8661    7.9377    0.1280 C.ar    1  LIG1        0.1746
     23 C          -3.1783    7.6675   -0.1535 C.ar    1  LIG1        0.0753
     24 S          -3.4203    5.9380   -0.2761 S.2     1  LIG1       -0.0794
     25 O           0.2597    6.8654    0.5692 O.3     1  LIG1       -0.5025
     26 H           0.4653    7.8108    0.6440 H       1  LIG1        0.2923
     27 O          -1.2343    9.1270    0.2737 O.3     1  LIG1       -0.5025
     28 H          -1.8710    9.8058    0.5733 H       1  LIG1        0.2923
     29 C          -4.2592    8.6109   -0.3450 C.ar    1  LIG1        0.0747
     30 C          -4.3712    9.8709    0.1665 C.ar    1  LIG1        0.1740
     31 C          -5.5508   10.5595   -0.2374 C.ar    1  LIG1        0.1661
     32 C          -6.3473    9.8196   -1.0483 C.ar    1  LIG1        0.0215
     33 S          -5.6418    8.2669   -1.3562 S.2     1  LIG1       -0.0885
     34 H          -7.2995   10.0863   -1.4823 H       1  LIG1        0.0731
     35 O          -3.4617   10.4473    1.0135 O.3     1  LIG1       -0.5025
     36 H          -3.7630   11.3463    1.2112 H       1  LIG1        0.2923
     37 O          -5.7103   11.8225    0.2499 O.3     1  LIG1       -0.5029
     38 H          -6.5458   12.1999   -0.0468 H       1  LIG1        0.2923
@<TRIPOS>BOND
     1    34    32    1
     2    33    32   ar
     3    33    29   ar
     4     9    10    1
     5     9     3    1
     6    32    31   ar
     7     8     7    1
     8    18    19    1
     9    18    13    1
    10    17    16    1
    11     7     2    1
    12    29    23    1
    13    29    30   ar
    14    24    23   ar
    15    24    20   ar
    16    16    12    1
    17    31    30   ar
    18    31    37    1
    19     3     2   ar
    20     3     4   ar
    21    13    12   ar
    22    13    14   ar
    23    23    22   ar
    24    12    11   ar
    25    38    37    1
    26    20    14    1
    27    20    21   ar
    28    14    15   ar
    29    22    21   ar
    30    22    27    1
    31     2     1   ar
    32    30    35    1
    33    11     4    1
    34    11    15   ar
    35    21    25    1
    36    27    28    1
    37     4     5   ar
    38    25    26    1
    39     1     6    1
    40     1     5   ar
    41    35    36    1
