@<TRIPOS>MOLECULE
mol_data/opt/cam/geoms/mol2/5ff5ff-5ff-.out
 29 31 0 0 0
SMALL
GASTEIGER

@<TRIPOS>ATOM
      1 C          -2.0435   -1.9645   -0.0686 C.ar    1  LIG1        0.0215
      2 C          -0.7236   -1.8940    0.2328 C.ar    1  LIG1        0.1661
      3 C          -0.2186   -0.5541    0.2286 C.ar    1  LIG1        0.1740
      4 C          -1.1645    0.3846   -0.0856 C.ar    1  LIG1        0.0747
      5 S          -2.6996   -0.3942   -0.3978 S.2     1  LIG1       -0.0885
      6 H          -2.6591   -2.8480   -0.1317 H       1  LIG1        0.0731
      7 O           0.0830   -2.9399    0.5257 O.3     1  LIG1       -0.5029
      8 H           0.9664   -2.5713    0.6763 H       1  LIG1        0.2923
      9 O           1.0828   -0.3880    0.5662 O.3     1  LIG1       -0.5025
     10 H           1.4243    0.4403    0.1766 H       1  LIG1        0.2923
     11 C          -0.9995    1.8207   -0.1580 C.ar    1  LIG1        0.0753
     12 C           0.1368    2.5282   -0.4159 C.ar    1  LIG1        0.1746
     13 C          -0.0233    3.9412   -0.3886 C.ar    1  LIG1        0.1746
     14 C          -1.3050    4.3335   -0.1108 C.ar    1  LIG1        0.0753
     15 S          -2.3117    2.9295    0.1697 S.2     1  LIG1       -0.0794
     16 O           1.3523    1.9743   -0.7134 O.3     1  LIG1       -0.5025
     17 H           1.9832    2.7063   -0.8002 H       1  LIG1        0.2923
     18 O           1.0683    4.6858   -0.6867 O.3     1  LIG1       -0.5025
     19 H           0.9781    5.5764   -0.2942 H       1  LIG1        0.2923
     20 C          -1.8290    5.6813   -0.0493 C.ar    1  LIG1        0.0747
     21 C          -1.1549    6.8305    0.2446 C.ar    1  LIG1        0.1740
     22 C          -1.9581    8.0056    0.1913 C.ar    1  LIG1        0.1661
     23 C          -3.2511    7.7527   -0.1303 C.ar    1  LIG1        0.0215
     24 S          -3.4975    6.0590   -0.4050 S.2     1  LIG1       -0.0885
     25 H          -4.0707    8.4498   -0.2226 H       1  LIG1        0.0731
     26 O           0.1714    6.8859    0.5855 O.3     1  LIG1       -0.5025
     27 H           0.4084    7.8156    0.7172 H       1  LIG1        0.2923
     28 O          -1.3297    9.1810    0.4789 O.3     1  LIG1       -0.5029
     29 H          -1.9499    9.9175    0.4395 H       1  LIG1        0.2923
@<TRIPOS>BOND
     1    17    16    1
     2    16    12    1
     3    18    13    1
     4    18    19    1
     5    12    13   ar
     6    12    11   ar
     7    24    23   ar
     8    24    20   ar
     9     5     4   ar
    10     5     1   ar
    11    13    14   ar
    12    25    23    1
    13    11     4    1
    14    11    15   ar
    15     6     1    1
    16    23    22   ar
    17    14    20    1
    18    14    15   ar
    19     4     3   ar
    20     1     2   ar
    21    20    21   ar
    22    10     9    1
    23    22    21   ar
    24    22    28    1
    25     3     2   ar
    26     3     9    1
    27     2     7    1
    28    21    26    1
    29    29    28    1
    30     7     8    1
    31    26    27    1
