@<TRIPOS>MOLECULE
mol_data/opt/cam/geoms/mol2/5ff5ff-.out
 20 21 0 0 0
SMALL
GASTEIGER

@<TRIPOS>ATOM
      1 C          -2.0716   -1.8389   -0.2920 C.ar    1  LIG1        0.0215
      2 C          -0.7569   -1.8026    0.0368 C.ar    1  LIG1        0.1661
      3 C          -0.2501   -0.4698    0.1703 C.ar    1  LIG1        0.1740
      4 C          -1.1891    0.4973   -0.0665 C.ar    1  LIG1        0.0747
      5 S          -2.7192   -0.2421   -0.4785 S.2     1  LIG1       -0.0885
      6 H          -2.6875   -2.7101   -0.4509 H       1  LIG1        0.0731
      7 O           0.0427   -2.8747    0.2397 O.3     1  LIG1       -0.5029
      8 H           0.9244   -2.5261    0.4397 H       1  LIG1        0.2923
      9 O           1.0465   -0.3394    0.5425 O.3     1  LIG1       -0.5025
     10 H           1.3969    0.5150    0.2257 H       1  LIG1        0.2923
     11 C          -1.0212    1.9348    0.0065 C.ar    1  LIG1        0.0747
     12 C           0.1179    2.6593   -0.1874 C.ar    1  LIG1        0.1740
     13 C          -0.0480    4.0632   -0.0090 C.ar    1  LIG1        0.1661
     14 C          -1.3187    4.4136    0.3094 C.ar    1  LIG1        0.0215
     15 S          -2.3316    3.0116    0.4266 S.2     1  LIG1       -0.0885
     16 H          -1.7217    5.4006    0.4809 H       1  LIG1        0.0731
     17 O           1.3273    2.1223   -0.5438 O.3     1  LIG1       -0.5025
     18 H           1.9742    2.8418   -0.5817 H       1  LIG1        0.2923
     19 O           1.0626    4.8328   -0.1949 O.3     1  LIG1       -0.5029
     20 H           0.8569    5.7642   -0.0588 H       1  LIG1        0.2923
@<TRIPOS>BOND
     1    18    17    1
     2    17    12    1
     3     5     1   ar
     4     5     4   ar
     5     6     1    1
     6     1     2   ar
     7    19    20    1
     8    19    13    1
     9    12    13   ar
    10    12    11   ar
    11     4    11    1
    12     4     3   ar
    13    13    14   ar
    14    11    15   ar
    15     2     3   ar
    16     2     7    1
    17     3     9    1
    18    10     9    1
    19     7     8    1
    20    14    15   ar
    21    14    16    1
