@<TRIPOS>MOLECULE
mol_data/opt/cam/geoms/mol2/5ff5ff5ff5ff.out
 38 41 0 0 0
SMALL
GASTEIGER

@<TRIPOS>ATOM
      1 C          -1.9655   -2.0654    0.1509 C.ar    1  LIG1        0.0215
      2 C          -0.6393   -1.9979   -0.1223 C.ar    1  LIG1        0.1661
      3 C          -0.1400   -0.6562   -0.1485 C.ar    1  LIG1        0.1740
      4 C          -1.0964    0.2875    0.1146 C.ar    1  LIG1        0.0747
      5 S          -2.6349   -0.4886    0.4168 S.2     1  LIG1       -0.0885
      6 H          -2.5788   -2.9494    0.2270 H       1  LIG1        0.0731
      7 O           0.1784   -3.0484   -0.3641 O.3     1  LIG1       -0.5029
      8 H           1.0631   -2.6795   -0.5065 H       1  LIG1        0.2923
      9 O           1.1683   -0.4949   -0.4617 O.3     1  LIG1       -0.5025
     10 H           1.4966    0.3483   -0.0930 H       1  LIG1        0.2923
     11 C          -0.9393    1.7258    0.1460 C.ar    1  LIG1        0.0753
     12 C           0.1883    2.4469    0.4059 C.ar    1  LIG1        0.1746
     13 C           0.0230    3.8572    0.3338 C.ar    1  LIG1        0.1746
     14 C          -1.2548    4.2351    0.0170 C.ar    1  LIG1        0.0753
     15 S          -2.2493    2.8175   -0.2416 S.2     1  LIG1       -0.0794
     16 O           1.4001    1.9086    0.7454 O.3     1  LIG1       -0.5025
     17 H           2.0249    2.6469    0.8229 H       1  LIG1        0.2923
     18 O           1.1050    4.6142    0.6338 O.3     1  LIG1       -0.5025
     19 H           1.0139    5.5000    0.2289 H       1  LIG1        0.2923
     20 C          -1.7830    5.5757   -0.0982 C.ar    1  LIG1        0.0753
     21 C          -1.1083    6.7261   -0.3838 C.ar    1  LIG1        0.1746
     22 C          -1.9129    7.8980   -0.4026 C.ar    1  LIG1        0.1746
     23 C          -3.2322    7.6504   -0.1336 C.ar    1  LIG1        0.0753
     24 S          -3.4661    5.9477    0.1966 S.2     1  LIG1       -0.0794
     25 O           0.2285    6.7987   -0.6688 O.3     1  LIG1       -0.5025
     26 H           0.4430    7.7379   -0.7852 H       1  LIG1        0.2923
     27 O          -1.2946    9.0578   -0.7291 O.3     1  LIG1       -0.5025
     28 H          -1.7978    9.8141   -0.3677 H       1  LIG1        0.2923
     29 C          -4.3288    8.5949   -0.1140 C.ar    1  LIG1        0.0747
     30 C          -4.2765    9.9349    0.1377 C.ar    1  LIG1        0.1740
     31 C          -5.5371   10.5922    0.0508 C.ar    1  LIG1        0.1661
     32 C          -6.5559    9.7507   -0.2548 C.ar    1  LIG1        0.0215
     33 S          -5.9750    8.1323   -0.4720 S.2     1  LIG1       -0.0885
     34 H          -7.6059    9.9772   -0.3656 H       1  LIG1        0.0731
     35 O          -3.1353   10.6177    0.4683 O.3     1  LIG1       -0.5025
     36 H          -3.3638   11.5537    0.5673 H       1  LIG1        0.2923
     37 O          -5.5376   11.9331    0.2958 O.3     1  LIG1       -0.5029
     38 H          -6.4301   12.2911    0.2334 H       1  LIG1        0.2923
@<TRIPOS>BOND
     1    26    25    1
     2    27    22    1
     3    27    28    1
     4    25    21    1
     5     8     7    1
     6    33    32   ar
     7    33    29   ar
     8     9     3    1
     9     9    10    1
    10    22    21   ar
    11    22    23   ar
    12    21    20   ar
    13    34    32    1
    14     7     2    1
    15    32    31   ar
    16    15    14   ar
    17    15    11   ar
    18     3     2   ar
    19     3     4   ar
    20    23    29    1
    21    23    24   ar
    22     2     1   ar
    23    29    30   ar
    24    20    14    1
    25    20    24   ar
    26    14    13   ar
    27    31    30   ar
    28    31    37    1
    29     4    11    1
    30     4     5   ar
    31    30    35    1
    32    11    12   ar
    33     1     6    1
    34     1     5   ar
    35    19    18    1
    36    38    37    1
    37    13    12   ar
    38    13    18    1
    39    12    16    1
    40    35    36    1
    41    16    17    1
