@<TRIPOS>MOLECULE
mol_data/opt/cam/geoms/mol2/5ff5ff-5ff5ff.out
 38 41 0 0 0
SMALL
GASTEIGER

@<TRIPOS>ATOM
      1 C          -1.9662   -2.0659    0.1430 C.ar    1  LIG1        0.0215
      2 C          -0.6418   -1.9976   -0.1388 C.ar    1  LIG1        0.1661
      3 C          -0.1424   -0.6559   -0.1628 C.ar    1  LIG1        0.1740
      4 C          -1.0969    0.2869    0.1104 C.ar    1  LIG1        0.0747
      5 S          -2.6337   -0.4901    0.4190 S.2     1  LIG1       -0.0885
      6 H          -2.5793   -2.9501    0.2195 H       1  LIG1        0.0731
      7 O           0.1740   -3.0473   -0.3901 O.3     1  LIG1       -0.5029
      8 H           1.0578   -2.6781   -0.5372 H       1  LIG1        0.2923
      9 O           1.1639   -0.4936   -0.4838 O.3     1  LIG1       -0.5025
     10 H           1.4950    0.3479   -0.1136 H       1  LIG1        0.2923
     11 C          -0.9392    1.7251    0.1470 C.ar    1  LIG1        0.0753
     12 C           0.1902    2.4447    0.4027 C.ar    1  LIG1        0.1746
     13 C           0.0248    3.8554    0.3379 C.ar    1  LIG1        0.1746
     14 C          -1.2550    4.2349    0.0310 C.ar    1  LIG1        0.0753
     15 S          -2.2516    2.8187   -0.2271 S.2     1  LIG1       -0.0794
     16 O           1.4040    1.9046    0.7319 O.3     1  LIG1       -0.5025
     17 H           2.0296    2.6424    0.8088 H       1  LIG1        0.2923
     18 O           1.1088    4.6109    0.6343 O.3     1  LIG1       -0.5025
     19 H           1.0155    5.4985    0.2338 H       1  LIG1        0.2923
     20 C          -1.7836    5.5761   -0.0757 C.ar    1  LIG1        0.0753
     21 C          -1.1104    6.7274   -0.3609 C.ar    1  LIG1        0.1746
     22 C          -1.9147    7.8996   -0.3701 C.ar    1  LIG1        0.1746
     23 C          -3.2325    7.6512   -0.0940 C.ar    1  LIG1        0.0753
     24 S          -3.4648    5.9472    0.2308 S.2     1  LIG1       -0.0794
     25 O           0.2247    6.8007   -0.6539 O.3     1  LIG1       -0.5025
     26 H           0.4389    7.7403   -0.7677 H       1  LIG1        0.2923
     27 O          -1.2983    9.0605   -0.6960 O.3     1  LIG1       -0.5025
     28 H          -1.7989    9.8157   -0.3284 H       1  LIG1        0.2923
     29 C          -4.3287    8.5958   -0.0635 C.ar    1  LIG1        0.0747
     30 C          -4.2744    9.9347    0.1934 C.ar    1  LIG1        0.1740
     31 C          -5.5354   10.5927    0.1171 C.ar    1  LIG1        0.1661
     32 C          -6.5563    9.7527   -0.1854 C.ar    1  LIG1        0.0215
     33 S          -5.9773    8.1350   -0.4128 S.2     1  LIG1       -0.0885
     34 H          -7.6069    9.9799   -0.2887 H       1  LIG1        0.0731
     35 O          -3.1310   10.6158    0.5196 O.3     1  LIG1       -0.5025
     36 H          -3.3585   11.5514    0.6243 H       1  LIG1        0.2923
     37 O          -5.5340   11.9327    0.3673 O.3     1  LIG1       -0.5029
     38 H          -6.4274   12.2903    0.3168 H       1  LIG1        0.2923
@<TRIPOS>BOND
     1    26    25    1
     2    27    22    1
     3    27    28    1
     4    25    21    1
     5     8     7    1
     6     9     3    1
     7     9    10    1
     8    33    32   ar
     9    33    29   ar
    10     7     2    1
    11    22    21   ar
    12    22    23   ar
    13    21    20   ar
    14    34    32    1
    15    15    14   ar
    16    15    11   ar
    17    32    31   ar
    18     3     2   ar
    19     3     4   ar
    20     2     1   ar
    21    23    29    1
    22    23    24   ar
    23    20    14    1
    24    20    24   ar
    25    29    30   ar
    26    14    13   ar
    27     4    11    1
    28     4     5   ar
    29    31    30   ar
    30    31    37    1
    31     1     6    1
    32     1     5   ar
    33    11    12   ar
    34    30    35    1
    35    19    18    1
    36    38    37    1
    37    13    12   ar
    38    13    18    1
    39    12    16    1
    40    35    36    1
    41    16    17    1
