@<TRIPOS>MOLECULE
mol_data/opt/cam/geoms/mol2/5ff5ff5ff-5ff.out
 38 41 0 0 0
SMALL
GASTEIGER

@<TRIPOS>ATOM
      1 C          -1.7713   -1.9961    1.0068 C.ar    1  LIG1        0.0215
      2 C          -0.7059   -1.9898    0.1686 C.ar    1  LIG1        0.1661
      3 C          -0.2740   -0.6696   -0.1795 C.ar    1  LIG1        0.1740
      4 C          -1.0164    0.3199    0.4074 C.ar    1  LIG1        0.0747
      5 S          -2.2573   -0.3841    1.4198 S.2     1  LIG1       -0.0885
      6 H          -2.2841   -2.8527    1.4150 H       1  LIG1        0.0731
      7 O          -0.0784   -3.0800   -0.3299 O.3     1  LIG1       -0.5029
      8 H           0.6483   -2.7502   -0.8795 H       1  LIG1        0.2923
      9 O           0.7572   -0.5727   -1.0528 O.3     1  LIG1       -0.5025
     10 H           1.2158    0.2816   -0.9332 H       1  LIG1        0.2923
     11 C          -0.8644    1.7509    0.2526 C.ar    1  LIG1        0.0753
     12 C           0.2642    2.4488   -0.0599 C.ar    1  LIG1        0.1746
     13 C           0.0813    3.8536   -0.1821 C.ar    1  LIG1        0.1746
     14 C          -1.2054    4.2534    0.0639 C.ar    1  LIG1        0.0753
     15 S          -2.2025    2.8621    0.4345 S.2     1  LIG1       -0.0794
     16 O           1.5005    1.8926   -0.2456 O.3     1  LIG1       -0.5025
     17 H           2.1052    2.6171   -0.4710 H       1  LIG1        0.2923
     18 O           1.1664    4.5809   -0.5397 O.3     1  LIG1       -0.5025
     19 H           1.0691    5.5020   -0.2256 H       1  LIG1        0.2923
     20 C          -1.7380    5.5969    0.0306 C.ar    1  LIG1        0.0753
     21 C          -1.0702    6.7702    0.2240 C.ar    1  LIG1        0.1746
     22 C          -1.8683    7.9384    0.0855 C.ar    1  LIG1        0.1746
     23 C          -3.1800    7.6652   -0.1950 C.ar    1  LIG1        0.0753
     24 S          -3.4207    5.9347   -0.3049 S.2     1  LIG1       -0.0794
     25 O           0.2580    6.8711    0.5365 O.3     1  LIG1       -0.5025
     26 H           0.4628    7.8171    0.6044 H       1  LIG1        0.2923
     27 O          -1.2375    9.1293    0.2228 O.3     1  LIG1       -0.5025
     28 H          -1.8749    9.8098    0.5168 H       1  LIG1        0.2923
     29 C          -4.2615    8.6064   -0.3945 C.ar    1  LIG1        0.0747
     30 C          -4.3748    9.8701    0.1074 C.ar    1  LIG1        0.1740
     31 C          -5.5545   10.5548   -0.3027 C.ar    1  LIG1        0.1661
     32 C          -6.3499    9.8082   -1.1087 C.ar    1  LIG1        0.0215
     33 S          -5.6429    8.2539   -1.4043 S.2     1  LIG1       -0.0885
     34 H          -7.3019   10.0710   -1.5453 H       1  LIG1        0.0731
     35 O          -3.4664   10.4536    0.9506 O.3     1  LIG1       -0.5025
     36 H          -3.7682   11.3541    1.1408 H       1  LIG1        0.2923
     37 O          -5.7154   11.8213    0.1751 O.3     1  LIG1       -0.5029
     38 H          -6.5490   12.1974   -0.1286 H       1  LIG1        0.2923
@<TRIPOS>BOND
     1    34    32    1
     2    33    32   ar
     3    33    29   ar
     4    32    31   ar
     5     9    10    1
     6     9     3    1
     7     8     7    1
     8    18    19    1
     9    18    13    1
    10    17    16    1
    11    29    23    1
    12    29    30   ar
    13     7     2    1
    14    24    23   ar
    15    24    20   ar
    16    31    30   ar
    17    31    37    1
    18    16    12    1
    19    23    22   ar
    20    13    12   ar
    21    13    14   ar
    22     3     2   ar
    23     3     4   ar
    24    38    37    1
    25    12    11   ar
    26    20    14    1
    27    20    21   ar
    28    14    15   ar
    29    22    27    1
    30    22    21   ar
    31    30    35    1
    32     2     1   ar
    33    27    28    1
    34    21    25    1
    35    11     4    1
    36    11    15   ar
    37     4     5   ar
    38    25    26    1
    39    35    36    1
    40     1     6    1
    41     1     5   ar
