@<TRIPOS>MOLECULE
mol_data/opt/cam/geoms/mol2/5ff5ff.out
 20 21 0 0 0
SMALL
GASTEIGER

@<TRIPOS>ATOM
      1 C          -2.0736   -1.8400    0.2759 C.ar    1  LIG1        0.0215
      2 C          -0.7567   -1.8024   -0.0437 C.ar    1  LIG1        0.1661
      3 C          -0.2490   -0.4691   -0.1687 C.ar    1  LIG1        0.1740
      4 C          -1.1894    0.4971    0.0652 C.ar    1  LIG1        0.0747
      5 S          -2.7224   -0.2437    0.4639 S.2     1  LIG1       -0.0885
      6 H          -2.6906   -2.7117    0.4275 H       1  LIG1        0.0731
      7 O           0.0442   -2.8737   -0.2451 O.3     1  LIG1       -0.5029
      8 H           0.9273   -2.5246   -0.4378 H       1  LIG1        0.2923
      9 O           1.0502   -0.3376   -0.5311 O.3     1  LIG1       -0.5025
     10 H           1.3983    0.5156   -0.2086 H       1  LIG1        0.2923
     11 C          -1.0211    1.9349   -0.0015 C.ar    1  LIG1        0.0747
     12 C           0.1165    2.6586    0.2037 C.ar    1  LIG1        0.1740
     13 C          -0.0481    4.0632    0.0291 C.ar    1  LIG1        0.1661
     14 C          -1.3163    4.4147   -0.2977 C.ar    1  LIG1        0.0215
     15 S          -2.3282    3.0131   -0.4277 S.2     1  LIG1       -0.0885
     16 H          -1.7180    5.4024   -0.4685 H       1  LIG1        0.0731
     17 O           1.3233    2.1202    0.5665 O.3     1  LIG1       -0.5025
     18 H           1.9697    2.8396    0.6136 H       1  LIG1        0.2923
     19 O           1.0611    4.8320    0.2261 O.3     1  LIG1       -0.5029
     20 H           0.8556    5.7643    0.0953 H       1  LIG1        0.2923
@<TRIPOS>BOND
     1     9    10    1
     2     9     3    1
     3    16    14    1
     4     8     7    1
     5    15    14   ar
     6    15    11   ar
     7    14    13   ar
     8     7     2    1
     9     3     2   ar
    10     3     4   ar
    11     2     1   ar
    12    11     4    1
    13    11    12   ar
    14    13    12   ar
    15    13    19    1
    16     4     5   ar
    17    20    19    1
    18    12    17    1
    19     1     6    1
    20     1     5   ar
    21    17    18    1
