@<TRIPOS>MOLECULE
mol_data/opt/cam/geoms/mol2/5ff5ff-5ff-5ff-.out
 38 41 0 0 0
SMALL
GASTEIGER

@<TRIPOS>ATOM
      1 C          -1.7979   -2.0617    0.6604 C.ar    1  LIG1        0.0215
      2 C          -0.6835   -1.9921   -0.1085 C.ar    1  LIG1        0.1661
      3 C          -0.2429   -0.6489   -0.3368 C.ar    1  LIG1        0.1740
      4 C          -1.0282    0.2939    0.2707 C.ar    1  LIG1        0.0747
      5 S          -2.3222   -0.4847    1.1537 S.2     1  LIG1       -0.0885
      6 H          -2.3270   -2.9470    0.9761 H       1  LIG1        0.0731
      7 O          -0.0174   -3.0420   -0.6420 O.3     1  LIG1       -0.5029
      8 H           0.7385   -2.6713   -1.1219 H       1  LIG1        0.2923
      9 O           0.8387   -0.4865   -1.1366 O.3     1  LIG1       -0.5025
     10 H           1.2824    0.3587   -0.9289 H       1  LIG1        0.2923
     11 C          -0.8798    1.7328    0.2257 C.ar    1  LIG1        0.0753
     12 C           0.2596    2.4561    0.0324 C.ar    1  LIG1        0.1746
     13 C           0.0721    3.8651   -0.0015 C.ar    1  LIG1        0.1746
     14 C          -1.2303    4.2409    0.1938 C.ar    1  LIG1        0.0753
     15 S          -2.2360    2.8224    0.4037 S.2     1  LIG1       -0.0794
     16 O           1.5097    1.9198   -0.1157 O.3     1  LIG1       -0.5025
     17 H           2.1212    2.6608   -0.2507 H       1  LIG1        0.2923
     18 O           1.1701    4.6216   -0.2391 O.3     1  LIG1       -0.5025
     19 H           1.0431    5.5181    0.1310 H       1  LIG1        0.2923
     20 C          -1.7735    5.5801    0.2266 C.ar    1  LIG1        0.0753
     21 C          -1.1299    6.7432    0.5323 C.ar    1  LIG1        0.1746
     22 C          -1.9389    7.9094    0.4509 C.ar    1  LIG1        0.1746
     23 C          -3.2304    7.6448    0.0816 C.ar    1  LIG1        0.0753
     24 S          -3.4277    5.9320   -0.2183 S.2     1  LIG1       -0.0794
     25 O           0.1780    6.8335    0.9248 O.3     1  LIG1       -0.5025
     26 H           0.3772    7.7770    1.0335 H       1  LIG1        0.2923
     27 O          -1.3556    9.0822    0.7949 O.3     1  LIG1       -0.5025
     28 H          -1.8315    9.8248    0.3730 H       1  LIG1        0.2923
     29 C          -4.3267    8.5802   -0.0533 C.ar    1  LIG1        0.0747
     30 C          -4.2611    9.9134   -0.3361 C.ar    1  LIG1        0.1740
     31 C          -5.5280   10.5634   -0.3693 C.ar    1  LIG1        0.1661
     32 C          -6.5639    9.7228   -0.1245 C.ar    1  LIG1        0.0215
     33 S          -5.9941    8.1150    0.1826 S.2     1  LIG1       -0.0885
     34 H          -7.6206    9.9443   -0.1053 H       1  LIG1        0.0731
     35 O          -3.1004   10.5957   -0.5910 O.3     1  LIG1       -0.5025
     36 H          -3.3249   11.5271   -0.7333 H       1  LIG1        0.2923
     37 O          -5.5157   11.8974   -0.6496 O.3     1  LIG1       -0.5029
     38 H          -6.4121   12.2505   -0.6686 H       1  LIG1        0.2923
@<TRIPOS>BOND
     1     9    10    1
     2     9     3    1
     3     8     7    1
     4    36    35    1
     5    38    37    1
     6    37    31    1
     7     7     2    1
     8    35    30    1
     9    31    30   ar
    10    31    32   ar
    11     3     2   ar
    12     3     4   ar
    13    30    29   ar
    14    17    16    1
    15    18    13    1
    16    18    19    1
    17    24    23   ar
    18    24    20   ar
    19    32    34    1
    20    32    33   ar
    21    16    12    1
    22     2     1   ar
    23    29    23    1
    24    29    33   ar
    25    13    12   ar
    26    13    14   ar
    27    12    11   ar
    28    23    22   ar
    29    14    20    1
    30    14    15   ar
    31    11     4    1
    32    11    15   ar
    33    20    21   ar
    34     4     5   ar
    35    28    27    1
    36    22    21   ar
    37    22    27    1
    38    21    25    1
    39     1     6    1
    40     1     5   ar
    41    25    26    1
