@<TRIPOS>MOLECULE
mol_data/opt/cam/geoms/mol2/5ff5ff5ff-.out
 29 31 0 0 0
SMALL
GASTEIGER

@<TRIPOS>ATOM
      1 C          -1.9742   -1.9353    0.6132 C.ar    1  LIG1        0.0215
      2 C          -0.7553   -1.9073    0.0204 C.ar    1  LIG1        0.1661
      3 C          -0.2700   -0.5783   -0.2006 C.ar    1  LIG1        0.1740
      4 C          -1.1280    0.3955    0.2357 C.ar    1  LIG1        0.0747
      5 S          -2.5498   -0.3346    0.9467 S.2     1  LIG1       -0.0885
      6 H          -2.5549   -2.8024    0.8858 H       1  LIG1        0.0731
      7 O          -0.0281   -2.9843   -0.3556 O.3     1  LIG1       -0.5029
      8 H           0.7968   -2.6410   -0.7308 H       1  LIG1        0.2923
      9 O           0.9221   -0.4584   -0.8329 O.3     1  LIG1       -0.5025
     10 H           1.3385    0.3941   -0.6002 H       1  LIG1        0.2923
     11 C          -0.9586    1.8301    0.1457 C.ar    1  LIG1        0.0753
     12 C           0.2045    2.5393    0.0953 C.ar    1  LIG1        0.1746
     13 C           0.0383    3.9459   -0.0336 C.ar    1  LIG1        0.1746
     14 C          -1.2740    4.3340   -0.0592 C.ar    1  LIG1        0.0753
     15 S          -2.3145    2.9311    0.0616 S.2     1  LIG1       -0.0794
     16 O           1.4564    1.9920    0.1664 O.3     1  LIG1       -0.5025
     17 H           2.0902    2.7228    0.0926 H       1  LIG1        0.2923
     18 O           1.1670    4.6885   -0.1341 O.3     1  LIG1       -0.5025
     19 H           0.9952    5.5964    0.1848 H       1  LIG1        0.2923
     20 C          -1.8024    5.6764   -0.1777 C.ar    1  LIG1        0.0747
     21 C          -1.2085    6.8474    0.1934 C.ar    1  LIG1        0.1740
     22 C          -1.9849    8.0079   -0.0878 C.ar    1  LIG1        0.1661
     23 C          -3.1795    7.7228   -0.6631 C.ar    1  LIG1        0.0215
     24 S          -3.3574    6.0150   -0.8991 S.2     1  LIG1       -0.0885
     25 H          -3.9629    8.4038   -0.9608 H       1  LIG1        0.0731
     26 O           0.0148    6.9367    0.8044 O.3     1  LIG1       -0.5025
     27 H           0.2161    7.8747    0.9370 H       1  LIG1        0.2923
     28 O          -1.4355    9.2040    0.2679 O.3     1  LIG1       -0.5029
     29 H          -2.0345    9.9295    0.0596 H       1  LIG1        0.2923
@<TRIPOS>BOND
     1    25    23    1
     2    24    23   ar
     3    24    20   ar
     4     9    10    1
     5     9     3    1
     6     8     7    1
     7    23    22   ar
     8     7     2    1
     9     3     2   ar
    10     3     4   ar
    11    20    14    1
    12    20    21   ar
    13    18    13    1
    14    18    19    1
    15    22    21   ar
    16    22    28    1
    17    14    13   ar
    18    14    15   ar
    19    13    12   ar
    20     2     1   ar
    21    29    28    1
    22    15    11   ar
    23    17    16    1
    24    12    11   ar
    25    12    16    1
    26    11     4    1
    27    21    26    1
    28     4     5   ar
    29     1     6    1
    30     1     5   ar
    31    26    27    1
