@<TRIPOS>MOLECULE
mol_data/opt/cam/geoms/mol2/5fg.out
 11 11 0 0 0
SMALL
GASTEIGER

@<TRIPOS>ATOM
      1 C          -2.0970   -1.7323   -0.1347 C.ar    1  LIG1        0.0183
      2 C          -0.7479   -1.6069   -0.0104 C.ar    1  LIG1        0.1369
      3 C          -0.3373   -0.2434    0.1891 C.ar    1  LIG1        0.0533
      4 C          -1.3913    0.6187    0.2269 C.ar    1  LIG1       -0.0075
      5 S          -2.8829   -0.1985    0.0007 S.2     1  LIG1       -0.1002
      6 H          -2.6593   -2.6395   -0.2908 H       1  LIG1        0.0730
      7 H          -1.3571    1.6879    0.3748 H       1  LIG1        0.0705
      8 O           0.1145   -2.6438   -0.0736 O.3     1  LIG1       -0.5051
      9 H           0.9976   -2.3052    0.1422 H       1  LIG1        0.2922
     10 S           1.3656    0.1969    0.4331 S.3     1  LIG1       -0.1386
     11 H           1.7042    0.3706   -0.8591 H       1  LIG1        0.1072
@<TRIPOS>BOND
     1    11    10    1
     2     6     1    1
     3     1     2   ar
     4     1     5   ar
     5     8     2    1
     6     8     9    1
     7     2     3   ar
     8     5     4   ar
     9     3     4   ar
    10     3    10    1
    11     4     7    1
