@<TRIPOS>MOLECULE
mol_data/opt/cam/geoms/mol2/5fg5fg-5fg-5fg-.out
 38 41 0 0 0
SMALL
GASTEIGER

@<TRIPOS>ATOM
      1 C          -1.2457   -1.9105    1.3917 C.ar    1  LIG1        0.0189
      2 C          -0.7453   -1.9324    0.1275 C.ar    1  LIG1        0.1376
      3 C          -0.5475   -0.6195   -0.4197 C.ar    1  LIG1        0.0617
      4 C          -0.8816    0.3789    0.4582 C.ar    1  LIG1        0.0462
      5 S          -1.4455   -0.2925    1.9591 S.2     1  LIG1       -0.0912
      6 H          -1.4904   -2.7581    2.0126 H       1  LIG1        0.0731
      7 O          -0.4790   -3.0686   -0.5533 O.3     1  LIG1       -0.5051
      8 H          -0.0397   -2.8188   -1.3816 H       1  LIG1        0.2922
      9 S          -0.0245   -0.4311   -2.1025 S.3     1  LIG1       -0.1380
     10 H           1.0773    0.3033   -1.8561 H       1  LIG1        0.1072
     11 C          -0.7819    1.8155    0.2703 C.ar    1  LIG1        0.0701
     12 C           0.2873    2.5353   -0.1890 C.ar    1  LIG1        0.1458
     13 C           0.0507    3.9456   -0.2537 C.ar    1  LIG1        0.0623
     14 C          -1.1932    4.2968    0.2013 C.ar    1  LIG1        0.0468
     15 S          -2.0906    2.8903    0.6849 S.2     1  LIG1       -0.0822
     16 O           1.4700    1.9731   -0.5346 O.3     1  LIG1       -0.5045
     17 H           2.0988    2.6946   -0.7043 H       1  LIG1        0.2922
     18 S           1.2830    5.0153   -0.9439 S.3     1  LIG1       -0.1380
     19 H           1.4258    5.8171    0.1290 H       1  LIG1        0.1072
     20 C          -1.7669    5.6249    0.3266 C.ar    1  LIG1        0.0702
     21 C          -1.2142    6.7356    0.9055 C.ar    1  LIG1        0.1458
     22 C          -2.0774    7.8775    0.9028 C.ar    1  LIG1        0.0623
     23 C          -3.2850    7.6287    0.3047 C.ar    1  LIG1        0.0468
     24 S          -3.3634    5.9929   -0.2690 S.2     1  LIG1       -0.0822
     25 O           0.0122    6.7457    1.4778 O.3     1  LIG1       -0.5045
     26 H           0.1840    7.6523    1.7848 H       1  LIG1        0.2922
     27 S          -1.5852    9.3618    1.7363 S.3     1  LIG1       -0.1380
     28 H          -1.6194   10.1755    0.6639 H       1  LIG1        0.1072
     29 C          -4.3877    8.5488    0.0886 C.ar    1  LIG1        0.0696
     30 C          -4.3418    9.8092   -0.4456 C.ar    1  LIG1        0.1452
     31 C          -5.6298   10.4306   -0.5422 C.ar    1  LIG1        0.0539
     32 C          -6.6283    9.6313   -0.0747 C.ar    1  LIG1       -0.0069
     33 S          -6.0345    8.1225    0.4795 S.2     1  LIG1       -0.0912
     34 H          -7.6822    9.8635   -0.0271 H       1  LIG1        0.0706
     35 O          -3.2046   10.3988   -0.8777 O.3     1  LIG1       -0.5045
     36 H          -3.4375   11.2905   -1.1870 H       1  LIG1        0.2922
     37 S          -5.8198   12.0818   -1.1667 S.3     1  LIG1       -0.1386
     38 H          -6.0349   11.7695   -2.4592 H       1  LIG1        0.1072
@<TRIPOS>BOND
     1    38    37    1
     2     9    10    1
     3     9     3    1
     4     8     7    1
     5    36    35    1
     6    37    31    1
     7    18    13    1
     8    18    19    1
     9    35    30    1
    10    17    16    1
    11     7     2    1
    12    31    30   ar
    13    31    32   ar
    14    16    12    1
    15    30    29   ar
    16     3     2   ar
    17     3     4   ar
    18    24    23   ar
    19    24    20   ar
    20    13    12   ar
    21    13    14   ar
    22    12    11   ar
    23    32    34    1
    24    32    33   ar
    25    29    23    1
    26    29    33   ar
    27     2     1   ar
    28    14    20    1
    29    14    15   ar
    30    11     4    1
    31    11    15   ar
    32    23    22   ar
    33    20    21   ar
    34     4     5   ar
    35    28    27    1
    36    22    21   ar
    37    22    27    1
    38    21    25    1
    39     1     5   ar
    40     1     6    1
    41    25    26    1
