@<TRIPOS>MOLECULE
mol_data/opt/cam/geoms/mol2/5fg5fg5fg5fg.out
 38 41 0 0 0
SMALL
GASTEIGER

@<TRIPOS>ATOM
      1 C          -1.9420   -2.0120    0.2159 C.ar    1  LIG1        0.0189
      2 C          -0.6668   -1.9360   -0.2499 C.ar    1  LIG1        0.1376
      3 C          -0.1797   -0.5876   -0.3323 C.ar    1  LIG1        0.0617
      4 C          -1.0944    0.3364    0.1016 C.ar    1  LIG1        0.0462
      5 S          -2.5614   -0.4485    0.6056 S.2     1  LIG1       -0.0912
      6 H          -2.5337   -2.9026    0.3590 H       1  LIG1        0.0731
      7 O           0.0622   -3.0128   -0.6168 O.3     1  LIG1       -0.5051
      8 H           0.9628   -2.7069   -0.8086 H       1  LIG1        0.2922
      9 S           1.4145   -0.2627   -1.0347 S.3     1  LIG1       -0.1380
     10 H           1.9290    0.3974    0.0205 H       1  LIG1        0.1072
     11 C          -0.9485    1.7787    0.1965 C.ar    1  LIG1        0.0701
     12 C           0.0719    2.4942    0.7620 C.ar    1  LIG1        0.1458
     13 C          -0.1250    3.9117    0.7224 C.ar    1  LIG1        0.0623
     14 C          -1.2964    4.2689    0.1072 C.ar    1  LIG1        0.0468
     15 S          -2.1586    2.8629   -0.4353 S.2     1  LIG1       -0.0822
     16 O           1.1461    1.9202    1.3544 O.3     1  LIG1       -0.5045
     17 H           1.7405    2.6361    1.6361 H       1  LIG1        0.2922
     18 S           1.0229    4.9866    1.5391 S.3     1  LIG1       -0.1380
     19 H           1.3784    5.7048    0.4568 H       1  LIG1        0.1072
     20 C          -1.8131    5.6020   -0.1434 C.ar    1  LIG1        0.0702
     21 C          -1.1595    6.6751   -0.6878 C.ar    1  LIG1        0.1458
     22 C          -1.9855    7.8341   -0.8425 C.ar    1  LIG1        0.0623
     23 C          -3.2671    7.6366   -0.3990 C.ar    1  LIG1        0.0468
     24 S          -3.4634    6.0283    0.2225 S.2     1  LIG1       -0.0822
     25 O           0.1296    6.6346   -1.0956 O.3     1  LIG1       -0.5045
     26 H           0.3629    7.5228   -1.4154 H       1  LIG1        0.2922
     27 S          -1.3506    9.2716   -1.6613 S.3     1  LIG1       -0.1380
     28 H          -1.4973   10.1285   -0.6330 H       1  LIG1        0.1072
     29 C          -4.3635    8.5884   -0.3651 C.ar    1  LIG1        0.0696
     30 C          -4.3541    9.8682    0.1227 C.ar    1  LIG1        0.1452
     31 C          -5.6268   10.5206    0.0258 C.ar    1  LIG1        0.0539
     32 C          -6.5765    9.7246   -0.5388 C.ar    1  LIG1       -0.0069
     33 S          -5.9559    8.1821   -0.9533 S.2     1  LIG1       -0.0912
     34 H          -7.6086    9.9774   -0.7334 H       1  LIG1        0.0706
     35 O          -3.2678   10.4503    0.6782 O.3     1  LIG1       -0.5045
     36 H          -3.5151   11.3588    0.9202 H       1  LIG1        0.2922
     37 S          -5.8530   12.1992    0.5584 S.3     1  LIG1       -0.1386
     38 H          -6.2413   11.9433    1.8226 H       1  LIG1        0.1072
@<TRIPOS>BOND
     1    27    22    1
     2    27    28    1
     3    26    25    1
     4    25    21    1
     5     9     3    1
     6     9    10    1
     7    33    32   ar
     8    33    29   ar
     9    22    21   ar
    10    22    23   ar
    11     8     7    1
    12    34    32    1
    13    21    20   ar
    14     7     2    1
    15    32    31   ar
    16    15    14   ar
    17    15    11   ar
    18    23    29    1
    19    23    24   ar
    20    29    30   ar
    21     3     2   ar
    22     3     4   ar
    23     2     1   ar
    24    20    14    1
    25    20    24   ar
    26    31    30   ar
    27    31    37    1
    28     4    11    1
    29     4     5   ar
    30    14    13   ar
    31    30    35    1
    32    11    12   ar
    33     1     6    1
    34     1     5   ar
    35    19    18    1
    36    37    38    1
    37    35    36    1
    38    13    12   ar
    39    13    18    1
    40    12    16    1
    41    16    17    1
