@<TRIPOS>MOLECULE
mol_data/opt/cam/geoms/mol2/5fg5fg-.out
 20 21 0 0 0
SMALL
GASTEIGER

@<TRIPOS>ATOM
      1 C          -2.0205   -1.7523    0.6365 C.ar    1  LIG1        0.0189
      2 C          -0.7931   -1.7922    0.0523 C.ar    1  LIG1        0.1376
      3 C          -0.3110   -0.4934   -0.3262 C.ar    1  LIG1        0.0617
      4 C          -1.1802    0.5135    0.0033 C.ar    1  LIG1        0.0462
      5 S          -2.5960   -0.1311    0.7767 S.2     1  LIG1       -0.0912
      6 H          -2.5998   -2.5875    0.9980 H       1  LIG1        0.0731
      7 O          -0.1054   -2.9336   -0.1672 O.3     1  LIG1       -0.5051
      8 H           0.7724   -2.6901   -0.5012 H       1  LIG1        0.2922
      9 S           1.2159   -0.3352   -1.2120 S.3     1  LIG1       -0.1380
     10 H           1.8359    0.4737   -0.3320 H       1  LIG1        0.1072
     11 C          -1.0189    1.9448   -0.1931 C.ar    1  LIG1        0.0695
     12 C           0.0487    2.7315    0.1460 C.ar    1  LIG1        0.1452
     13 C          -0.1392    4.1153   -0.1786 C.ar    1  LIG1        0.0539
     14 C          -1.3456    4.3530   -0.7637 C.ar    1  LIG1       -0.0069
     15 S          -2.2687    2.9181   -0.9259 S.2     1  LIG1       -0.0912
     16 H          -1.7285    5.3025   -1.1078 H       1  LIG1        0.0706
     17 O           1.1599    2.2627    0.7601 O.3     1  LIG1       -0.5045
     18 H           1.7766    3.0078    0.8554 H       1  LIG1        0.2922
     19 S           1.1249    5.3233    0.1305 S.3     1  LIG1       -0.1386
     20 H           0.7318    5.6965    1.3637 H       1  LIG1        0.1072
@<TRIPOS>BOND
     1     9    10    1
     2     9     3    1
     3    16    14    1
     4    15    14   ar
     5    15    11   ar
     6    14    13   ar
     7     8     7    1
     8     3     4   ar
     9     3     2   ar
    10    11     4    1
    11    11    12   ar
    12    13    19    1
    13    13    12   ar
    14     7     2    1
    15     4     5   ar
    16     2     1   ar
    17    19    20    1
    18    12    17    1
    19     1     5   ar
    20     1     6    1
    21    17    18    1
