@<TRIPOS>MOLECULE
mol_data/opt/cam/geoms/mol2/5fg5fg-5fg5fg-.out
 38 41 0 0 0
SMALL
GASTEIGER

@<TRIPOS>ATOM
      1 C          -1.9055   -1.9959    0.2194 C.ar    1  LIG1        0.0189
      2 C          -0.6370   -1.9184   -0.2643 C.ar    1  LIG1        0.1376
      3 C          -0.1558   -0.5687   -0.3621 C.ar    1  LIG1        0.0617
      4 C          -1.0680    0.3548    0.0777 C.ar    1  LIG1        0.0462
      5 S          -2.5253   -0.4319    0.6069 S.2     1  LIG1       -0.0912
      6 H          -2.4923   -2.8875    0.3756 H       1  LIG1        0.0731
      7 O           0.0909   -2.9949   -0.6336 O.3     1  LIG1       -0.5051
      8 H           0.9869   -2.6867   -0.8426 H       1  LIG1        0.2922
      9 S           1.4276   -0.2426   -1.0877 S.3     1  LIG1       -0.1380
     10 H           1.9553    0.4224   -0.0423 H       1  LIG1        0.1072
     11 C          -0.9254    1.7982    0.1621 C.ar    1  LIG1        0.0701
     12 C           0.0970    2.5208    0.7141 C.ar    1  LIG1        0.1458
     13 C          -0.1122    3.9366    0.6794 C.ar    1  LIG1        0.0623
     14 C          -1.2877    4.2887    0.0686 C.ar    1  LIG1        0.0468
     15 S          -2.1495    2.8769   -0.4534 S.2     1  LIG1       -0.0822
     16 O           1.1810    1.9580    1.2981 O.3     1  LIG1       -0.5045
     17 H           1.7825    2.6824    1.5423 H       1  LIG1        0.2922
     18 S           1.0679    5.0509    1.3982 S.3     1  LIG1       -0.1380
     19 H           0.6735    4.9009    2.6786 H       1  LIG1        0.1072
     20 C          -1.8159    5.6172   -0.1896 C.ar    1  LIG1        0.0702
     21 C          -1.1797    6.6669   -0.7966 C.ar    1  LIG1        0.1458
     22 C          -2.0061    7.8286   -0.9384 C.ar    1  LIG1        0.0623
     23 C          -3.2652    7.6533   -0.4263 C.ar    1  LIG1        0.0468
     24 S          -3.4448    6.0617    0.2426 S.2     1  LIG1       -0.0822
     25 O           0.0811    6.5936   -1.2596 O.3     1  LIG1       -0.5045
     26 H           0.3455    7.4808   -1.5524 H       1  LIG1        0.2922
     27 S          -1.3991    9.2448   -1.8138 S.3     1  LIG1       -0.1380
     28 H          -1.5413   10.1313   -0.8104 H       1  LIG1        0.1072
     29 C          -4.3544    8.6126   -0.3648 C.ar    1  LIG1        0.0696
     30 C          -4.3194    9.9037    0.0905 C.ar    1  LIG1        0.1452
     31 C          -5.5922   10.5604    0.0320 C.ar    1  LIG1        0.0539
     32 C          -6.5689    9.7561   -0.4715 C.ar    1  LIG1       -0.0069
     33 S          -5.9725    8.2009   -0.8743 S.2     1  LIG1       -0.0912
     34 H          -7.6073   10.0094   -0.6275 H       1  LIG1        0.0706
     35 O          -3.2075   10.4942    0.5842 O.3     1  LIG1       -0.5045
     36 H          -3.4390   11.4116    0.8075 H       1  LIG1        0.2922
     37 S          -5.7882   12.2530    0.5313 S.3     1  LIG1       -0.1386
     38 H          -6.1191   12.0312    1.8180 H       1  LIG1        0.1072
@<TRIPOS>BOND
     1    27    22    1
     2    27    28    1
     3    26    25    1
     4    25    21    1
     5     9     3    1
     6     9    10    1
     7    22    21   ar
     8    22    23   ar
     9    33    32   ar
    10    33    29   ar
    11     8     7    1
    12    21    20   ar
    13     7     2    1
    14    34    32    1
    15    32    31   ar
    16    15    14   ar
    17    15    11   ar
    18    23    29    1
    19    23    24   ar
    20    29    30   ar
    21     3     2   ar
    22     3     4   ar
    23     2     1   ar
    24    20    14    1
    25    20    24   ar
    26    31    30   ar
    27    31    37    1
    28    14    13   ar
    29     4    11    1
    30     4     5   ar
    31    30    35    1
    32    11    12   ar
    33     1     6    1
    34     1     5   ar
    35    37    38    1
    36    35    36    1
    37    13    12   ar
    38    13    18    1
    39    12    16    1
    40    16    17    1
    41    18    19    1
