@<TRIPOS>MOLECULE
mol_data/opt/cam/geoms/mol2/5fg5fg-5fg.out
 29 31 0 0 0
SMALL
GASTEIGER

@<TRIPOS>ATOM
      1 C          -1.8744   -1.7315    1.1934 C.ar    1  LIG1        0.0189
      2 C          -0.9059   -1.8543    0.2467 C.ar    1  LIG1        0.1376
      3 C          -0.4594   -0.5891   -0.2653 C.ar    1  LIG1        0.0617
      4 C          -1.0869    0.4759    0.3272 C.ar    1  LIG1        0.0462
      5 S          -2.2325   -0.0735    1.5131 S.2     1  LIG1       -0.0912
      6 H          -2.3776   -2.5269    1.7206 H       1  LIG1        0.0731
      7 O          -0.4254   -3.0412   -0.1835 O.3     1  LIG1       -0.5051
      8 H           0.3196   -2.8593   -0.7779 H       1  LIG1        0.2922
      9 S           0.7066   -0.5344   -1.5988 S.3     1  LIG1       -0.1380
     10 H           1.6388    0.2133   -0.9776 H       1  LIG1        0.1072
     11 C          -0.8716    1.8930    0.0929 C.ar    1  LIG1        0.0701
     12 C           0.3155    2.5730    0.0600 C.ar    1  LIG1        0.1458
     13 C           0.1723    3.9737   -0.1987 C.ar    1  LIG1        0.0623
     14 C          -1.1365    4.3597   -0.3226 C.ar    1  LIG1        0.0468
     15 S          -2.1988    2.9976   -0.1462 S.2     1  LIG1       -0.0822
     16 O           1.5163    1.9838    0.2707 O.3     1  LIG1       -0.5045
     17 H           2.1848    2.6879    0.3162 H       1  LIG1        0.2922
     18 S           1.6120    4.9881   -0.3941 S.3     1  LIG1       -0.1380
     19 H           1.3361    5.8597    0.5948 H       1  LIG1        0.1072
     20 C          -1.6649    5.6953   -0.5420 C.ar    1  LIG1        0.0696
     21 C          -1.3667    6.8449    0.1394 C.ar    1  LIG1        0.1452
     22 C          -2.0971    7.9869   -0.3265 C.ar    1  LIG1        0.0539
     23 C          -2.9335    7.6829   -1.3573 C.ar    1  LIG1       -0.0069
     24 S          -2.8566    6.0227   -1.7748 S.2     1  LIG1       -0.0912
     25 H          -3.5850    8.3596   -1.8905 H       1  LIG1        0.0706
     26 O          -0.4985    6.8981    1.1755 O.3     1  LIG1       -0.5045
     27 H          -0.4422    7.8254    1.4617 H       1  LIG1        0.2922
     28 S          -1.8496    9.5983    0.3767 S.3     1  LIG1       -0.1386
     29 H          -2.8102    9.5416    1.3193 H       1  LIG1        0.1072
@<TRIPOS>BOND
     1    25    23    1
     2    24    23   ar
     3    24    20   ar
     4     9    10    1
     5     9     3    1
     6    23    22   ar
     7     8     7    1
     8    20    14    1
     9    20    21   ar
    10    18    13    1
    11    18    19    1
    12    22    21   ar
    13    22    28    1
    14    14    13   ar
    15    14    15   ar
    16     3     2   ar
    17     3     4   ar
    18    13    12   ar
    19     7     2    1
    20    15    11   ar
    21    12    11   ar
    22    12    16    1
    23    11     4    1
    24    21    26    1
    25     2     1   ar
    26    16    17    1
    27     4     5   ar
    28    28    29    1
    29    26    27    1
    30     1     5   ar
    31     1     6    1
