@<TRIPOS>MOLECULE
mol_data/opt/cam/geoms/mol2/5fg5fg-5fg-5fg.out
 38 41 0 0 0
SMALL
GASTEIGER

@<TRIPOS>ATOM
      1 C          -1.2500   -1.8699    1.4543 C.ar    1  LIG1        0.0189
      2 C          -0.6939   -1.9118    0.2141 C.ar    1  LIG1        0.1376
      3 C          -0.4849   -0.6082   -0.3508 C.ar    1  LIG1        0.0617
      4 C          -0.8671    0.4041    0.4908 C.ar    1  LIG1        0.0462
      5 S          -1.4905   -0.2429    1.9789 S.2     1  LIG1       -0.0912
      6 H          -1.5137   -2.7074    2.0811 H       1  LIG1        0.0731
      7 O          -0.3866   -3.0586   -0.4306 O.3     1  LIG1       -0.5051
      8 H           0.0859   -2.8210   -1.2441 H       1  LIG1        0.2922
      9 S           0.1102   -0.4483   -2.0125 S.3     1  LIG1       -0.1380
     10 H           1.1928    0.3027   -1.7328 H       1  LIG1        0.1072
     11 C          -0.7723    1.8376    0.2786 C.ar    1  LIG1        0.0701
     12 C           0.3097    2.5590   -0.1469 C.ar    1  LIG1        0.1458
     13 C           0.0639    3.9656   -0.2490 C.ar    1  LIG1        0.0623
     14 C          -1.2022    4.3132    0.1433 C.ar    1  LIG1        0.0468
     15 S          -2.1079    2.9073    0.6135 S.2     1  LIG1       -0.0822
     16 O           1.5116    2.0020   -0.4286 O.3     1  LIG1       -0.5045
     17 H           2.1400    2.7265   -0.5874 H       1  LIG1        0.2922
     18 S           1.3163    5.0346   -0.9028 S.3     1  LIG1       -0.1380
     19 H           1.4086    5.8528    0.1631 H       1  LIG1        0.1072
     20 C          -1.7906    5.6386    0.2200 C.ar    1  LIG1        0.0702
     21 C          -1.2756    6.7607    0.8106 C.ar    1  LIG1        0.1458
     22 C          -2.1509    7.8922    0.7594 C.ar    1  LIG1        0.0623
     23 C          -3.3232    7.6311    0.0987 C.ar    1  LIG1        0.0468
     24 S          -3.3622    5.9870   -0.4505 S.2     1  LIG1       -0.0822
     25 O          -0.0793    6.7914    1.4419 O.3     1  LIG1       -0.5045
     26 H           0.0776    7.7118    1.7154 H       1  LIG1        0.2922
     27 S          -1.6959    9.4315    1.5171 S.3     1  LIG1       -0.1380
     28 H          -2.0329    9.0975    2.7790 H       1  LIG1        0.1072
     29 C          -4.4206    8.5373   -0.1946 C.ar    1  LIG1        0.0696
     30 C          -4.3488    9.7662   -0.7958 C.ar    1  LIG1        0.1452
     31 C          -5.6329   10.3846   -0.9611 C.ar    1  LIG1        0.0539
     32 C          -6.6513    9.6002   -0.5114 C.ar    1  LIG1       -0.0069
     33 S          -6.0819    8.1242    0.1474 S.2     1  LIG1       -0.0912
     34 H          -7.7072    9.8270   -0.5325 H       1  LIG1        0.0706
     35 O          -3.1968   10.3209   -1.2103 O.3     1  LIG1       -0.5045
     36 H          -3.4125   11.1395   -1.6856 H       1  LIG1        0.2922
     37 S          -5.8155   11.9578   -1.7629 S.3     1  LIG1       -0.1386
     38 H          -5.6588   12.7389   -0.6767 H       1  LIG1        0.1072
@<TRIPOS>BOND
     1     9    10    1
     2     9     3    1
     3    37    31    1
     4    37    38    1
     5    36    35    1
     6     8     7    1
     7    35    30    1
     8    31    30   ar
     9    31    32   ar
    10    18    13    1
    11    18    19    1
    12    30    29   ar
    13    17    16    1
    14    34    32    1
    15    32    33   ar
    16    24    23   ar
    17    24    20   ar
    18     7     2    1
    19    16    12    1
    20     3     2   ar
    21     3     4   ar
    22    13    12   ar
    23    13    14   ar
    24    29    23    1
    25    29    33   ar
    26    12    11   ar
    27    23    22   ar
    28    14    20    1
    29    14    15   ar
    30     2     1   ar
    31    20    21   ar
    32    11     4    1
    33    11    15   ar
    34     4     5   ar
    35    22    21   ar
    36    22    27    1
    37    21    25    1
    38    25    26    1
    39     1     5   ar
    40     1     6    1
    41    27    28    1
