@<TRIPOS>MOLECULE
mol_data/opt/cam/geoms/mol2/5fg5fg5fg.out
 29 31 0 0 0
SMALL
GASTEIGER

@<TRIPOS>ATOM
      1 C          -1.9644   -1.9168    0.3562 C.ar    1  LIG1        0.0189
      2 C          -0.8300   -1.8156   -0.3868 C.ar    1  LIG1        0.1376
      3 C          -0.3578   -0.4648   -0.5069 C.ar    1  LIG1        0.0617
      4 C          -1.1366    0.4339    0.1746 C.ar    1  LIG1        0.0462
      5 S          -2.4574   -0.3771    0.9611 S.2     1  LIG1       -0.0912
      6 H          -2.5185   -2.8139    0.5845 H       1  LIG1        0.0731
      7 O          -0.2191   -2.8706   -0.9687 O.3     1  LIG1       -0.5051
      8 H           0.6150   -2.5542   -1.3503 H       1  LIG1        0.2922
      9 S           1.0363   -0.1009   -1.5388 S.3     1  LIG1       -0.1380
     10 H           1.7970    0.4813   -0.5922 H       1  LIG1        0.1072
     11 C          -0.9531    1.8687    0.3095 C.ar    1  LIG1        0.0701
     12 C           0.1793    2.5498    0.6657 C.ar    1  LIG1        0.1458
     13 C          -0.0005    3.9681    0.7430 C.ar    1  LIG1        0.0623
     14 C          -1.2753    4.3604    0.4292 C.ar    1  LIG1        0.0468
     15 S          -2.2581    2.9886    0.0246 S.2     1  LIG1       -0.0822
     16 O           1.3502    1.9418    0.9690 O.3     1  LIG1       -0.5045
     17 H           2.0022    2.6393    1.1527 H       1  LIG1        0.2922
     18 S           1.3182    4.9983    1.3264 S.3     1  LIG1       -0.1380
     19 H           1.4513    5.7471    0.2154 H       1  LIG1        0.1072
     20 C          -1.8120    5.7087    0.3684 C.ar    1  LIG1        0.0696
     21 C          -1.2841    6.7989   -0.2707 C.ar    1  LIG1        0.1452
     22 C          -2.0957    7.9743   -0.1500 C.ar    1  LIG1        0.0539
     23 C          -3.2220    7.7552    0.5833 C.ar    1  LIG1       -0.0069
     24 S          -3.3234    6.1345    1.1309 S.2     1  LIG1       -0.0912
     25 H          -3.9911    8.4728    0.8287 H       1  LIG1        0.0706
     26 O          -0.1334    6.7672   -0.9799 O.3     1  LIG1       -0.5045
     27 H           0.0325    7.6672   -1.3075 H       1  LIG1        0.2922
     28 S          -1.6008    9.5228   -0.8641 S.3     1  LIG1       -0.1386
     29 H          -2.2179    9.3858   -2.0535 H       1  LIG1        0.1072
@<TRIPOS>BOND
     1    29    28    1
     2     9    10    1
     3     9     3    1
     4     8     7    1
     5    27    26    1
     6    26    21    1
     7     7     2    1
     8    28    22    1
     9     3     2   ar
    10     3     4   ar
    11     2     1   ar
    12    21    22   ar
    13    21    20   ar
    14    22    23   ar
    15    15    11   ar
    16    15    14   ar
    17     4    11    1
    18     4     5   ar
    19    19    18    1
    20    11    12   ar
    21     1     6    1
    22     1     5   ar
    23    20    14    1
    24    20    24   ar
    25    14    13   ar
    26    23    25    1
    27    23    24   ar
    28    12    13   ar
    29    12    16    1
    30    13    18    1
    31    16    17    1
