@<TRIPOS>MOLECULE
mol_data/opt/cam/geoms/mol2/5fg5fg5fg5fg-.out
 38 41 0 0 0
SMALL
GASTEIGER

@<TRIPOS>ATOM
      1 C          -1.9248   -2.0110    0.2514 C.ar    1  LIG1        0.0189
      2 C          -0.6588   -1.9352   -0.2388 C.ar    1  LIG1        0.1376
      3 C          -0.1758   -0.5863   -0.3375 C.ar    1  LIG1        0.0617
      4 C          -1.0839    0.3383    0.1086 C.ar    1  LIG1        0.0462
      5 S          -2.5395   -0.4465    0.6448 S.2     1  LIG1       -0.0912
      6 H          -2.5120   -2.9018    0.4102 H       1  LIG1        0.0731
      7 O           0.0651   -3.0126   -0.6138 O.3     1  LIG1       -0.5051
      8 H           0.9614   -2.7062   -0.8242 H       1  LIG1        0.2922
      9 S           1.4041   -0.2624   -1.0718 S.3     1  LIG1       -0.1380
     10 H           1.9374    0.4042   -0.0300 H       1  LIG1        0.1072
     11 C          -0.9390    1.7814    0.1929 C.ar    1  LIG1        0.0701
     12 C           0.0905    2.5018    0.7351 C.ar    1  LIG1        0.1458
     13 C          -0.1097    3.9187    0.6915 C.ar    1  LIG1        0.0623
     14 C          -1.2933    4.2705    0.0968 C.ar    1  LIG1        0.0468
     15 S          -2.1630    2.8600   -0.4215 S.2     1  LIG1       -0.0822
     16 O           1.1769    1.9330    1.3102 O.3     1  LIG1       -0.5045
     17 H           1.7751    2.6515    1.5765 H       1  LIG1        0.2922
     18 S           1.0515    5.0001    1.4802 S.3     1  LIG1       -0.1380
     19 H           1.3844    5.7135    0.3877 H       1  LIG1        0.1072
     20 C          -1.8170    5.6013   -0.1513 C.ar    1  LIG1        0.0702
     21 C          -1.1758    6.6724   -0.7139 C.ar    1  LIG1        0.1458
     22 C          -2.0066    7.8292   -0.8593 C.ar    1  LIG1        0.0623
     23 C          -3.2791    7.6321   -0.3905 C.ar    1  LIG1        0.0468
     24 S          -3.4608    6.0268    0.2434 S.2     1  LIG1       -0.0822
     25 O           0.1055    6.6318   -1.1459 O.3     1  LIG1       -0.5045
     26 H           0.3312    7.5186   -1.4748 H       1  LIG1        0.2922
     27 S          -1.3898    9.2632   -1.6978 S.3     1  LIG1       -0.1380
     28 H          -1.5187   10.1255   -0.6717 H       1  LIG1        0.1072
     29 C          -4.3763    8.5822   -0.3409 C.ar    1  LIG1        0.0696
     30 C          -4.3598    9.8647    0.1397 C.ar    1  LIG1        0.1452
     31 C          -5.6352   10.5145    0.0634 C.ar    1  LIG1        0.0539
     32 C          -6.5942    9.7139   -0.4785 C.ar    1  LIG1       -0.0069
     33 S          -5.9788    8.1702   -0.8966 S.2     1  LIG1       -0.0912
     34 H          -7.6302    9.9639   -0.6547 H       1  LIG1        0.0706
     35 O          -3.2642   10.4516    0.6712 O.3     1  LIG1       -0.5045
     36 H          -3.5084   11.3610    0.9127 H       1  LIG1        0.2922
     37 S          -5.8541   12.1956    0.5911 S.3     1  LIG1       -0.1386
     38 H          -6.2178   11.9460    1.8639 H       1  LIG1        0.1072
@<TRIPOS>BOND
     1    27    22    1
     2    27    28    1
     3    26    25    1
     4    25    21    1
     5     9     3    1
     6     9    10    1
     7    33    32   ar
     8    33    29   ar
     9    22    21   ar
    10    22    23   ar
    11     8     7    1
    12    21    20   ar
    13    34    32    1
    14     7     2    1
    15    32    31   ar
    16    15    14   ar
    17    15    11   ar
    18    23    29    1
    19    23    24   ar
    20    29    30   ar
    21     3     2   ar
    22     3     4   ar
    23     2     1   ar
    24    20    14    1
    25    20    24   ar
    26    31    30   ar
    27    31    37    1
    28    14    13   ar
    29     4    11    1
    30     4     5   ar
    31    30    35    1
    32    11    12   ar
    33     1     6    1
    34     1     5   ar
    35    19    18    1
    36    37    38    1
    37    35    36    1
    38    13    12   ar
    39    13    18    1
    40    12    16    1
    41    16    17    1
