@<TRIPOS>MOLECULE
mol_data/opt/cam/geoms/mol2/5fg5fg5fg-5fg-.out
 38 41 0 0 0
SMALL
GASTEIGER

@<TRIPOS>ATOM
      1 C          -1.2123   -1.9028    1.4507 C.ar    1  LIG1        0.0189
      2 C          -0.7085   -1.9459    0.1884 C.ar    1  LIG1        0.1376
      3 C          -0.5186   -0.6426   -0.3841 C.ar    1  LIG1        0.0617
      4 C          -0.8618    0.3704    0.4733 C.ar    1  LIG1        0.0462
      5 S          -1.4248   -0.2754    1.9858 S.2     1  LIG1       -0.0912
      6 H          -1.4525   -2.7398    2.0875 H       1  LIG1        0.0731
      7 O          -0.4326   -3.0933   -0.4694 O.3     1  LIG1       -0.5051
      8 H           0.0067   -2.8568   -1.3016 H       1  LIG1        0.2922
      9 S           0.0072   -0.4836   -2.0690 S.3     1  LIG1       -0.1380
     10 H           1.1033    0.2632   -1.8345 H       1  LIG1        0.1072
     11 C          -0.7717    1.8037    0.2576 C.ar    1  LIG1        0.0701
     12 C           0.2937    2.5219   -0.2130 C.ar    1  LIG1        0.1458
     13 C           0.0476    3.9290   -0.3056 C.ar    1  LIG1        0.0623
     14 C          -1.2000    4.2803    0.1393 C.ar    1  LIG1        0.0468
     15 S          -2.0889    2.8771    0.6479 S.2     1  LIG1       -0.0822
     16 O           1.4812    1.9614   -0.5447 O.3     1  LIG1       -0.5045
     17 H           2.1051    2.6838   -0.7278 H       1  LIG1        0.2922
     18 S           1.2741    4.9937   -1.0135 S.3     1  LIG1       -0.1380
     19 H           1.4099    5.8162    0.0446 H       1  LIG1        0.1072
     20 C          -1.7830    5.6066    0.2377 C.ar    1  LIG1        0.0702
     21 C          -1.2393    6.7316    0.7969 C.ar    1  LIG1        0.1458
     22 C          -2.1101    7.8675    0.7700 C.ar    1  LIG1        0.0623
     23 C          -3.3147    7.5991    0.1735 C.ar    1  LIG1        0.0468
     24 S          -3.3803    5.9524   -0.3693 S.2     1  LIG1       -0.0822
     25 O          -0.0149    6.7606    1.3727 O.3     1  LIG1       -0.5045
     26 H           0.1485    7.6732    1.6661 H       1  LIG1        0.2922
     27 S          -1.6309    9.3696    1.5789 S.3     1  LIG1       -0.1380
     28 H          -1.6520   10.1636    0.4916 H       1  LIG1        0.1072
     29 C          -4.4219    8.5078   -0.0629 C.ar    1  LIG1        0.0696
     30 C          -4.3789    9.7622   -0.6113 C.ar    1  LIG1        0.1452
     31 C          -5.6689   10.3782   -0.7183 C.ar    1  LIG1        0.0539
     32 C          -6.6695    9.5664   -0.2779 C.ar    1  LIG1       -0.0069
     33 S          -6.0710    8.0706    0.3065 S.2     1  LIG1       -0.0912
     34 H          -7.7277    9.7833   -0.2651 H       1  LIG1        0.0706
     35 O          -3.2417   10.3520   -1.0428 O.3     1  LIG1       -0.5045
     36 H          -3.4917   11.1699   -1.5045 H       1  LIG1        0.2922
     37 S          -5.8785   11.9799   -1.4542 S.3     1  LIG1       -0.1386
     38 H          -5.7122   12.7194   -0.3407 H       1  LIG1        0.1072
@<TRIPOS>BOND
     1     9    10    1
     2     9     3    1
     3    36    35    1
     4    37    31    1
     5    37    38    1
     6     8     7    1
     7    35    30    1
     8    18    13    1
     9    18    19    1
    10    17    16    1
    11    31    30   ar
    12    31    32   ar
    13    30    29   ar
    14    16    12    1
    15     7     2    1
    16     3     2   ar
    17     3     4   ar
    18    24    23   ar
    19    24    20   ar
    20    13    12   ar
    21    13    14   ar
    22    32    34    1
    23    32    33   ar
    24    12    11   ar
    25    29    23    1
    26    29    33   ar
    27    14    20    1
    28    14    15   ar
    29    23    22   ar
    30     2     1   ar
    31    20    21   ar
    32    11     4    1
    33    11    15   ar
    34     4     5   ar
    35    28    27    1
    36    22    21   ar
    37    22    27    1
    38    21    25    1
    39    25    26    1
    40     1     5   ar
    41     1     6    1
