@<TRIPOS>MOLECULE
mol_data/opt/cam/geoms/mol2/5fg5fg-5fg5fg.out
 38 41 0 0 0
SMALL
GASTEIGER

@<TRIPOS>ATOM
      1 C          -1.4801   -1.6644    1.8176 C.ar    1  LIG1        0.0189
      2 C          -0.9340   -1.8575    0.5873 C.ar    1  LIG1        0.1376
      3 C          -0.6475   -0.6284   -0.0979 C.ar    1  LIG1        0.0617
      4 C          -0.9620    0.4805    0.6442 C.ar    1  LIG1        0.0462
      5 S          -1.6166    0.0166    2.1862 S.2     1  LIG1       -0.0912
      6 H          -1.7918   -2.4211    2.5204 H       1  LIG1        0.0731
      7 O          -0.7018   -3.0767    0.0538 O.3     1  LIG1       -0.5051
      8 H          -0.2200   -2.9465   -0.7783 H       1  LIG1        0.2922
      9 S          -0.0525   -0.6627   -1.7669 S.3     1  LIG1       -0.1380
     10 H           1.0776    0.0397   -1.5583 H       1  LIG1        0.1072
     11 C          -0.7810    1.8790    0.2968 C.ar    1  LIG1        0.0701
     12 C           0.3407    2.4886   -0.1957 C.ar    1  LIG1        0.1458
     13 C           0.1801    3.8912   -0.4334 C.ar    1  LIG1        0.0623
     14 C          -1.0610    4.3510   -0.0776 C.ar    1  LIG1        0.0468
     15 S          -2.0471    3.0550    0.5269 S.2     1  LIG1       -0.0822
     16 O           1.5048    1.8346   -0.4218 O.3     1  LIG1       -0.5045
     17 H           2.1757    2.5008   -0.6478 H       1  LIG1        0.2922
     18 S           1.4908    4.8112   -1.1916 S.3     1  LIG1       -0.1380
     19 H           1.6354    5.7317   -0.2186 H       1  LIG1        0.1072
     20 C          -1.5667    5.7106   -0.1317 C.ar    1  LIG1        0.0702
     21 C          -0.9710    6.8509    0.3357 C.ar    1  LIG1        0.1458
     22 C          -1.7472    8.0353    0.1271 C.ar    1  LIG1        0.0623
     23 C          -2.9561    7.7795   -0.4648 C.ar    1  LIG1        0.0468
     24 S          -3.1365    6.0839   -0.7920 S.2     1  LIG1       -0.0822
     25 O           0.2311    6.8613    0.9578 O.3     1  LIG1       -0.5045
     26 H           0.3758    7.7588    1.3025 H       1  LIG1        0.2922
     27 S          -1.0767    9.6170    0.5599 S.3     1  LIG1       -0.1380
     28 H          -2.0539    9.9820    1.4119 H       1  LIG1        0.1072
     29 C          -4.0171    8.7180   -0.7884 C.ar    1  LIG1        0.0696
     30 C          -4.5857    9.6626    0.0237 C.ar    1  LIG1        0.1452
     31 C          -5.6352   10.4018   -0.6139 C.ar    1  LIG1        0.0539
     32 C          -5.8398   10.0069   -1.9009 C.ar    1  LIG1       -0.0069
     33 S          -4.7800    8.7405   -2.3583 S.2     1  LIG1       -0.0912
     34 H          -6.5605   10.4062   -2.5995 H       1  LIG1        0.0706
     35 O          -4.2245    9.8584    1.3125 O.3     1  LIG1       -0.5045
     36 H          -4.7551   10.5974    1.6554 H       1  LIG1        0.2922
     37 S          -6.4951   11.7077    0.2273 S.3     1  LIG1       -0.1386
     38 H          -7.5065   10.9729    0.7290 H       1  LIG1        0.1072
@<TRIPOS>BOND
     1    34    32    1
     2    33    32   ar
     3    33    29   ar
     4    32    31   ar
     5     9    10    1
     6     9     3    1
     7    18    13    1
     8    18    19    1
     9    24    23   ar
    10    24    20   ar
    11    29    23    1
    12    29    30   ar
    13     8     7    1
    14    17    16    1
    15    31    30   ar
    16    31    37    1
    17    23    22   ar
    18    13    12   ar
    19    13    14   ar
    20    16    12    1
    21    12    11   ar
    22    20    14    1
    23    20    21   ar
    24     3     2   ar
    25     3     4   ar
    26    14    15   ar
    27    30    35    1
    28     7     2    1
    29    22    21   ar
    30    22    27    1
    31    37    38    1
    32    11    15   ar
    33    11     4    1
    34    21    25    1
    35    27    28    1
    36     2     1   ar
    37     4     5   ar
    38    25    26    1
    39    35    36    1
    40     1     5   ar
    41     1     6    1
