@<TRIPOS>MOLECULE
mol_data/opt/cam/geoms/mol2/5fg5fg5fg-.out
 29 31 0 0 0
SMALL
GASTEIGER

@<TRIPOS>ATOM
      1 C          -1.8838   -1.9088    0.4483 C.ar    1  LIG1        0.0189
      2 C          -0.7432   -1.8152   -0.2861 C.ar    1  LIG1        0.1376
      3 C          -0.2982   -0.4608   -0.4599 C.ar    1  LIG1        0.0617
      4 C          -1.1040    0.4494    0.1731 C.ar    1  LIG1        0.0462
      5 S          -2.4166   -0.3552    0.9798 S.2     1  LIG1       -0.0912
      6 H          -2.4219   -2.8068    0.7086 H       1  LIG1        0.0731
      7 O          -0.1031   -2.8808   -0.8146 O.3     1  LIG1       -0.5051
      8 H           0.7268   -2.5627   -1.2038 H       1  LIG1        0.2922
      9 S           1.0999   -0.1116   -1.4912 S.3     1  LIG1       -0.1380
     10 H           1.8384    0.5238   -0.5617 H       1  LIG1        0.1072
     11 C          -0.9521    1.8924    0.2477 C.ar    1  LIG1        0.0701
     12 C           0.1593    2.6127    0.5912 C.ar    1  LIG1        0.1458
     13 C          -0.0556    4.0279    0.6158 C.ar    1  LIG1        0.0623
     14 C          -1.3308    4.3814    0.2589 C.ar    1  LIG1        0.0468
     15 S          -2.2770    2.9725   -0.0958 S.2     1  LIG1       -0.0822
     16 O           1.3396    2.0474    0.9369 O.3     1  LIG1       -0.5045
     17 H           1.9780    2.7702    1.0624 H       1  LIG1        0.2922
     18 S           1.2439    5.1410    1.0885 S.3     1  LIG1       -0.1380
     19 H           1.1171    4.9832    2.4213 H       1  LIG1        0.1072
     20 C          -1.8990    5.7122    0.1231 C.ar    1  LIG1        0.0696
     21 C          -1.4016    6.7611   -0.6039 C.ar    1  LIG1        0.1452
     22 C          -2.2321    7.9295   -0.5423 C.ar    1  LIG1        0.0539
     23 C          -3.3549    7.7330    0.2029 C.ar    1  LIG1       -0.0069
     24 S          -3.4140    6.1549    0.8690 S.2     1  LIG1       -0.0912
     25 H          -4.1440    8.4455    0.3937 H       1  LIG1        0.0706
     26 O          -0.2658    6.6921   -1.3201 O.3     1  LIG1       -0.5045
     27 H          -0.1741    7.5210   -1.8169 H       1  LIG1        0.2922
     28 S          -1.8346    9.4067   -1.4429 S.3     1  LIG1       -0.1386
     29 H          -1.0671    9.9953   -0.5054 H       1  LIG1        0.1072
@<TRIPOS>BOND
     1    27    26    1
     2     9    10    1
     3     9     3    1
     4    28    22    1
     5    28    29    1
     6    26    21    1
     7     8     7    1
     8     7     2    1
     9    21    22   ar
    10    21    20   ar
    11    22    23   ar
    12     3     2   ar
    13     3     4   ar
    14     2     1   ar
    15    15    11   ar
    16    15    14   ar
    17    20    14    1
    18    20    24   ar
    19     4    11    1
    20     4     5   ar
    21    23    25    1
    22    23    24   ar
    23    11    12   ar
    24    14    13   ar
    25     1     6    1
    26     1     5   ar
    27    12    13   ar
    28    12    16    1
    29    13    18    1
    30    16    17    1
    31    18    19    1
