@<TRIPOS>MOLECULE
mol_data/opt/cam/geoms/mol2/5fg5fg.out
 20 21 0 0 0
SMALL
GASTEIGER

@<TRIPOS>ATOM
      1 C          -2.0033   -1.6900    0.6526 C.ar    1  LIG1        0.0189
      2 C          -0.7303   -1.7301    0.1767 C.ar    1  LIG1        0.1376
      3 C          -0.2340   -0.4370   -0.2026 C.ar    1  LIG1        0.0617
      4 C          -1.1328    0.5705    0.0321 C.ar    1  LIG1        0.0462
      5 S          -2.6036   -0.0715    0.6928 S.2     1  LIG1       -0.0912
      6 H          -2.6050   -2.5214    0.9850 H       1  LIG1        0.0731
      7 O          -0.0127   -2.8665    0.0443 O.3     1  LIG1       -0.5051
      8 H           0.8994   -2.6118   -0.1678 H       1  LIG1        0.2922
      9 S           1.3944   -0.2354   -0.8788 S.3     1  LIG1       -0.1380
     10 H           1.1168   -0.7028   -2.1122 H       1  LIG1        0.1072
     11 C          -0.9669    2.0008   -0.1760 C.ar    1  LIG1        0.0695
     12 C           0.0405    2.8014    0.2906 C.ar    1  LIG1        0.1452
     13 C          -0.1111    4.1758   -0.0922 C.ar    1  LIG1        0.0539
     14 C          -1.2263    4.3886   -0.8442 C.ar    1  LIG1       -0.0069
     15 S          -2.1132    2.9432   -1.0943 S.2     1  LIG1       -0.0912
     16 H          -1.5629    5.3265   -1.2609 H       1  LIG1        0.0706
     17 O           1.0494    2.3489    1.0584 O.3     1  LIG1       -0.5045
     18 H           1.6943    3.0672    1.1578 H       1  LIG1        0.2922
     19 S           1.0928    5.4058    0.3435 S.3     1  LIG1       -0.1386
     20 H           0.5728    5.7652    1.5329 H       1  LIG1        0.1072
@<TRIPOS>BOND
     1    10     9    1
     2    16    14    1
     3    15    14   ar
     4    15    11   ar
     5     9     3    1
     6    14    13   ar
     7     3     4   ar
     8     3     2   ar
     9    11     4    1
    10    11    12   ar
    11     8     7    1
    12    13    12   ar
    13    13    19    1
    14     4     5   ar
    15     7     2    1
    16     2     1   ar
    17    12    17    1
    18    19    20    1
    19     1     5   ar
    20     1     6    1
    21    17    18    1
