@<TRIPOS>MOLECULE
mol_data/opt/cam/geoms/mol2/5fg5fg-5fg-.out
 29 31 0 0 0
SMALL
GASTEIGER

@<TRIPOS>ATOM
      1 C          -1.8851   -1.7343    1.1763 C.ar    1  LIG1        0.0189
      2 C          -0.9024   -1.8547    0.2440 C.ar    1  LIG1        0.1376
      3 C          -0.4501   -0.5883   -0.2599 C.ar    1  LIG1        0.0617
      4 C          -1.0878    0.4752    0.3244 C.ar    1  LIG1        0.0462
      5 S          -2.2503   -0.0771    1.4924 S.2     1  LIG1       -0.0912
      6 H          -2.3950   -2.5310    1.6950 H       1  LIG1        0.0731
      7 O          -0.4138   -3.0404   -0.1802 O.3     1  LIG1       -0.5051
      8 H           0.3398   -2.8568   -0.7631 H       1  LIG1        0.2922
      9 S           0.7358   -0.5305   -1.5756 S.3     1  LIG1       -0.1380
     10 H           1.6575    0.2179   -0.9398 H       1  LIG1        0.1072
     11 C          -0.8710    1.8929    0.0949 C.ar    1  LIG1        0.0701
     12 C           0.3154    2.5745    0.0805 C.ar    1  LIG1        0.1458
     13 C           0.1742    3.9753   -0.1788 C.ar    1  LIG1        0.0623
     14 C          -1.1331    4.3596   -0.3218 C.ar    1  LIG1        0.0468
     15 S          -2.1960    2.9958   -0.1629 S.2     1  LIG1       -0.0822
     16 O           1.5138    1.9868    0.3085 O.3     1  LIG1       -0.5045
     17 H           2.1806    2.6917    0.3648 H       1  LIG1        0.2922
     18 S           1.6153    4.9919   -0.3515 S.3     1  LIG1       -0.1380
     19 H           1.3234    5.8619    0.6343 H       1  LIG1        0.1072
     20 C          -1.6601    5.6947   -0.5477 C.ar    1  LIG1        0.0696
     21 C          -1.3737    6.8440    0.1394 C.ar    1  LIG1        0.1452
     22 C          -2.0987    7.9854   -0.3362 C.ar    1  LIG1        0.0539
     23 C          -2.9191    7.6815   -1.3797 C.ar    1  LIG1       -0.0069
     24 S          -2.8337    6.0219   -1.7978 S.2     1  LIG1       -0.0912
     25 H          -3.5635    8.3579   -1.9219 H       1  LIG1        0.0706
     26 O          -0.5212    6.8972    1.1884 O.3     1  LIG1       -0.5045
     27 H          -0.4705    7.8242    1.4765 H       1  LIG1        0.2922
     28 S          -1.8640    9.5964    0.3725 S.3     1  LIG1       -0.1386
     29 H          -2.8385    9.5373    1.3006 H       1  LIG1        0.1072
@<TRIPOS>BOND
     1    25    23    1
     2    24    23   ar
     3    24    20   ar
     4     9    10    1
     5     9     3    1
     6    23    22   ar
     7     8     7    1
     8    20    14    1
     9    20    21   ar
    10    18    13    1
    11    18    19    1
    12    22    21   ar
    13    22    28    1
    14    14    13   ar
    15    14    15   ar
    16     3     2   ar
    17     3     4   ar
    18     7     2    1
    19    13    12   ar
    20    15    11   ar
    21    12    11   ar
    22    12    16    1
    23    11     4    1
    24    21    26    1
    25     2     1   ar
    26    16    17    1
    27     4     5   ar
    28    28    29    1
    29     1     5   ar
    30     1     6    1
    31    26    27    1
