@<TRIPOS>MOLECULE
mol_data/opt/cam/geoms/mol2/5fg5fg5fg-5fg.out
 38 41 0 0 0
SMALL
GASTEIGER

@<TRIPOS>ATOM
      1 C          -1.9084   -1.9888    0.3614 C.ar    1  LIG1        0.0189
      2 C          -0.6382   -1.9231   -0.1194 C.ar    1  LIG1        0.1376
      3 C          -0.1562   -0.5762   -0.2475 C.ar    1  LIG1        0.0617
      4 C          -1.0696    0.3577    0.1671 C.ar    1  LIG1        0.0462
      5 S          -2.5291   -0.4159    0.7095 S.2     1  LIG1       -0.0912
      6 H          -2.4960   -2.8764    0.5366 H       1  LIG1        0.0731
      7 O           0.0907   -3.0082   -0.4606 O.3     1  LIG1       -0.5051
      8 H           0.9875   -2.7053   -0.6736 H       1  LIG1        0.2922
      9 S           1.4299   -0.2678   -0.9749 S.3     1  LIG1       -0.1380
     10 H           1.9541    0.4216    0.0564 H       1  LIG1        0.1072
     11 C          -0.9269    1.8026    0.2178 C.ar    1  LIG1        0.0701
     12 C           0.0938    2.5378    0.7562 C.ar    1  LIG1        0.1458
     13 C          -0.1148    3.9525    0.6873 C.ar    1  LIG1        0.0623
     14 C          -1.2880    4.2903    0.0641 C.ar    1  LIG1        0.0468
     15 S          -2.1484    2.8667   -0.4275 S.2     1  LIG1       -0.0822
     16 O           1.1755    1.9887    1.3572 O.3     1  LIG1       -0.5045
     17 H           1.7764    2.7185    1.5864 H       1  LIG1        0.2922
     18 S           1.0631    5.0831    1.3837 S.3     1  LIG1       -0.1380
     19 H           0.6640    4.9635    2.6658 H       1  LIG1        0.1072
     20 C          -1.8148    5.6124   -0.2274 C.ar    1  LIG1        0.0702
     21 C          -1.1760    6.6473   -0.8568 C.ar    1  LIG1        0.1458
     22 C          -2.0016    7.8055   -1.0291 C.ar    1  LIG1        0.0623
     23 C          -3.2626    7.6427   -0.5175 C.ar    1  LIG1        0.0468
     24 S          -3.4451    6.0675    0.1883 S.2     1  LIG1       -0.0822
     25 O           0.0863    6.5628   -1.3134 O.3     1  LIG1       -0.5045
     26 H           0.3520    7.4427   -1.6262 H       1  LIG1        0.2922
     27 S          -1.3910    9.2004   -1.9355 S.3     1  LIG1       -0.1380
     28 H          -1.5365   10.1105   -0.9539 H       1  LIG1        0.1072
     29 C          -4.3517    8.6034   -0.4826 C.ar    1  LIG1        0.0696
     30 C          -4.3178    9.9050   -0.0579 C.ar    1  LIG1        0.1452
     31 C          -5.5902   10.5604   -0.1365 C.ar    1  LIG1        0.0539
     32 C          -6.5654    9.7447   -0.6242 C.ar    1  LIG1       -0.0069
     33 S          -5.9680    8.1802   -0.9879 S.2     1  LIG1       -0.0912
     34 H          -7.6031    9.9945   -0.7899 H       1  LIG1        0.0706
     35 O          -3.2075   10.5067    0.4258 O.3     1  LIG1       -0.5045
     36 H          -3.4395   11.4292    0.6265 H       1  LIG1        0.2922
     37 S          -5.7874   12.2645    0.3220 S.3     1  LIG1       -0.1386
     38 H          -6.1230   12.0732    1.6124 H       1  LIG1        0.1072
@<TRIPOS>BOND
     1    27    22    1
     2    27    28    1
     3    26    25    1
     4    25    21    1
     5    22    21   ar
     6    22    23   ar
     7    33    32   ar
     8    33    29   ar
     9     9     3    1
    10     9    10    1
    11    21    20   ar
    12    34    32    1
    13     8     7    1
    14    32    31   ar
    15    23    29    1
    16    23    24   ar
    17    29    30   ar
    18     7     2    1
    19    15    14   ar
    20    15    11   ar
    21     3     2   ar
    22     3     4   ar
    23    20    14    1
    24    20    24   ar
    25    31    30   ar
    26    31    37    1
    27     2     1   ar
    28    30    35    1
    29    14    13   ar
    30     4    11    1
    31     4     5   ar
    32    11    12   ar
    33    37    38    1
    34     1     6    1
    35     1     5   ar
    36    35    36    1
    37    13    12   ar
    38    13    18    1
    39    12    16    1
    40    16    17    1
    41    18    19    1
