@<TRIPOS>MOLECULE
mol_data/opt/cam/geoms/mol2/5fh.out
 12 12 0 0 0
SMALL
GASTEIGER

@<TRIPOS>ATOM
      1 C          -2.1361   -1.7495    0.1120 C.ar    1  LIG1        0.0190
      2 C          -0.7791   -1.7409    0.0479 C.ar    1  LIG1        0.1444
      3 C          -0.2298   -0.4277   -0.1371 C.ar    1  LIG1        0.0737
      4 C          -1.1897    0.5330   -0.2088 C.ar    1  LIG1        0.0000
      5 S          -2.7671   -0.1429   -0.0533 S.2     1  LIG1       -0.0995
      6 H          -2.7928   -2.5945    0.2455 H       1  LIG1        0.0731
      7 H          -1.0592    1.5972   -0.3440 H       1  LIG1        0.0713
      8 O           0.0355   -2.8124    0.1404 O.3     1  LIG1       -0.5044
      9 H           0.9341   -2.4426    0.0569 H       1  LIG1        0.2922
     10 N           1.1931   -0.3191   -0.2160 N.pl3   1  LIG1       -0.3547
     11 H           1.4977    0.0568   -1.1077 H       1  LIG1        0.1424
     12 H           1.5719    0.2689    0.5187 H       1  LIG1        0.1424
@<TRIPOS>BOND
     1    11    10    1
     2     7     4    1
     3    10     3    1
     4    10    12    1
     5     4     3   ar
     6     4     5   ar
     7     3     2   ar
     8     5     1   ar
     9     2     1   ar
    10     2     8    1
    11     9     8    1
    12     1     6    1
