@<TRIPOS>MOLECULE
mol_data/opt/cam/geoms/mol2/5fh5fh-5fh-5fh.out
 42 45 0 0 0
SMALL
GASTEIGER

@<TRIPOS>ATOM
      1 C          -2.0676   -2.0187   -0.2026 C.ar    1  LIG1        0.0197
      2 C          -0.7420   -2.0331    0.0754 C.ar    1  LIG1        0.1450
      3 C          -0.1279   -0.7359    0.0665 C.ar    1  LIG1        0.0822
      4 C          -1.0261    0.2661   -0.1968 C.ar    1  LIG1        0.0538
      5 S          -2.6209   -0.4049   -0.4826 S.2     1  LIG1       -0.0904
      6 H          -2.7434   -2.8591   -0.2308 H       1  LIG1        0.0731
      7 O          -0.0107   -3.1472    0.3575 O.3     1  LIG1       -0.5044
      8 H           0.7040   -2.8644    0.9479 H       1  LIG1        0.2922
      9 N           1.2356   -0.6518    0.3917 N.pl3   1  LIG1       -0.3542
     10 H           1.7780   -1.2599   -0.2158 H       1  LIG1        0.1425
     11 H           1.5980    0.2902    0.2834 H       1  LIG1        0.1425
     12 C          -0.8175    1.7020   -0.2521 C.ar    1  LIG1        0.0716
     13 C           0.2968    2.4240   -0.5776 C.ar    1  LIG1        0.1533
     14 C           0.1263    3.8399   -0.5379 C.ar    1  LIG1        0.0828
     15 C          -1.1326    4.2183   -0.1579 C.ar    1  LIG1        0.0544
     16 S          -2.1076    2.8125    0.1739 S.2     1  LIG1       -0.0814
     17 O           1.5085    1.9224   -0.9297 O.3     1  LIG1       -0.5037
     18 H           2.0678    2.7216   -1.0210 H       1  LIG1        0.2923
     19 N           1.2466    4.6346   -0.9104 N.pl3   1  LIG1       -0.3542
     20 H           1.1302    5.0113   -1.8476 H       1  LIG1        0.1425
     21 H           1.3518    5.4241   -0.2763 H       1  LIG1        0.1425
     22 C          -1.6536    5.5611   -0.0041 C.ar    1  LIG1        0.0716
     23 C          -1.0114    6.6834    0.4407 C.ar    1  LIG1        0.1533
     24 C          -1.8301    7.8504    0.5013 C.ar    1  LIG1        0.0828
     25 C          -3.1135    7.6245    0.0827 C.ar    1  LIG1        0.0544
     26 S          -3.3107    5.9635   -0.4052 S.2     1  LIG1       -0.0814
     27 O           0.2782    6.7623    0.8471 O.3     1  LIG1       -0.5037
     28 H           0.3977    7.7102    1.0623 H       1  LIG1        0.2923
     29 N          -1.2268    9.0372    1.0043 N.pl3   1  LIG1       -0.3542
     30 H          -1.4628    9.8357    0.4188 H       1  LIG1        0.1425
     31 H          -1.5552    9.2427    1.9443 H       1  LIG1        0.1425
     32 C          -4.2020    8.5785   -0.0010 C.ar    1  LIG1        0.0710
     33 C          -4.1491    9.9025   -0.3411 C.ar    1  LIG1        0.1527
     34 C          -5.4201   10.5584   -0.3398 C.ar    1  LIG1        0.0744
     35 C          -6.4364    9.7184   -0.0060 C.ar    1  LIG1        0.0006
     36 S          -5.8613    8.1307    0.3304 S.2     1  LIG1       -0.0905
     37 H          -7.4911    9.9438    0.0632 H       1  LIG1        0.0713
     38 O          -3.0391   10.5943   -0.6905 O.3     1  LIG1       -0.5038
     39 H          -3.3717   11.4885   -0.9056 H       1  LIG1        0.2923
     40 N          -5.4339   11.9383   -0.7049 N.pl3   1  LIG1       -0.3547
     41 H          -6.0202   12.1152   -1.5136 H       1  LIG1        0.1424
     42 H          -5.7517   12.5337    0.0526 H       1  LIG1        0.1424
@<TRIPOS>BOND
     1    20    19    1
     2    41    40    1
     3    18    17    1
     4    17    13    1
     5    19    14    1
     6    19    21    1
     7    39    38    1
     8    40    34    1
     9    40    42    1
    10    38    33    1
    11    13    14   ar
    12    13    12   ar
    13    14    15   ar
    14     5     1   ar
    15     5     4   ar
    16    26    22   ar
    17    26    25   ar
    18    33    34   ar
    19    33    32   ar
    20    34    35   ar
    21    12     4    1
    22    12    16   ar
    23     6     1    1
    24    10     9    1
    25     1     2   ar
    26     4     3   ar
    27    15    22    1
    28    15    16   ar
    29    35    37    1
    30    35    36   ar
    31    22    23   ar
    32    32    25    1
    33    32    36   ar
    34     3     2   ar
    35     3     9    1
    36     2     7    1
    37    25    24   ar
    38    11     9    1
    39     7     8    1
    40    30    29    1
    41    23    24   ar
    42    23    27    1
    43    24    29    1
    44    27    28    1
    45    29    31    1
