@<TRIPOS>MOLECULE
mol_data/opt/cam/geoms/mol2/5fh5fh.out
 22 23 0 0 0
SMALL
GASTEIGER

@<TRIPOS>ATOM
      1 C          -2.0971   -1.8465    0.5047 C.ar    1  LIG1        0.0197
      2 C          -0.7930   -1.8771    0.1277 C.ar    1  LIG1        0.1450
      3 C          -0.2497   -0.5822   -0.1609 C.ar    1  LIG1        0.0822
      4 C          -1.1531    0.4288    0.0268 C.ar    1  LIG1        0.0537
      5 S          -2.6831   -0.2150    0.5575 S.2     1  LIG1       -0.0904
      6 H          -2.7356   -2.6748    0.7680 H       1  LIG1        0.0731
      7 O          -0.0170   -2.9732    0.0036 O.3     1  LIG1       -0.5044
      8 H           0.8674   -2.6164   -0.2054 H       1  LIG1        0.2922
      9 N           1.1049   -0.5214   -0.5905 N.pl3   1  LIG1       -0.3542
     10 H           1.1657   -0.3716   -1.5939 H       1  LIG1        0.1425
     11 H           1.5948    0.2436   -0.1325 H       1  LIG1        0.1425
     12 C          -0.9450    1.8546   -0.1516 C.ar    1  LIG1        0.0710
     13 C           0.1696    2.5972    0.1224 C.ar    1  LIG1        0.1527
     14 C           0.0321    3.9914   -0.1680 C.ar    1  LIG1        0.0744
     15 C          -1.1990    4.3011   -0.6557 C.ar    1  LIG1        0.0006
     16 S          -2.1947    2.9020   -0.7882 S.2     1  LIG1       -0.0905
     17 H          -1.5758    5.2716   -0.9454 H       1  LIG1        0.0713
     18 O           1.3288    2.1337    0.6481 O.3     1  LIG1       -0.5038
     19 H           1.8859    2.9312    0.7434 H       1  LIG1        0.2923
     20 N           1.1570    4.8246    0.1138 N.pl3   1  LIG1       -0.3547
     21 H           1.5297    5.2623   -0.7221 H       1  LIG1        0.1424
     22 H           0.9346    5.5556    0.7809 H       1  LIG1        0.1424
@<TRIPOS>BOND
     1    10     9    1
     2    17    15    1
     3    16    15   ar
     4    16    12   ar
     5    21    20    1
     6    15    14   ar
     7     9     3    1
     8     9    11    1
     9     8     7    1
    10    14    20    1
    11    14    13   ar
    12     3     4   ar
    13     3     2   ar
    14    12     4    1
    15    12    13   ar
    16     7     2    1
    17     4     5   ar
    18    20    22    1
    19    13    18    1
    20     2     1   ar
    21     1     5   ar
    22     1     6    1
    23    18    19    1
