@<TRIPOS>MOLECULE
mol_data/opt/cam/geoms/mol2/5fh5fh-5fh5fh.out
 42 45 0 0 0
SMALL
GASTEIGER

@<TRIPOS>ATOM
      1 C          -2.1522   -1.9580    0.0952 C.ar    1  LIG1        0.0197
      2 C          -0.8312   -1.9783    0.3944 C.ar    1  LIG1        0.1450
      3 C          -0.1886   -0.6990    0.2940 C.ar    1  LIG1        0.0822
      4 C          -1.0607    0.2979   -0.0610 C.ar    1  LIG1        0.0538
      5 S          -2.6657   -0.3598   -0.3186 S.2     1  LIG1       -0.0904
      6 H          -2.8460   -2.7836    0.1223 H       1  LIG1        0.0731
      7 O          -0.1288   -3.0818    0.7743 O.3     1  LIG1       -0.5044
      8 H           0.5847   -2.7682    1.3505 H       1  LIG1        0.2922
      9 N           1.1718   -0.6184    0.6329 N.pl3   1  LIG1       -0.3542
     10 H           1.7093   -1.2819    0.0816 H       1  LIG1        0.1425
     11 H           1.5559    0.3049    0.4591 H       1  LIG1        0.1425
     12 C          -0.8191    1.7201   -0.2261 C.ar    1  LIG1        0.0716
     13 C           0.3152    2.3901   -0.5910 C.ar    1  LIG1        0.1533
     14 C           0.1757    3.8079   -0.6668 C.ar    1  LIG1        0.0828
     15 C          -1.0801    4.2420   -0.3382 C.ar    1  LIG1        0.0544
     16 S          -2.0896    2.8880    0.0909 S.2     1  LIG1       -0.0814
     17 O           1.5198    1.8363   -0.8841 O.3     1  LIG1       -0.5037
     18 H           2.0975    2.6136   -1.0321 H       1  LIG1        0.2923
     19 N           1.3189    4.5454   -1.0848 N.pl3   1  LIG1       -0.3542
     20 H           1.2218    4.8534   -2.0489 H       1  LIG1        0.1425
     21 H           1.4402    5.3766   -0.5098 H       1  LIG1        0.1425
     22 C          -1.5725    5.6034   -0.2996 C.ar    1  LIG1        0.0716
     23 C          -0.9068    6.7431    0.0572 C.ar    1  LIG1        0.1533
     24 C          -1.6883    7.9350   -0.0159 C.ar    1  LIG1        0.0828
     25 C          -2.9818    7.7018   -0.3978 C.ar    1  LIG1        0.0544
     26 S          -3.2306    6.0035   -0.7002 S.2     1  LIG1       -0.0814
     27 O           0.3781    6.8225    0.4774 O.3     1  LIG1       -0.5037
     28 H           0.4859    7.7632    0.7267 H       1  LIG1        0.2923
     29 N          -1.0410    9.1538    0.3297 N.pl3   1  LIG1       -0.3542
     30 H          -0.8361    9.7089   -0.4969 H       1  LIG1        0.1425
     31 H          -1.6333    9.7156    0.9377 H       1  LIG1        0.1425
     32 C          -4.0573    8.6651   -0.5361 C.ar    1  LIG1        0.0710
     33 C          -4.3148    9.7702    0.2277 C.ar    1  LIG1        0.1527
     34 C          -5.4778   10.5006   -0.1721 C.ar    1  LIG1        0.0744
     35 C          -6.1037    9.9353   -1.2390 C.ar    1  LIG1        0.0006
     36 S          -5.2788    8.5249   -1.7822 S.2     1  LIG1       -0.0905
     37 H          -7.0029   10.2688   -1.7372 H       1  LIG1        0.0713
     38 O          -3.6007   10.1845    1.3003 O.3     1  LIG1       -0.5038
     39 H          -4.0837   10.9719    1.6215 H       1  LIG1        0.2923
     40 N          -5.8117   11.6540    0.5997 N.pl3   1  LIG1       -0.3547
     41 H          -5.7841   12.5066    0.0507 H       1  LIG1        0.1424
     42 H          -6.7306   11.5794    1.0230 H       1  LIG1        0.1424
@<TRIPOS>BOND
     1    20    19    1
     2    36    35   ar
     3    36    32   ar
     4    37    35    1
     5    35    34   ar
     6    19    14    1
     7    19    21    1
     8    18    17    1
     9    17    13    1
    10    26    25   ar
    11    26    22   ar
    12    14    13   ar
    13    14    15   ar
    14    13    12   ar
    15    32    25    1
    16    32    33   ar
    17    30    29    1
    18    25    24   ar
    19    15    22    1
    20    15    16   ar
    21     5     4   ar
    22     5     1   ar
    23    22    23   ar
    24    12     4    1
    25    12    16   ar
    26    34    33   ar
    27    34    40    1
    28     4     3   ar
    29    24    23   ar
    30    24    29    1
    31    41    40    1
    32    23    27    1
    33    10     9    1
    34     1     6    1
    35     1     2   ar
    36    33    38    1
    37     3     2   ar
    38     3     9    1
    39    29    31    1
    40     2     7    1
    41    11     9    1
    42    27    28    1
    43    40    42    1
    44     7     8    1
    45    38    39    1
