@<TRIPOS>MOLECULE
mol_data/opt/cam/geoms/mol2/5fh5fh-5fh5fh-.out
 42 45 0 0 0
SMALL
GASTEIGER

@<TRIPOS>ATOM
      1 C          -2.0743   -2.0193   -0.1635 C.ar    1  LIG1        0.0197
      2 C          -0.7440   -2.0334    0.0909 C.ar    1  LIG1        0.1450
      3 C          -0.1293   -0.7367    0.0653 C.ar    1  LIG1        0.0822
      4 C          -1.0314    0.2648   -0.1864 C.ar    1  LIG1        0.0538
      5 S          -2.6315   -0.4063   -0.4408 S.2     1  LIG1       -0.0904
      6 H          -2.7511   -2.8592   -0.1760 H       1  LIG1        0.0731
      7 O          -0.0085   -3.1467    0.3649 O.3     1  LIG1       -0.5044
      8 H           0.7170   -2.8618    0.9410 H       1  LIG1        0.2922
      9 N           1.2399   -0.6523    0.3658 N.pl3   1  LIG1       -0.3542
     10 H           1.7709   -1.2631   -0.2490 H       1  LIG1        0.1425
     11 H           1.6008    0.2890    0.2473 H       1  LIG1        0.1425
     12 C          -0.8229    1.7002   -0.2518 C.ar    1  LIG1        0.0716
     13 C           0.2859    2.4200   -0.6003 C.ar    1  LIG1        0.1533
     14 C           0.1171    3.8361   -0.5639 C.ar    1  LIG1        0.0828
     15 C          -1.1346    4.2171   -0.1632 C.ar    1  LIG1        0.0544
     16 S          -2.1044    2.8135    0.1922 S.2     1  LIG1       -0.0814
     17 O           1.4908    1.9160   -0.9716 O.3     1  LIG1       -0.5037
     18 H           2.0489    2.7143   -1.0765 H       1  LIG1        0.2923
     19 N           1.2311    4.6284   -0.9597 N.pl3   1  LIG1       -0.3542
     20 H           1.0982    5.0011   -1.8964 H       1  LIG1        0.1425
     21 H           1.3482    5.4206   -0.3311 H       1  LIG1        0.1425
     22 C          -1.6518    5.5611   -0.0061 C.ar    1  LIG1        0.0716
     23 C          -1.0011    6.6848    0.4222 C.ar    1  LIG1        0.1533
     24 C          -1.8178    7.8527    0.4922 C.ar    1  LIG1        0.0828
     25 C          -3.1086    7.6259    0.0975 C.ar    1  LIG1        0.0544
     26 S          -3.3156    5.9629   -0.3794 S.2     1  LIG1       -0.0814
     27 O           0.2956    6.7645    0.8053 O.3     1  LIG1       -0.5037
     28 H           0.4195    7.7133    1.0141 H       1  LIG1        0.2923
     29 N          -1.2049    9.0412    0.9791 N.pl3   1  LIG1       -0.3542
     30 H          -1.4507    9.8374    0.3944 H       1  LIG1        0.1425
     31 H          -1.5164    9.2511    1.9239 H       1  LIG1        0.1425
     32 C          -4.1978    8.5803    0.0289 C.ar    1  LIG1        0.0710
     33 C          -4.1501    9.9027   -0.3179 C.ar    1  LIG1        0.1527
     34 C          -5.4204   10.5596   -0.2969 C.ar    1  LIG1        0.0744
     35 C          -6.4312    9.7219    0.0585 C.ar    1  LIG1        0.0006
     36 S          -5.8512    8.1352    0.3917 S.2     1  LIG1       -0.0905
     37 H          -7.4844    9.9483    0.1454 H       1  LIG1        0.0713
     38 O          -3.0460   10.5922   -0.6901 O.3     1  LIG1       -0.5038
     39 H          -3.3818   11.4856   -0.9035 H       1  LIG1        0.2923
     40 N          -5.4398   11.9379   -0.6680 N.pl3   1  LIG1       -0.3547
     41 H          -6.0408   12.1117   -1.4664 H       1  LIG1        0.1424
     42 H          -5.7430   12.5370    0.0927 H       1  LIG1        0.1424
@<TRIPOS>BOND
     1    20    19    1
     2    41    40    1
     3    18    17    1
     4    17    13    1
     5    19    14    1
     6    19    21    1
     7    39    38    1
     8    38    33    1
     9    40    34    1
    10    40    42    1
    11    13    14   ar
    12    13    12   ar
    13    14    15   ar
    14     5     4   ar
    15     5     1   ar
    16    26    22   ar
    17    26    25   ar
    18    33    34   ar
    19    33    32   ar
    20    34    35   ar
    21    12     4    1
    22    12    16   ar
    23    10     9    1
    24     4     3   ar
    25     6     1    1
    26     1     2   ar
    27    15    22    1
    28    15    16   ar
    29    22    23   ar
    30    32    25    1
    31    32    36   ar
    32    35    37    1
    33    35    36   ar
    34     3     2   ar
    35     3     9    1
    36     2     7    1
    37    25    24   ar
    38    11     9    1
    39     7     8    1
    40    30    29    1
    41    23    24   ar
    42    23    27    1
    43    24    29    1
    44    27    28    1
    45    29    31    1
