@<TRIPOS>MOLECULE
mol_data/opt/cam/geoms/mol2/5fh5fh-.out
 22 23 0 0 0
SMALL
GASTEIGER

@<TRIPOS>ATOM
      1 C          -2.0937   -1.8461    0.5132 C.ar    1  LIG1        0.0197
      2 C          -0.7921   -1.8772    0.1277 C.ar    1  LIG1        0.1450
      3 C          -0.2507   -0.5826   -0.1656 C.ar    1  LIG1        0.0822
      4 C          -1.1527    0.4287    0.0270 C.ar    1  LIG1        0.0537
      5 S          -2.6793   -0.2146    0.5683 S.2     1  LIG1       -0.0904
      6 H          -2.7305   -2.6742    0.7815 H       1  LIG1        0.0731
      7 O          -0.0169   -2.9734   -0.0003 O.3     1  LIG1       -0.5044
      8 H           0.8660   -2.6169   -0.2154 H       1  LIG1        0.2922
      9 N           1.1012   -0.5223   -0.6041 N.pl3   1  LIG1       -0.3542
     10 H           1.1554   -0.3734   -1.6080 H       1  LIG1        0.1425
     11 H           1.5940    0.2431   -0.1500 H       1  LIG1        0.1425
     12 C          -0.9458    1.8542   -0.1541 C.ar    1  LIG1        0.0710
     13 C           0.1707    2.5971    0.1119 C.ar    1  LIG1        0.1527
     14 C           0.0313    3.9910   -0.1789 C.ar    1  LIG1        0.0744
     15 C          -1.2029    4.3003   -0.6589 C.ar    1  LIG1        0.0006
     16 S          -2.1996    2.9011   -0.7835 S.2     1  LIG1       -0.0905
     17 H          -1.5816    5.2705   -0.9470 H       1  LIG1        0.0713
     18 O           1.3332    2.1340    0.6305 O.3     1  LIG1       -0.5038
     19 H           1.8909    2.9316    0.7214 H       1  LIG1        0.2923
     20 N           1.1581    4.8244    0.0948 N.pl3   1  LIG1       -0.3547
     21 H           1.5253    5.2613   -0.7440 H       1  LIG1        0.1424
     22 H           0.9400    5.5560    0.7626 H       1  LIG1        0.1424
@<TRIPOS>BOND
     1    10     9    1
     2    17    15    1
     3    16    15   ar
     4    16    12   ar
     5    21    20    1
     6    15    14   ar
     7     9     3    1
     8     9    11    1
     9     8     7    1
    10    14    20    1
    11    14    13   ar
    12     3     4   ar
    13     3     2   ar
    14    12     4    1
    15    12    13   ar
    16     7     2    1
    17     4     5   ar
    18    20    22    1
    19    13    18    1
    20     2     1   ar
    21     1     5   ar
    22     1     6    1
    23    18    19    1
