@<TRIPOS>MOLECULE
mol_data/opt/cam/geoms/mol2/5fh5fh-5fh.out
 32 34 0 0 0
SMALL
GASTEIGER

@<TRIPOS>ATOM
      1 C          -2.0521   -1.8726   -0.8356 C.ar    1  LIG1        0.0197
      2 C          -0.8428   -1.9492   -0.2305 C.ar    1  LIG1        0.1450
      3 C          -0.2401   -0.6744    0.0383 C.ar    1  LIG1        0.0822
      4 C          -1.0370    0.3713   -0.3531 C.ar    1  LIG1        0.0538
      5 S          -2.5066   -0.2266   -1.1007 S.2     1  LIG1       -0.0904
      6 H          -2.6997   -2.6888   -1.1153 H       1  LIG1        0.0731
      7 O          -0.2137   -3.1076    0.1187 O.3     1  LIG1       -0.5044
      8 H           0.2866   -2.9210    0.9269 H       1  LIG1        0.2922
      9 N           0.9912   -0.6535    0.7083 N.pl3   1  LIG1       -0.3542
     10 H           1.6508   -1.2749    0.2490 H       1  LIG1        0.1425
     11 H           1.4020    0.2742    0.7349 H       1  LIG1        0.1425
     12 C          -0.8130    1.7989   -0.2169 C.ar    1  LIG1        0.0716
     13 C           0.3541    2.5095   -0.1825 C.ar    1  LIG1        0.1533
     14 C           0.1944    3.9161   -0.0043 C.ar    1  LIG1        0.0828
     15 C          -1.1163    4.3025    0.0604 C.ar    1  LIG1        0.0544
     16 S          -2.1599    2.9121   -0.0574 S.2     1  LIG1       -0.0814
     17 O           1.6077    2.0006   -0.2909 O.3     1  LIG1       -0.5037
     18 H           2.1808    2.7945   -0.2734 H       1  LIG1        0.2923
     19 N           1.3828    4.6970    0.0677 N.pl3   1  LIG1       -0.3542
     20 H           1.3063    5.5207   -0.5254 H       1  LIG1        0.1425
     21 H           1.5487    5.0211    1.0168 H       1  LIG1        0.1425
     22 C          -1.6434    5.6474    0.1860 C.ar    1  LIG1        0.0710
     23 C          -1.1619    6.8057   -0.3594 C.ar    1  LIG1        0.1527
     24 C          -1.9351    7.9673   -0.0456 C.ar    1  LIG1        0.0744
     25 C          -3.0117    7.6790    0.7339 C.ar    1  LIG1        0.0006
     26 S          -3.0856    6.0009    1.1135 S.2     1  LIG1       -0.0905
     27 H          -3.7651    8.3583    1.1067 H       1  LIG1        0.0713
     28 O          -0.0758    6.9207   -1.1601 O.3     1  LIG1       -0.5038
     29 H          -0.0489    7.8698   -1.3935 H       1  LIG1        0.2923
     30 N          -1.4948    9.2060   -0.6027 N.pl3   1  LIG1       -0.3547
     31 H          -2.1986    9.6302   -1.1974 H       1  LIG1        0.1424
     32 H          -1.2370    9.8788    0.1115 H       1  LIG1        0.1424
@<TRIPOS>BOND
     1    29    28    1
     2    31    30    1
     3    28    23    1
     4     6     1    1
     5     5     1   ar
     6     5     4   ar
     7     1     2   ar
     8    30    24    1
     9    30    32    1
    10    20    19    1
    11    23    24   ar
    12    23    22   ar
    13     4    12    1
    14     4     3   ar
    15    17    18    1
    16    17    13    1
    17     2     3   ar
    18     2     7    1
    19    12    13   ar
    20    12    16   ar
    21    13    14   ar
    22    16    15   ar
    23    24    25   ar
    24    14    15   ar
    25    14    19    1
    26     3     9    1
    27    15    22    1
    28    19    21    1
    29     7     8    1
    30    22    26   ar
    31    10     9    1
    32     9    11    1
    33    25    27    1
    34    25    26   ar
