@<TRIPOS>MOLECULE
mol_data/opt/cam/geoms/mol2/5fh5fh5fh5fh-.out
 42 45 0 0 0
SMALL
GASTEIGER

@<TRIPOS>ATOM
      1 C          -1.8422   -1.8569   -1.4247 C.ar    1  LIG1        0.0197
      2 C          -0.8357   -1.9886   -0.5281 C.ar    1  LIG1        0.1450
      3 C          -0.2937   -0.7416   -0.0685 C.ar    1  LIG1        0.0822
      4 C          -0.9343    0.3399   -0.6172 C.ar    1  LIG1        0.0538
      5 S          -2.1712   -0.1900   -1.7419 S.2     1  LIG1       -0.0904
      6 H          -2.4152   -2.6434   -1.8905 H       1  LIG1        0.0731
      7 O          -0.3497   -3.1742   -0.0630 O.3     1  LIG1       -0.5044
      8 H          -0.0505   -3.0138    0.8444 H       1  LIG1        0.2922
      9 N           0.7210   -0.7817    0.9002 N.pl3   1  LIG1       -0.3542
     10 H           1.4770   -1.3854    0.5891 H       1  LIG1        0.1425
     11 H           1.1150    0.1355    1.0838 H       1  LIG1        0.1425
     12 C          -0.7199    1.7556   -0.3786 C.ar    1  LIG1        0.0716
     13 C           0.4130    2.4275   -0.0133 C.ar    1  LIG1        0.1533
     14 C           0.2460    3.8331    0.1631 C.ar    1  LIG1        0.0828
     15 C          -1.0259    4.2604   -0.1070 C.ar    1  LIG1        0.0544
     16 S          -2.0339    2.9071   -0.5436 S.2     1  LIG1       -0.0814
     17 O           1.6377    1.8823    0.1995 O.3     1  LIG1       -0.5037
     18 H           2.2025    2.6582    0.3959 H       1  LIG1        0.2923
     19 N           1.3910    4.5719    0.5764 N.pl3   1  LIG1       -0.3542
     20 H           1.4960    5.4135    0.0131 H       1  LIG1        0.1425
     21 H           1.3024    4.8671    1.5453 H       1  LIG1        0.1425
     22 C          -1.5344    5.6161   -0.0766 C.ar    1  LIG1        0.0716
     23 C          -0.8939    6.7752   -0.4169 C.ar    1  LIG1        0.1533
     24 C          -1.6821    7.9555   -0.2664 C.ar    1  LIG1        0.0828
     25 C          -2.9563    7.6948    0.1604 C.ar    1  LIG1        0.0544
     26 S          -3.1771    5.9839    0.4086 S.2     1  LIG1       -0.0814
     27 O           0.3715    6.8832   -0.8858 O.3     1  LIG1       -0.5037
     28 H           0.4609    7.8335   -1.1040 H       1  LIG1        0.2923
     29 N          -1.0603    9.1930   -0.5919 N.pl3   1  LIG1       -0.3542
     30 H          -1.6815    9.7710   -1.1541 H       1  LIG1        0.1425
     31 H          -0.8267    9.7191    0.2459 H       1  LIG1        0.1425
     32 C          -4.0334    8.6410    0.3805 C.ar    1  LIG1        0.0710
     33 C          -4.3326    9.7717   -0.3286 C.ar    1  LIG1        0.1527
     34 C          -5.4839   10.4745    0.1475 C.ar    1  LIG1        0.0744
     35 C          -6.0589    9.8627    1.2173 C.ar    1  LIG1        0.0006
     36 S          -5.1997    8.4409    1.6705 S.2     1  LIG1       -0.0905
     37 H          -6.9389   10.1679    1.7655 H       1  LIG1        0.0713
     38 O          -3.6680   10.2345   -1.4131 O.3     1  LIG1       -0.5038
     39 H          -4.1708   11.0289   -1.6826 H       1  LIG1        0.2923
     40 N          -5.8596   11.6530   -0.5648 N.pl3   1  LIG1       -0.3547
     41 H          -6.7946   11.5853   -0.9524 H       1  LIG1        0.1424
     42 H          -5.8165   12.4843    0.0151 H       1  LIG1        0.1424
@<TRIPOS>BOND
     1     6     1    1
     2     5     1   ar
     3     5     4   ar
     4    39    38    1
     5     1     2   ar
     6    38    33    1
     7    30    29    1
     8    28    27    1
     9    41    40    1
    10    27    23    1
    11     4    12    1
    12     4     3   ar
    13    29    24    1
    14    29    31    1
    15    40    42    1
    16    40    34    1
    17    16    12   ar
    18    16    15   ar
    19     2     3   ar
    20     2     7    1
    21    23    24   ar
    22    23    22   ar
    23    12    13   ar
    24    33    34   ar
    25    33    32   ar
    26    24    25   ar
    27    15    22    1
    28    15    14   ar
    29    22    26   ar
    30     3     9    1
    31     7     8    1
    32    13    14   ar
    33    13    17    1
    34    20    19    1
    35    34    35   ar
    36    25    32    1
    37    25    26   ar
    38    14    19    1
    39    17    18    1
    40    32    36   ar
    41    19    21    1
    42    10     9    1
    43     9    11    1
    44    35    36   ar
    45    35    37    1
