@<TRIPOS>MOLECULE
mol_data/opt/cam/geoms/mol2/5fh5fh5fh-5fh.out
 42 45 0 0 0
SMALL
GASTEIGER

@<TRIPOS>ATOM
      1 C          -2.0670   -2.0188   -0.2209 C.ar    1  LIG1        0.0197
      2 C          -0.7443   -2.0332    0.0709 C.ar    1  LIG1        0.1450
      3 C          -0.1300   -0.7361    0.0674 C.ar    1  LIG1        0.0822
      4 C          -1.0254    0.2659   -0.2060 C.ar    1  LIG1        0.0538
      5 S          -2.6172   -0.4051   -0.5079 S.2     1  LIG1       -0.0904
      6 H          -2.7426   -2.8591   -0.2555 H       1  LIG1        0.0731
      7 O          -0.0162   -3.1471    0.3615 O.3     1  LIG1       -0.5044
      8 H           0.6924   -2.8640    0.9591 H       1  LIG1        0.2922
      9 N           1.2301   -0.6519    0.4066 N.pl3   1  LIG1       -0.3542
     10 H           1.7786   -1.2606   -0.1947 H       1  LIG1        0.1425
     11 H           1.5936    0.2900    0.3014 H       1  LIG1        0.1425
     12 C          -0.8160    1.7016   -0.2603 C.ar    1  LIG1        0.0716
     13 C           0.3017    2.4233   -0.5748 C.ar    1  LIG1        0.1533
     14 C           0.1311    3.8392   -0.5380 C.ar    1  LIG1        0.0828
     15 C          -1.1317    4.2180   -0.1714 C.ar    1  LIG1        0.0544
     16 S          -2.1103    2.8126    0.1514 S.2     1  LIG1       -0.0814
     17 O           1.5169    1.9213   -0.9139 O.3     1  LIG1       -0.5037
     18 H           2.0773    2.7203   -1.0000 H       1  LIG1        0.2923
     19 N           1.2552    4.6334   -0.8994 N.pl3   1  LIG1       -0.3542
     20 H           1.1486    5.0095   -1.8381 H       1  LIG1        0.1425
     21 H           1.3540    5.4235   -0.2649 H       1  LIG1        0.1425
     22 C          -1.6541    5.5611   -0.0240 C.ar    1  LIG1        0.0716
     23 C          -1.0164    6.6836    0.4265 C.ar    1  LIG1        0.1533
     24 C          -1.8355    7.8508    0.4777 C.ar    1  LIG1        0.0828
     25 C          -3.1145    7.6247    0.0459 C.ar    1  LIG1        0.0544
     26 S          -3.3069    5.9634   -0.4427 S.2     1  LIG1       -0.0814
     27 O           0.2689    6.7627    0.8462 O.3     1  LIG1       -0.5037
     28 H           0.3863    7.7107    1.0619 H       1  LIG1        0.2923
     29 N          -1.2373    9.0379    0.9860 N.pl3   1  LIG1       -0.3542
     30 H          -1.4671    9.8360    0.3975 H       1  LIG1        0.1425
     31 H          -1.5755    9.2442    1.9223 H       1  LIG1        0.1425
     32 C          -4.2020    8.5788   -0.0498 C.ar    1  LIG1        0.0710
     33 C          -4.1454    9.9025   -0.3904 C.ar    1  LIG1        0.1527
     34 C          -5.4162   10.5586   -0.4028 C.ar    1  LIG1        0.0744
     35 C          -6.4361    9.7190   -0.0790 C.ar    1  LIG1        0.0006
     36 S          -5.8647    8.1314    0.2647 S.2     1  LIG1       -0.0905
     37 H          -7.4914    9.9445   -0.0209 H       1  LIG1        0.0713
     38 O          -3.0317   10.5939   -0.7288 O.3     1  LIG1       -0.5038
     39 H          -3.3619   11.4880   -0.9480 H       1  LIG1        0.2923
     40 N          -5.4261   11.9382   -0.7691 N.pl3   1  LIG1       -0.3547
     41 H          -6.0039   12.1145   -1.5840 H       1  LIG1        0.1424
     42 H          -5.7516   12.5342   -0.0154 H       1  LIG1        0.1424
@<TRIPOS>BOND
     1    20    19    1
     2    41    40    1
     3    18    17    1
     4    39    38    1
     5    17    13    1
     6    19    14    1
     7    19    21    1
     8    40    34    1
     9    40    42    1
    10    38    33    1
    11    13    14   ar
    12    13    12   ar
    13    14    15   ar
    14     5     1   ar
    15     5     4   ar
    16    26    22   ar
    17    26    25   ar
    18    34    33   ar
    19    34    35   ar
    20    33    32   ar
    21    12     4    1
    22    12    16   ar
    23     6     1    1
    24     1     2   ar
    25     4     3   ar
    26    10     9    1
    27    15    22    1
    28    15    16   ar
    29    35    37    1
    30    35    36   ar
    31    32    25    1
    32    32    36   ar
    33    22    23   ar
    34    25    24   ar
    35     3     2   ar
    36     3     9    1
    37     2     7    1
    38    11     9    1
    39     7     8    1
    40    30    29    1
    41    23    24   ar
    42    23    27    1
    43    24    29    1
    44    27    28    1
    45    29    31    1
