@<TRIPOS>MOLECULE
mol_data/opt/cam/geoms/mol2/5fh5fh5fh5fh.out
 42 45 0 0 0
SMALL
GASTEIGER

@<TRIPOS>ATOM
      1 C          -1.5822   -2.0575   -1.2445 C.ar    1  LIG1        0.0197
      2 C          -0.6842   -2.0470   -0.2260 C.ar    1  LIG1        0.1450
      3 C          -0.3091   -0.7291    0.1940 C.ar    1  LIG1        0.0822
      4 C          -0.9158    0.2576   -0.5361 C.ar    1  LIG1        0.0538
      5 S          -1.9595   -0.4400   -1.7460 S.2     1  LIG1       -0.0904
      6 H          -2.0276   -2.9092   -1.7338 H       1  LIG1        0.0731
      7 O          -0.1554   -3.1227    0.3933 O.3     1  LIG1       -0.5044
      8 H           0.4916   -2.7404    1.0169 H       1  LIG1        0.2922
      9 N           0.6043   -0.6244    1.2803 N.pl3   1  LIG1       -0.3542
     10 H           1.3129    0.0800    1.0870 H       1  LIG1        0.1425
     11 H           0.1257   -0.3492    2.1338 H       1  LIG1        0.1425
     12 C          -0.7551    1.6923   -0.3993 C.ar    1  LIG1        0.0716
     13 C           0.3689    2.4003   -0.0782 C.ar    1  LIG1        0.1533
     14 C           0.1830    3.8141   -0.0125 C.ar    1  LIG1        0.0828
     15 C          -1.0926    4.2000   -0.3254 C.ar    1  LIG1        0.0544
     16 S          -2.0809    2.8053   -0.6711 S.2     1  LIG1       -0.0814
     17 O           1.5999    1.8869    0.1571 O.3     1  LIG1       -0.5037
     18 H           2.1658    2.6780    0.2690 H       1  LIG1        0.2923
     19 N           1.3162    4.5993    0.3399 N.pl3   1  LIG1       -0.3542
     20 H           1.3897    5.4143   -0.2659 H       1  LIG1        0.1425
     21 H           1.2438    4.9372    1.2960 H       1  LIG1        0.1425
     22 C          -1.6240    5.5462   -0.3970 C.ar    1  LIG1        0.0716
     23 C          -1.0053    6.6895   -0.8206 C.ar    1  LIG1        0.1533
     24 C          -1.8292    7.8545   -0.7935 C.ar    1  LIG1        0.0828
     25 C          -3.0913    7.6047   -0.3268 C.ar    1  LIG1        0.0544
     26 S          -3.2621    5.9233    0.0964 S.2     1  LIG1       -0.0814
     27 O           0.2636    6.7923   -1.2807 O.3     1  LIG1       -0.5037
     28 H           0.3712    7.7494   -1.4592 H       1  LIG1        0.2923
     29 N          -1.2519    9.0643   -1.2706 N.pl3   1  LIG1       -0.3542
     30 H          -1.6195    9.3079   -2.1867 H       1  LIG1        0.1425
     31 H          -1.4644    9.8363   -0.6422 H       1  LIG1        0.1425
     32 C          -4.1770    8.5494   -0.1508 C.ar    1  LIG1        0.0710
     33 C          -4.1107    9.8573    0.2446 C.ar    1  LIG1        0.1527
     34 C          -5.3815   10.5078    0.3311 C.ar    1  LIG1        0.0744
     35 C          -6.4106    9.6792    0.0083 C.ar    1  LIG1        0.0006
     36 S          -5.8491    8.1100   -0.4239 S.2     1  LIG1       -0.0905
     37 H          -7.4678    9.9034   -0.0024 H       1  LIG1        0.0713
     38 O          -2.9871   10.5372    0.5724 O.3     1  LIG1       -0.5038
     39 H          -3.3109   11.4199    0.8421 H       1  LIG1        0.2923
     40 N          -5.3805   11.8703    0.7564 N.pl3   1  LIG1       -0.3547
     41 H          -5.7305   12.4975    0.0398 H       1  LIG1        0.1424
     42 H          -5.9312   12.0107    1.5965 H       1  LIG1        0.1424
@<TRIPOS>BOND
     1    30    29    1
     2     5     1   ar
     3     5     4   ar
     4     6     1    1
     5    28    27    1
     6    27    23    1
     7    29    24    1
     8    29    31    1
     9     1     2   ar
    10    23    24   ar
    11    23    22   ar
    12    24    25   ar
    13    16    12   ar
    14    16    15   ar
    15     4    12    1
    16     4     3   ar
    17    36    32   ar
    18    36    35   ar
    19    12    13   ar
    20    22    15    1
    21    22    26   ar
    22    25    32    1
    23    25    26   ar
    24    15    14   ar
    25    20    19    1
    26     2     3   ar
    27     2     7    1
    28    32    33   ar
    29    13    14   ar
    30    13    17    1
    31    14    19    1
    32    37    35    1
    33    35    34   ar
    34    41    40    1
    35    17    18    1
    36     3     9    1
    37    33    34   ar
    38    33    38    1
    39    34    40    1
    40    19    21    1
    41     7     8    1
    42    38    39    1
    43    40    42    1
    44    10     9    1
    45     9    11    1
