@<TRIPOS>MOLECULE
mol_data/opt/cam/geoms/mol2/5fh5fh5fh.out
 32 34 0 0 0
SMALL
GASTEIGER

@<TRIPOS>ATOM
      1 C          -2.0453   -2.0095    0.2340 C.ar    1  LIG1        0.0197
      2 C          -0.7674   -1.9636   -0.2227 C.ar    1  LIG1        0.1450
      3 C          -0.2385   -0.6346   -0.3142 C.ar    1  LIG1        0.0822
      4 C          -1.1236    0.3220    0.1047 C.ar    1  LIG1        0.0538
      5 S          -2.6210   -0.4164    0.6079 S.2     1  LIG1       -0.0904
      6 H          -2.6694   -2.8758    0.3869 H       1  LIG1        0.0731
      7 O          -0.0035   -3.0149   -0.5851 O.3     1  LIG1       -0.5044
      8 H           0.8665   -2.6180   -0.7825 H       1  LIG1        0.2922
      9 N           1.0858   -0.4903   -0.8131 N.pl3   1  LIG1       -0.3542
     10 H           1.0800   -0.1695   -1.7777 H       1  LIG1        0.1425
     11 H           1.6036    0.1932   -0.2651 H       1  LIG1        0.1425
     12 C          -0.9217    1.7571    0.1686 C.ar    1  LIG1        0.0716
     13 C           0.2114    2.4517    0.4868 C.ar    1  LIG1        0.1533
     14 C           0.0597    3.8711    0.4790 C.ar    1  LIG1        0.0828
     15 C          -1.2026    4.2711    0.1331 C.ar    1  LIG1        0.0544
     16 S          -2.2079    2.8876   -0.2004 S.2     1  LIG1       -0.0814
     17 O           1.4093    1.9196    0.8286 O.3     1  LIG1       -0.5037
     18 H           1.9866    2.7009    0.9496 H       1  LIG1        0.2923
     19 N           1.1950    4.6447    0.8502 N.pl3   1  LIG1       -0.3542
     20 H           1.3196    5.4286    0.2130 H       1  LIG1        0.1425
     21 H           1.0857    5.0274    1.7857 H       1  LIG1        0.1425
     22 C          -1.7043    5.6262    0.0115 C.ar    1  LIG1        0.0710
     23 C          -1.0511    6.7390   -0.4422 C.ar    1  LIG1        0.1527
     24 C          -1.8486    7.9262   -0.4449 C.ar    1  LIG1        0.0744
     25 C          -3.1141    7.7017   -0.0000 C.ar    1  LIG1        0.0006
     26 S          -3.3447    6.0548    0.4470 S.2     1  LIG1       -0.0905
     27 H          -3.9235    8.4119    0.0923 H       1  LIG1        0.0713
     28 O           0.2243    6.7882   -0.8945 O.3     1  LIG1       -0.5038
     29 H           0.3448    7.7179   -1.1728 H       1  LIG1        0.2923
     30 N          -1.2286    9.1190   -0.9253 N.pl3   1  LIG1       -0.3547
     31 H          -1.7216    9.5147   -1.7186 H       1  LIG1        0.1424
     32 H          -1.1601    9.8327   -0.2074 H       1  LIG1        0.1424
@<TRIPOS>BOND
     1    10     9    1
     2    31    30    1
     3    29    28    1
     4    30    24    1
     5    30    32    1
     6    28    23    1
     7     9     3    1
     8     9    11    1
     9     8     7    1
    10     7     2    1
    11    24    23   ar
    12    24    25   ar
    13    23    22   ar
    14     3     2   ar
    15     3     4   ar
    16     2     1   ar
    17    16    15   ar
    18    16    12   ar
    19    25    27    1
    20    25    26   ar
    21    22    15    1
    22    22    26   ar
    23     4    12    1
    24     4     5   ar
    25    15    14   ar
    26    12    13   ar
    27    20    19    1
    28     1     6    1
    29     1     5   ar
    30    14    13   ar
    31    14    19    1
    32    13    17    1
    33    17    18    1
    34    19    21    1
