@<TRIPOS>MOLECULE
mol_data/opt/cam/geoms/mol2/5fh5fh-5fh-5fh-.out
 42 45 0 0 0
SMALL
GASTEIGER

@<TRIPOS>ATOM
      1 C          -2.0688   -2.0191   -0.1943 C.ar    1  LIG1        0.0197
      2 C          -0.7426   -2.0332    0.0812 C.ar    1  LIG1        0.1450
      3 C          -0.1284   -0.7362    0.0691 C.ar    1  LIG1        0.0822
      4 C          -1.0270    0.2656   -0.1941 C.ar    1  LIG1        0.0538
      5 S          -2.6224   -0.4056   -0.4758 S.2     1  LIG1       -0.0904
      6 H          -2.7447   -2.8594   -0.2199 H       1  LIG1        0.0731
      7 O          -0.0110   -3.1469    0.3637 O.3     1  LIG1       -0.5044
      8 H           0.7049   -2.8633    0.9523 H       1  LIG1        0.2922
      9 N           1.2358   -0.6518    0.3915 N.pl3   1  LIG1       -0.3542
     10 H           1.7769   -1.2609   -0.2161 H       1  LIG1        0.1425
     11 H           1.5981    0.2900    0.2810 H       1  LIG1        0.1425
     12 C          -0.8182    1.7013   -0.2522 C.ar    1  LIG1        0.0716
     13 C           0.2955    2.4226   -0.5809 C.ar    1  LIG1        0.1533
     14 C           0.1254    3.8386   -0.5432 C.ar    1  LIG1        0.0828
     15 C          -1.1328    4.2178   -0.1614 C.ar    1  LIG1        0.0544
     16 S          -2.1073    2.8127    0.1746 S.2     1  LIG1       -0.0814
     17 O           1.5064    1.9203   -0.9345 O.3     1  LIG1       -0.5037
     18 H           2.0657    2.7193   -1.0282 H       1  LIG1        0.2923
     19 N           1.2450    4.6325   -0.9191 N.pl3   1  LIG1       -0.3542
     20 H           1.1269    5.0078   -1.8567 H       1  LIG1        0.1425
     21 H           1.3516    5.4231   -0.2864 H       1  LIG1        0.1425
     22 C          -1.6533    5.5610   -0.0087 C.ar    1  LIG1        0.0716
     23 C          -1.0101    6.6839    0.4330 C.ar    1  LIG1        0.1533
     24 C          -1.8284    7.8511    0.4933 C.ar    1  LIG1        0.0828
     25 C          -3.1127    7.6247    0.0776 C.ar    1  LIG1        0.0544
     26 S          -3.3111    5.9630   -0.4073 S.2     1  LIG1       -0.0814
     27 O           0.2803    6.7632    0.8368 O.3     1  LIG1       -0.5037
     28 H           0.4003    7.7115    1.0503 H       1  LIG1        0.2923
     29 N          -1.2241    9.0386    0.9933 N.pl3   1  LIG1       -0.3542
     30 H          -1.4611    9.8363    0.4070 H       1  LIG1        0.1425
     31 H          -1.5506    9.2457    1.9335 H       1  LIG1        0.1425
     32 C          -4.2012    8.5787   -0.0056 C.ar    1  LIG1        0.0710
     33 C          -4.1488    9.9022   -0.3479 C.ar    1  LIG1        0.1527
     34 C          -5.4197   10.5583   -0.3452 C.ar    1  LIG1        0.0744
     35 C          -6.4355    9.7190   -0.0082 C.ar    1  LIG1        0.0006
     36 S          -5.8599    8.1317    0.3297 S.2     1  LIG1       -0.0905
     37 H          -7.4900    9.9446    0.0627 H       1  LIG1        0.0713
     38 O          -3.0393   10.5933   -0.7005 O.3     1  LIG1       -0.5038
     39 H          -3.3722   11.4872   -0.9165 H       1  LIG1        0.2923
     40 N          -5.4340   11.9376   -0.7126 N.pl3   1  LIG1       -0.3547
     41 H          -6.0218   12.1133   -1.5203 H       1  LIG1        0.1424
     42 H          -5.7502   12.5343    0.0447 H       1  LIG1        0.1424
@<TRIPOS>BOND
     1    20    19    1
     2    41    40    1
     3    18    17    1
     4    17    13    1
     5    19    14    1
     6    19    21    1
     7    39    38    1
     8    40    34    1
     9    40    42    1
    10    38    33    1
    11    13    14   ar
    12    13    12   ar
    13    14    15   ar
    14     5     1   ar
    15     5     4   ar
    16    26    22   ar
    17    26    25   ar
    18    33    34   ar
    19    33    32   ar
    20    34    35   ar
    21    12     4    1
    22    12    16   ar
    23     6     1    1
    24    10     9    1
    25     1     2   ar
    26     4     3   ar
    27    15    22    1
    28    15    16   ar
    29    22    23   ar
    30    35    37    1
    31    35    36   ar
    32    32    25    1
    33    32    36   ar
    34     3     2   ar
    35     3     9    1
    36    25    24   ar
    37     2     7    1
    38    11     9    1
    39     7     8    1
    40    30    29    1
    41    23    24   ar
    42    23    27    1
    43    24    29    1
    44    27    28    1
    45    29    31    1
