@<TRIPOS>MOLECULE
mol_data/opt/cam/geoms/mol2/5fh5fh5fh-.out
 32 34 0 0 0
SMALL
GASTEIGER

@<TRIPOS>ATOM
      1 C          -2.0430   -1.8728   -0.8494 C.ar    1  LIG1        0.0197
      2 C          -0.8411   -1.9490   -0.2299 C.ar    1  LIG1        0.1450
      3 C          -0.2415   -0.6739    0.0449 C.ar    1  LIG1        0.0822
      4 C          -1.0336    0.3715   -0.3570 C.ar    1  LIG1        0.0538
      5 S          -2.4942   -0.2271   -1.1216 S.2     1  LIG1       -0.0904
      6 H          -2.6873   -2.6892   -1.1361 H       1  LIG1        0.0731
      7 O          -0.2163   -3.1070    0.1280 O.3     1  LIG1       -0.5044
      8 H           0.2740   -2.9199    0.9421 H       1  LIG1        0.2922
      9 N           0.9816   -0.6525    0.7296 N.pl3   1  LIG1       -0.3542
     10 H           1.6465   -1.2747    0.2791 H       1  LIG1        0.1425
     11 H           1.3923    0.2752    0.7601 H       1  LIG1        0.1425
     12 C          -0.8112    1.7992   -0.2195 C.ar    1  LIG1        0.0716
     13 C           0.3554    2.5098   -0.1716 C.ar    1  LIG1        0.1533
     14 C           0.1937    3.9165    0.0033 C.ar    1  LIG1        0.0828
     15 C          -1.1177    4.3030    0.0518 C.ar    1  LIG1        0.0544
     16 S          -2.1598    2.9126   -0.0773 S.2     1  LIG1       -0.0814
     17 O           1.6102    2.0007   -0.2644 O.3     1  LIG1       -0.5037
     18 H           2.1832    2.7945   -0.2406 H       1  LIG1        0.2923
     19 N           1.3812    4.6974    0.0889 N.pl3   1  LIG1       -0.3542
     20 H           1.3120    5.5205   -0.5060 H       1  LIG1        0.1425
     21 H           1.5355    5.0225    1.0396 H       1  LIG1        0.1425
     22 C          -1.6461    5.6481    0.1697 C.ar    1  LIG1        0.0710
     23 C          -1.1579    6.8058   -0.3709 C.ar    1  LIG1        0.1527
     24 C          -1.9348    7.9678   -0.0677 C.ar    1  LIG1        0.0744
     25 C          -3.0208    7.6803    0.6990 C.ar    1  LIG1        0.0006
     26 S          -3.0994    6.0026    1.0793 S.2     1  LIG1       -0.0905
     27 H          -3.7785    8.3600    1.0620 H       1  LIG1        0.0713
     28 O          -0.0622    6.9200   -1.1585 O.3     1  LIG1       -0.5038
     29 H          -0.0324    7.8688   -1.3926 H       1  LIG1        0.2923
     30 N          -1.4877    9.2059   -0.6206 N.pl3   1  LIG1       -0.3547
     31 H          -2.1843    9.6296   -1.2241 H       1  LIG1        0.1424
     32 H          -1.2384    9.8793    0.0960 H       1  LIG1        0.1424
@<TRIPOS>BOND
     1    29    28    1
     2    31    30    1
     3    28    23    1
     4     6     1    1
     5     5     1   ar
     6     5     4   ar
     7     1     2   ar
     8    30    24    1
     9    30    32    1
    10    20    19    1
    11    23    24   ar
    12    23    22   ar
    13     4    12    1
    14     4     3   ar
    15    17    18    1
    16    17    13    1
    17     2     3   ar
    18     2     7    1
    19    12    13   ar
    20    12    16   ar
    21    13    14   ar
    22    16    15   ar
    23    24    25   ar
    24    14    15   ar
    25    14    19    1
    26     3     9    1
    27    15    22    1
    28    19    21    1
    29     7     8    1
    30    22    26   ar
    31    10     9    1
    32    25    27    1
    33    25    26   ar
    34     9    11    1
