@<TRIPOS>MOLECULE
mol_data/opt/cam/geoms/mol2/5fh5fh-5fh-.out
 32 34 0 0 0
SMALL
GASTEIGER

@<TRIPOS>ATOM
      1 C          -2.1121   -1.9357   -0.1888 C.ar    1  LIG1        0.0197
      2 C          -0.8159   -1.9355    0.2039 C.ar    1  LIG1        0.1450
      3 C          -0.2000   -0.6389    0.1909 C.ar    1  LIG1        0.0822
      4 C          -1.0708    0.3479   -0.1948 C.ar    1  LIG1        0.0538
      5 S          -2.6359   -0.3382   -0.5893 S.2     1  LIG1       -0.0904
      6 H          -2.7834   -2.7787   -0.2397 H       1  LIG1        0.0731
      7 O          -0.1148   -3.0373    0.5942 O.3     1  LIG1       -0.5044
      8 H           0.5247   -2.7391    1.2580 H       1  LIG1        0.2922
      9 N           1.1278   -0.5343    0.6297 N.pl3   1  LIG1       -0.3542
     10 H           1.7149   -1.1994    0.1345 H       1  LIG1        0.1425
     11 H           1.5119    0.3933    0.4793 H       1  LIG1        0.1425
     12 C          -0.8553    1.7802   -0.2950 C.ar    1  LIG1        0.0716
     13 C           0.2838    2.4886   -0.5577 C.ar    1  LIG1        0.1533
     14 C           0.1145    3.9050   -0.5905 C.ar    1  LIG1        0.0828
     15 C          -1.1708    4.2970   -0.3330 C.ar    1  LIG1        0.0544
     16 S          -2.1729    2.9062   -0.0234 S.2     1  LIG1       -0.0814
     17 O           1.5183    1.9719   -0.7880 O.3     1  LIG1       -0.5037
     18 H           2.0884    2.7647   -0.8631 H       1  LIG1        0.2923
     19 N           1.2642    4.6849   -0.8982 N.pl3   1  LIG1       -0.3542
     20 H           1.2308    5.0238   -1.8561 H       1  LIG1        0.1425
     21 H           1.3217    5.4969   -0.2873 H       1  LIG1        0.1425
     22 C          -1.6999    5.6460   -0.2809 C.ar    1  LIG1        0.0710
     23 C          -1.0943    6.7834    0.1777 C.ar    1  LIG1        0.1527
     24 C          -1.9099    7.9554    0.0973 C.ar    1  LIG1        0.0744
     25 C          -3.1422    7.6958   -0.4163 C.ar    1  LIG1        0.0006
     26 S          -3.3174    6.0327   -0.8278 S.2     1  LIG1       -0.0905
     27 H          -3.9563    8.3882   -0.5768 H       1  LIG1        0.0713
     28 O           0.1515    6.8694    0.7031 O.3     1  LIG1       -0.5038
     29 H           0.2411    7.8096    0.9558 H       1  LIG1        0.2923
     30 N          -1.3398    9.1729    0.5783 N.pl3   1  LIG1       -0.3547
     31 H          -1.2530    9.8716   -0.1522 H       1  LIG1        0.1424
     32 H          -1.8794    9.5748    1.3375 H       1  LIG1        0.1424
@<TRIPOS>BOND
     1    20    19    1
     2    19    14    1
     3    19    21    1
     4    18    17    1
     5    26    25   ar
     6    26    22   ar
     7    17    13    1
     8    14    13   ar
     9    14    15   ar
    10     5     4   ar
    11     5     1   ar
    12    27    25    1
    13    13    12   ar
    14    25    24   ar
    15    15    22    1
    16    15    16   ar
    17    12     4    1
    18    12    16   ar
    19    22    23   ar
    20     6     1    1
    21     4     3   ar
    22     1     2   ar
    23    31    30    1
    24    24    23   ar
    25    24    30    1
    26    10     9    1
    27    23    28    1
    28     3     2   ar
    29     3     9    1
    30     2     7    1
    31    11     9    1
    32    30    32    1
    33     7     8    1
    34    28    29    1
