@<TRIPOS>MOLECULE
mol_data/opt/cam/geoms/mol2/5fh5fh5fh-5fh-.out
 42 45 0 0 0
SMALL
GASTEIGER

@<TRIPOS>ATOM
      1 C          -1.9865   -2.1090   -0.3119 C.ar    1  LIG1        0.0197
      2 C          -0.6882   -2.0568    0.0823 C.ar    1  LIG1        0.1450
      3 C          -0.1638   -0.7248    0.1542 C.ar    1  LIG1        0.0822
      4 C          -1.0739    0.2284   -0.2162 C.ar    1  LIG1        0.0538
      5 S          -2.5894   -0.5175   -0.6497 S.2     1  LIG1       -0.0904
      6 H          -2.6121   -2.9785   -0.4374 H       1  LIG1        0.0731
      7 O           0.0996   -3.1042    0.4029 O.3     1  LIG1       -0.5044
      8 H           0.9742   -2.7006    0.5634 H       1  LIG1        0.2922
      9 N           1.1821   -0.5739    0.5905 N.pl3   1  LIG1       -0.3542
     10 H           1.6694    0.1117    0.0174 H       1  LIG1        0.1425
     11 H           1.2187   -0.2483    1.5528 H       1  LIG1        0.1425
     12 C          -0.8838    1.6648   -0.2817 C.ar    1  LIG1        0.0716
     13 C           0.2291    2.3677   -0.6494 C.ar    1  LIG1        0.1533
     14 C           0.0709    3.7860   -0.6265 C.ar    1  LIG1        0.0828
     15 C          -1.1751    4.1781   -0.2171 C.ar    1  LIG1        0.0544
     16 S          -2.1571    2.7866    0.1546 S.2     1  LIG1       -0.0814
     17 O           1.4126    1.8455   -1.0517 O.3     1  LIG1       -0.5037
     18 H           1.9774    2.6326   -1.1948 H       1  LIG1        0.2923
     19 N           1.1826    4.5673   -1.0495 N.pl3   1  LIG1       -0.3542
     20 H           1.0245    4.9508   -1.9779 H       1  LIG1        0.1425
     21 H           1.3279    5.3533   -0.4189 H       1  LIG1        0.1425
     22 C          -1.6761    5.5285   -0.0619 C.ar    1  LIG1        0.0716
     23 C          -1.0080    6.6451    0.3582 C.ar    1  LIG1        0.1533
     24 C          -1.8097    7.8234    0.4303 C.ar    1  LIG1        0.0828
     25 C          -3.1058    7.6111    0.0450 C.ar    1  LIG1        0.0544
     26 S          -3.3374    5.9494   -0.4244 S.2     1  LIG1       -0.0814
     27 O           0.2916    6.7099    0.7321 O.3     1  LIG1       -0.5037
     28 H           0.4279    7.6577    0.9385 H       1  LIG1        0.2923
     29 N          -1.1783    9.0054    0.9089 N.pl3   1  LIG1       -0.3542
     30 H          -1.4140    9.8019    0.3205 H       1  LIG1        0.1425
     31 H          -1.4839    9.2252    1.8533 H       1  LIG1        0.1425
     32 C          -4.1826    8.5797   -0.0218 C.ar    1  LIG1        0.0710
     33 C          -4.1183    9.8996   -0.3758 C.ar    1  LIG1        0.1527
     34 C          -5.3795   10.5738   -0.3523 C.ar    1  LIG1        0.0744
     35 C          -6.3998    9.7516    0.0121 C.ar    1  LIG1        0.0006
     36 S          -5.8402    8.1588    0.3506 S.2     1  LIG1       -0.0905
     37 H          -7.4493    9.9929    0.1032 H       1  LIG1        0.0713
     38 O          -3.0070   10.5718   -0.7569 O.3     1  LIG1       -0.5038
     39 H          -3.3318   11.4683   -0.9749 H       1  LIG1        0.2923
     40 N          -5.3817   11.9501   -0.7307 N.pl3   1  LIG1       -0.3547
     41 H          -5.9860   12.1287   -1.5255 H       1  LIG1        0.1424
     42 H          -5.6695   12.5580    0.0289 H       1  LIG1        0.1424
@<TRIPOS>BOND
     1    20    19    1
     2    41    40    1
     3    18    17    1
     4    17    13    1
     5    19    14    1
     6    19    21    1
     7    39    38    1
     8    38    33    1
     9    40    34    1
    10    40    42    1
    11     5     1   ar
    12     5     4   ar
    13    13    14   ar
    14    13    12   ar
    15    14    15   ar
    16     6     1    1
    17    26    22   ar
    18    26    25   ar
    19    33    34   ar
    20    33    32   ar
    21    34    35   ar
    22     1     2   ar
    23    12     4    1
    24    12    16   ar
    25    15    22    1
    26    15    16   ar
    27     4     3   ar
    28    22    23   ar
    29    32    25    1
    30    32    36   ar
    31    35    37    1
    32    35    36   ar
    33    10     9    1
    34    25    24   ar
    35     2     3   ar
    36     2     7    1
    37     3     9    1
    38    30    29    1
    39    23    24   ar
    40    23    27    1
    41     7     8    1
    42    24    29    1
    43     9    11    1
    44    27    28    1
    45    29    31    1
