@<TRIPOS>MOLECULE
mol_data/opt/cam/geoms/mol2/5fi.out
 13 13 0 0 0
SMALL
GASTEIGER

@<TRIPOS>ATOM
      1 C          -2.1441   -1.7446   -0.0292 C.ar    1  LIG1        0.0174
      2 C          -0.7859   -1.6965   -0.0517 C.ar    1  LIG1        0.1267
      3 C          -0.2539   -0.3639    0.0232 C.ar    1  LIG1       -0.0020
      4 C          -1.2512    0.5580    0.1009 C.ar    1  LIG1       -0.0179
      5 S          -2.8184   -0.1583    0.0848 S.2     1  LIG1       -0.1011
      6 H          -2.7691   -2.6228   -0.0734 H       1  LIG1        0.0730
      7 H          -1.1445    1.6314    0.1673 H       1  LIG1        0.0697
      8 O          -0.0164   -2.8174   -0.1378 O.3     1  LIG1       -0.5060
      9 H           0.9135   -2.5647   -0.1389 H       1  LIG1        0.2922
     10 C           1.2161   -0.0688    0.0143 C.3     1  LIG1       -0.0357
     11 H           1.4001    1.0046    0.0794 H       1  LIG1        0.0279
     12 H           1.6964   -0.4255   -0.9046 H       1  LIG1        0.0279
     13 H           1.7297   -0.5382    0.8618 H       1  LIG1        0.0279
@<TRIPOS>BOND
     1    12    10    1
     2     9     8    1
     3     8     2    1
     4     6     1    1
     5     2     1   ar
     6     2     3   ar
     7     1     5   ar
     8    10     3    1
     9    10    11    1
    10    10    13    1
    11     3     4   ar
    12     5     4   ar
    13     4     7    1
