@<TRIPOS>MOLECULE
mol_data/opt/cam/geoms/mol2/5fi5fi.out
 24 25 0 0 0
SMALL
GASTEIGER

@<TRIPOS>ATOM
      1 C          -2.0708   -1.7609   -0.6655 C.ar    1  LIG1        0.0180
      2 C          -0.7832   -1.8219   -0.2348 C.ar    1  LIG1        0.1273
      3 C          -0.2287   -0.5501    0.1315 C.ar    1  LIG1        0.0064
      4 C          -1.1290    0.4643   -0.0601 C.ar    1  LIG1        0.0359
      5 S          -2.6469   -0.1353   -0.6670 S.2     1  LIG1       -0.0920
      6 H          -2.6957   -2.5840   -0.9751 H       1  LIG1        0.0730
      7 O          -0.1071   -3.0000   -0.1327 O.3     1  LIG1       -0.5060
      8 H           0.8201   -2.8149    0.0532 H       1  LIG1        0.2922
      9 C           1.1538   -0.3979    0.6874 C.3     1  LIG1       -0.0351
     10 H           1.2399    0.5272    1.2585 H       1  LIG1        0.0279
     11 H           1.9117   -0.3575   -0.1016 H       1  LIG1        0.0279
     12 H           1.3991   -1.2256    1.3631 H       1  LIG1        0.0279
     13 C          -0.9343    1.8885    0.1667 C.ar    1  LIG1        0.0679
     14 C           0.1037    2.6768   -0.2524 C.ar    1  LIG1        0.1350
     15 C          -0.0153    4.0577    0.1152 C.ar    1  LIG1       -0.0014
     16 C          -1.1653    4.2841    0.8056 C.ar    1  LIG1       -0.0172
     17 S          -2.0963    2.8557    1.0372 S.2     1  LIG1       -0.0921
     18 H          -1.5125    5.2289    1.1994 H       1  LIG1        0.0697
     19 O           1.1477    2.1745   -0.9680 O.3     1  LIG1       -0.5053
     20 H           1.6970    2.9025   -1.2803 H       1  LIG1        0.2922
     21 C           1.0107    5.0888   -0.2479 C.3     1  LIG1       -0.0357
     22 H           0.7301    6.0709    0.1354 H       1  LIG1        0.0279
     23 H           1.1226    5.1875   -1.3346 H       1  LIG1        0.0279
     24 H           1.9950    4.8439    0.1674 H       1  LIG1        0.0279
@<TRIPOS>BOND
     1    23    21    1
     2    20    19    1
     3     6     1    1
     4    19    14    1
     5     5     1   ar
     6     5     4   ar
     7     1     2   ar
     8    14    15   ar
     9    14    13   ar
    10    21    15    1
    11    21    22    1
    12    21    24    1
    13     2     7    1
    14     2     3   ar
    15     7     8    1
    16    11     9    1
    17     4     3   ar
    18     4    13    1
    19    15    16   ar
    20     3     9    1
    21    13    17   ar
    22     9    10    1
    23     9    12    1
    24    16    17   ar
    25    16    18    1
