@<TRIPOS>MOLECULE
mol_data/opt/cam/geoms/mol2/5fi5fi-5fi-.out
 35 37 0 0 0
SMALL
GASTEIGER

@<TRIPOS>ATOM
      1 C          -1.8765   -1.7491   -1.2684 C.ar    1  LIG1        0.0180
      2 C          -0.8184   -1.8702   -0.4241 C.ar    1  LIG1        0.1273
      3 C          -0.3159   -0.6190    0.0667 C.ar    1  LIG1        0.0064
      4 C          -1.0117    0.4407   -0.4527 C.ar    1  LIG1        0.0359
      5 S          -2.2819   -0.0914   -1.5191 S.2     1  LIG1       -0.0920
      6 H          -2.4270   -2.5456   -1.7442 H       1  LIG1        0.0730
      7 O          -0.3155   -3.0826   -0.0597 O.3     1  LIG1       -0.5060
      8 H           0.5041   -2.9477    0.4288 H       1  LIG1        0.2922
      9 C           0.8052   -0.5279    1.0560 C.3     1  LIG1       -0.0351
     10 H           0.7701    0.4211    1.5922 H       1  LIG1        0.0279
     11 H           1.7857   -0.5841    0.5727 H       1  LIG1        0.0279
     12 H           0.7379   -1.3292    1.8013 H       1  LIG1        0.0279
     13 C          -0.7879    1.8592   -0.2212 C.ar    1  LIG1        0.0685
     14 C           0.3929    2.5493   -0.2762 C.ar    1  LIG1        0.1356
     15 C           0.2829    3.9497   -0.0012 C.ar    1  LIG1        0.0070
     16 C          -1.0167    4.3171    0.2277 C.ar    1  LIG1        0.0365
     17 S          -2.0933    2.9534    0.1456 S.2     1  LIG1       -0.0831
     18 O           1.5739    1.9304   -0.5560 O.3     1  LIG1       -0.5053
     19 H           2.2318    2.5979   -0.7814 H       1  LIG1        0.2922
     20 C           1.4713    4.8604    0.0453 C.3     1  LIG1       -0.0351
     21 H           1.2563    5.7425    0.6495 H       1  LIG1        0.0279
     22 H           1.7538    5.2190   -0.9498 H       1  LIG1        0.0279
     23 H           2.3345    4.3549    0.4927 H       1  LIG1        0.0279
     24 C          -1.5334    5.6484    0.5051 C.ar    1  LIG1        0.0679
     25 C          -1.2762    6.8114   -0.1707 C.ar    1  LIG1        0.1350
     26 C          -1.9719    7.9574    0.3375 C.ar    1  LIG1       -0.0014
     27 C          -2.7589    7.6234    1.3956 C.ar    1  LIG1       -0.0172
     28 S          -2.6597    5.9546    1.8016 S.2     1  LIG1       -0.0921
     29 H          -3.3946    8.2844    1.9677 H       1  LIG1        0.0697
     30 O          -0.4369    6.8527   -1.2418 O.3     1  LIG1       -0.5053
     31 H          -0.5037    7.7165   -1.6644 H       1  LIG1        0.2922
     32 C          -1.8334    9.3257   -0.2593 C.3     1  LIG1       -0.0357
     33 H          -2.4416   10.0515    0.2827 H       1  LIG1        0.0279
     34 H          -2.1617    9.3491   -1.3056 H       1  LIG1        0.0279
     35 H          -0.7961    9.6779   -0.2273 H       1  LIG1        0.0279
@<TRIPOS>BOND
     1     6     1    1
     2    31    30    1
     3     5     1   ar
     4     5     4   ar
     5    34    32    1
     6     1     2   ar
     7    30    25    1
     8    22    20    1
     9    19    18    1
    10    18    14    1
    11     4    13    1
    12     4     3   ar
    13     2     7    1
    14     2     3   ar
    15    14    13   ar
    16    14    15   ar
    17    32    35    1
    18    32    33    1
    19    32    26    1
    20    13    17   ar
    21    25    26   ar
    22    25    24   ar
    23     7     8    1
    24    15    20    1
    25    15    16   ar
    26    20    23    1
    27    20    21    1
    28     3     9    1
    29    17    16   ar
    30    16    24    1
    31    26    27   ar
    32    24    28   ar
    33    11     9    1
    34     9    10    1
    35     9    12    1
    36    27    28   ar
    37    27    29    1
