@<TRIPOS>MOLECULE
mol_data/opt/cam/geoms/mol2/5fi5fi5fi.out
 35 37 0 0 0
SMALL
GASTEIGER

@<TRIPOS>ATOM
      1 C          -1.8665   -1.7553   -1.2651 C.ar    1  LIG1        0.0180
      2 C          -0.8120   -1.8721   -0.4157 C.ar    1  LIG1        0.1273
      3 C          -0.3127   -0.6186    0.0723 C.ar    1  LIG1        0.0064
      4 C          -1.0071    0.4384   -0.4545 C.ar    1  LIG1        0.0359
      5 S          -2.2722   -0.0990   -1.5243 S.2     1  LIG1       -0.0920
      6 H          -2.4143   -2.5542   -1.7401 H       1  LIG1        0.0730
      7 O          -0.3098   -3.0827   -0.0441 O.3     1  LIG1       -0.5060
      8 H           0.5076   -2.9451    0.4473 H       1  LIG1        0.2922
      9 C           0.8038   -0.5225    1.0662 C.3     1  LIG1       -0.0351
     10 H           0.7657    0.4286    1.5983 H       1  LIG1        0.0279
     11 H           1.7866   -0.5799    0.5874 H       1  LIG1        0.0279
     12 H           0.7339   -1.3209    1.8144 H       1  LIG1        0.0279
     13 C          -0.7855    1.8581   -0.2277 C.ar    1  LIG1        0.0685
     14 C           0.3950    2.5489   -0.2804 C.ar    1  LIG1        0.1356
     15 C           0.2826    3.9503   -0.0115 C.ar    1  LIG1        0.0070
     16 C          -1.0183    4.3176    0.2102 C.ar    1  LIG1        0.0365
     17 S          -2.0933    2.9526    0.1288 S.2     1  LIG1       -0.0831
     18 O           1.5777    1.9299   -0.5525 O.3     1  LIG1       -0.5053
     19 H           2.2361    2.5970   -0.7775 H       1  LIG1        0.2922
     20 C           1.4700    4.8622    0.0365 C.3     1  LIG1       -0.0351
     21 H           1.2517    5.7466    0.6363 H       1  LIG1        0.0279
     22 H           1.7565    5.2171   -0.9587 H       1  LIG1        0.0279
     23 H           2.3317    4.3592    0.4897 H       1  LIG1        0.0279
     24 C          -1.5372    5.6496    0.4799 C.ar    1  LIG1        0.0679
     25 C          -1.2780    6.8100   -0.1995 C.ar    1  LIG1        0.1350
     26 C          -1.9769    7.9575    0.3011 C.ar    1  LIG1       -0.0014
     27 C          -2.7682    7.6271    1.3570 C.ar    1  LIG1       -0.0172
     28 S          -2.6695    5.9600    1.7702 S.2     1  LIG1       -0.0921
     29 H          -3.4070    8.2899    1.9237 H       1  LIG1        0.0697
     30 O          -0.4341    6.8477   -1.2669 O.3     1  LIG1       -0.5053
     31 H          -0.4997    7.7097   -1.6934 H       1  LIG1        0.2922
     32 C          -1.8369    9.3235   -0.3006 C.3     1  LIG1       -0.0357
     33 H          -2.4481   10.0509    0.2357 H       1  LIG1        0.0279
     34 H          -2.1604    9.3424   -1.3485 H       1  LIG1        0.0279
     35 H          -0.8001    9.6767   -0.2654 H       1  LIG1        0.0279
@<TRIPOS>BOND
     1     6     1    1
     2    31    30    1
     3     5     1   ar
     4     5     4   ar
     5    34    32    1
     6    30    25    1
     7     1     2   ar
     8    22    20    1
     9    19    18    1
    10    18    14    1
    11     4    13    1
    12     4     3   ar
    13     2     7    1
    14     2     3   ar
    15    32    35    1
    16    32    33    1
    17    32    26    1
    18    14    13   ar
    19    14    15   ar
    20    13    17   ar
    21    25    26   ar
    22    25    24   ar
    23     7     8    1
    24    15    20    1
    25    15    16   ar
    26    20    23    1
    27    20    21    1
    28     3     9    1
    29    17    16   ar
    30    16    24    1
    31    26    27   ar
    32    24    28   ar
    33    11     9    1
    34     9    10    1
    35     9    12    1
    36    27    28   ar
    37    27    29    1
