@<TRIPOS>MOLECULE
mol_data/opt/cam/geoms/mol2/5fi5fi5fi-.out
 35 37 0 0 0
SMALL
GASTEIGER

@<TRIPOS>ATOM
      1 C          -1.8707   -1.7525   -1.2671 C.ar    1  LIG1        0.0180
      2 C          -0.8177   -1.8714   -0.4161 C.ar    1  LIG1        0.1273
      3 C          -0.3177   -0.6189    0.0739 C.ar    1  LIG1        0.0064
      4 C          -1.0099    0.4395   -0.4529 C.ar    1  LIG1        0.0359
      5 S          -2.2739   -0.0955   -1.5254 S.2     1  LIG1       -0.0920
      6 H          -2.4186   -2.5502   -1.7438 H       1  LIG1        0.0730
      7 O          -0.3175   -3.0829   -0.0449 O.3     1  LIG1       -0.5060
      8 H           0.4992   -2.9467    0.4480 H       1  LIG1        0.2922
      9 C           0.7974   -0.5251    1.0697 C.3     1  LIG1       -0.0351
     10 H           0.7593    0.4255    1.6028 H       1  LIG1        0.0279
     11 H           1.7808   -0.5831    0.5925 H       1  LIG1        0.0279
     12 H           0.7254   -1.3242    1.8170 H       1  LIG1        0.0279
     13 C          -0.7870    1.8586   -0.2244 C.ar    1  LIG1        0.0685
     14 C           0.3943    2.5481   -0.2744 C.ar    1  LIG1        0.1356
     15 C           0.2831    3.9494   -0.0043 C.ar    1  LIG1        0.0070
     16 C          -1.0176    4.3180    0.2156 C.ar    1  LIG1        0.0365
     17 S          -2.0942    2.9544    0.1311 S.2     1  LIG1       -0.0831
     18 O           1.5768    1.9279   -0.5452 O.3     1  LIG1       -0.5053
     19 H           2.2363    2.5945   -0.7686 H       1  LIG1        0.2922
     20 C           1.4715    4.8598    0.0465 C.3     1  LIG1       -0.0351
     21 H           1.2533    5.7439    0.6468 H       1  LIG1        0.0279
     22 H           1.7601    5.2153   -0.9479 H       1  LIG1        0.0279
     23 H           2.3319    4.3554    0.5007 H       1  LIG1        0.0279
     24 C          -1.5355    5.6503    0.4857 C.ar    1  LIG1        0.0679
     25 C          -1.2738    6.8111   -0.1920 C.ar    1  LIG1        0.1350
     26 C          -1.9722    7.9589    0.3085 C.ar    1  LIG1       -0.0014
     27 C          -2.7656    7.6284    1.3628 C.ar    1  LIG1       -0.0172
     28 S          -2.6696    5.9608    1.7745 S.2     1  LIG1       -0.0921
     29 H          -3.4046    8.2913    1.9291 H       1  LIG1        0.0697
     30 O          -0.4281    6.8488   -1.2581 O.3     1  LIG1       -0.5053
     31 H          -0.4920    7.7113   -1.6839 H       1  LIG1        0.2922
     32 C          -1.8296    9.3253   -0.2916 C.3     1  LIG1       -0.0357
     33 H          -2.4408   10.0529    0.2444 H       1  LIG1        0.0279
     34 H          -2.1513    9.3457   -1.3400 H       1  LIG1        0.0279
     35 H          -0.7924    9.6773   -0.2543 H       1  LIG1        0.0279
@<TRIPOS>BOND
     1     6     1    1
     2    31    30    1
     3     5     1   ar
     4     5     4   ar
     5    34    32    1
     6     1     2   ar
     7    30    25    1
     8    22    20    1
     9    19    18    1
    10    18    14    1
    11     4    13    1
    12     4     3   ar
    13     2     7    1
    14     2     3   ar
    15    32    35    1
    16    32    33    1
    17    32    26    1
    18    14    13   ar
    19    14    15   ar
    20    13    17   ar
    21    25    26   ar
    22    25    24   ar
    23     7     8    1
    24    15    20    1
    25    15    16   ar
    26    20    23    1
    27    20    21    1
    28     3     9    1
    29    17    16   ar
    30    16    24    1
    31    26    27   ar
    32    24    28   ar
    33    11     9    1
    34     9    10    1
    35     9    12    1
    36    27    28   ar
    37    27    29    1
