@<TRIPOS>MOLECULE
mol_data/opt/cam/geoms/mol2/5fi5fi5fi-5fi-.out
 46 49 0 0 0
SMALL
GASTEIGER

@<TRIPOS>ATOM
      1 C          -1.3967   -1.6525   -2.0079 C.ar    1  LIG1        0.0180
      2 C          -0.7724   -1.8398   -0.8154 C.ar    1  LIG1        0.1273
      3 C          -0.4471   -0.6229   -0.1281 C.ar    1  LIG1        0.0064
      4 C          -0.8234    0.4787   -0.8504 C.ar    1  LIG1        0.0359
      5 S          -1.5851    0.0275   -2.3506 S.2     1  LIG1       -0.0920
      6 H          -1.7497   -2.4128   -2.6869 H       1  LIG1        0.0730
      7 O          -0.5180   -3.0816   -0.3161 O.3     1  LIG1       -0.5060
      8 H           0.0397   -2.9964    0.4651 H       1  LIG1        0.2922
      9 C           0.1863   -0.6029    1.2291 C.3     1  LIG1       -0.0351
     10 H          -0.0139    0.3430    1.7336 H       1  LIG1        0.0279
     11 H           1.2744   -0.7116    1.1770 H       1  LIG1        0.0279
     12 H          -0.2139   -1.4040    1.8617 H       1  LIG1        0.0279
     13 C          -0.6409    1.8803   -0.5070 C.ar    1  LIG1        0.0685
     14 C           0.4964    2.5016   -0.0662 C.ar    1  LIG1        0.1356
     15 C           0.3560    3.9037    0.1842 C.ar    1  LIG1        0.0070
     16 C          -0.9068    4.3445   -0.1129 C.ar    1  LIG1        0.0365
     17 S          -1.9276    3.0454   -0.6584 S.2     1  LIG1       -0.0831
     18 O           1.6587    1.8179    0.1283 O.3     1  LIG1       -0.5053
     19 H           2.3819    2.4493    0.2153 H       1  LIG1        0.2922
     20 C           1.4704    4.7423    0.7309 C.3     1  LIG1       -0.0351
     21 H           1.0760    5.6300    1.2268 H       1  LIG1        0.0279
     22 H           2.1455    5.0936   -0.0560 H       1  LIG1        0.0279
     23 H           2.0553    4.1825    1.4697 H       1  LIG1        0.0279
     24 C          -1.4246    5.7002   -0.0243 C.ar    1  LIG1        0.0685
     25 C          -0.8564    6.8539   -0.4941 C.ar    1  LIG1        0.1356
     26 C          -1.6236    8.0390   -0.2590 C.ar    1  LIG1        0.0070
     27 C          -2.8084    7.7553    0.3673 C.ar    1  LIG1        0.0365
     28 S          -2.9685    6.0559    0.7012 S.2     1  LIG1       -0.0831
     29 O           0.3525    6.8551   -1.1212 O.3     1  LIG1       -0.5053
     30 H           0.4668    7.6947   -1.5808 H       1  LIG1        0.2922
     31 C          -1.1423    9.4043   -0.6438 C.3     1  LIG1       -0.0351
     32 H          -1.6242   10.1679   -0.0319 H       1  LIG1        0.0279
     33 H          -1.3726    9.6425   -1.6872 H       1  LIG1        0.0279
     34 H          -0.0605    9.4947   -0.4946 H       1  LIG1        0.0279
     35 C          -3.8657    8.6819    0.7405 C.ar    1  LIG1        0.0679
     36 C          -4.4526    9.6470   -0.0338 C.ar    1  LIG1        0.1350
     37 C          -5.4977   10.3773    0.6222 C.ar    1  LIG1       -0.0014
     38 C          -5.6838    9.9304    1.8934 C.ar    1  LIG1       -0.0172
     39 S          -4.6076    8.6576    2.3192 S.2     1  LIG1       -0.0921
     40 H          -6.4042   10.2950    2.6121 H       1  LIG1        0.0697
     41 O          -4.0706    9.8697   -1.3210 O.3     1  LIG1       -0.5053
     42 H          -4.6974   10.4711   -1.7391 H       1  LIG1        0.2922
     43 C          -6.2700   11.4735   -0.0481 C.3     1  LIG1       -0.0357
     44 H          -7.0101   11.9009    0.6300 H       1  LIG1        0.0279
     45 H          -6.8135   11.1095   -0.9286 H       1  LIG1        0.0279
     46 H          -5.6144   12.2888   -0.3743 H       1  LIG1        0.0279
@<TRIPOS>BOND
     1     6     1    1
     2     5     1   ar
     3     5     4   ar
     4     1     2   ar
     5    42    41    1
     6    33    31    1
     7    30    29    1
     8    41    36    1
     9    29    25    1
    10    45    43    1
    11     4    13    1
    12     4     3   ar
    13     2     7    1
    14     2     3   ar
    15    17    13   ar
    16    17    16   ar
    17    31    34    1
    18    31    26    1
    19    31    32    1
    20    13    14   ar
    21    25    26   ar
    22    25    24   ar
    23    46    43    1
    24     7     8    1
    25    26    27   ar
    26     3     9    1
    27    16    24    1
    28    16    15   ar
    29    14    18    1
    30    14    15   ar
    31    22    20    1
    32    43    37    1
    33    43    44    1
    34    36    37   ar
    35    36    35   ar
    36    24    28   ar
    37    18    19    1
    38    15    20    1
    39    27    28   ar
    40    27    35    1
    41    37    38   ar
    42    20    21    1
    43    20    23    1
    44    35    39   ar
    45    11     9    1
    46     9    10    1
    47     9    12    1
    48    38    39   ar
    49    38    40    1
