@<TRIPOS>MOLECULE
mol_data/opt/cam/geoms/mol2/5fi5fi5fi5fi-.out
 46 49 0 0 0
SMALL
GASTEIGER

@<TRIPOS>ATOM
      1 C          -1.4010   -1.6482   -2.0179 C.ar    1  LIG1        0.0180
      2 C          -0.7714   -1.8375   -0.8284 C.ar    1  LIG1        0.1273
      3 C          -0.4440   -0.6219   -0.1400 C.ar    1  LIG1        0.0064
      4 C          -0.8241    0.4809   -0.8585 C.ar    1  LIG1        0.0359
      5 S          -1.5919    0.0324   -2.3563 S.2     1  LIG1       -0.0920
      6 H          -1.7565   -2.4074   -2.6969 H       1  LIG1        0.0730
      7 O          -0.5141   -3.0802   -0.3328 O.3     1  LIG1       -0.5060
      8 H           0.0470   -2.9963    0.4462 H       1  LIG1        0.2922
      9 C           0.1953   -0.6042    1.2145 C.3     1  LIG1       -0.0351
     10 H          -0.0033    0.3406    1.7217 H       1  LIG1        0.0279
     11 H           1.2831   -0.7122    1.1575 H       1  LIG1        0.0279
     12 H          -0.2017   -1.4069    1.8471 H       1  LIG1        0.0279
     13 C          -0.6409    1.8820   -0.5130 C.ar    1  LIG1        0.0685
     14 C           0.4978    2.5031   -0.0759 C.ar    1  LIG1        0.1356
     15 C           0.3576    3.9046    0.1780 C.ar    1  LIG1        0.0070
     16 C          -0.9068    4.3452   -0.1128 C.ar    1  LIG1        0.0365
     17 S          -1.9291    3.0466   -0.6565 S.2     1  LIG1       -0.0831
     18 O           1.6614    1.8197    0.1123 O.3     1  LIG1       -0.5053
     19 H           2.3845    2.4514    0.1975 H       1  LIG1        0.2922
     20 C           1.4738    4.7428    0.7216 C.3     1  LIG1       -0.0351
     21 H           1.0810    5.6292    1.2210 H       1  LIG1        0.0279
     22 H           2.1453    5.0962   -0.0674 H       1  LIG1        0.0279
     23 H           2.0622    4.1819    1.4567 H       1  LIG1        0.0279
     24 C          -1.4250    5.7004   -0.0192 C.ar    1  LIG1        0.0685
     25 C          -0.8596    6.8554   -0.4891 C.ar    1  LIG1        0.1356
     26 C          -1.6265    8.0395   -0.2482 C.ar    1  LIG1        0.0070
     27 C          -2.8084    7.7537    0.3826 C.ar    1  LIG1        0.0365
     28 S          -2.9660    6.0536    0.7137 S.2     1  LIG1       -0.0831
     29 O           0.3466    6.8586   -1.1213 O.3     1  LIG1       -0.5053
     30 H           0.4584    7.6993   -1.5797 H       1  LIG1        0.2922
     31 C          -1.1477    9.4059   -0.6323 C.3     1  LIG1       -0.0351
     32 H          -1.6274   10.1679   -0.0168 H       1  LIG1        0.0279
     33 H          -1.3826    9.6461   -1.6742 H       1  LIG1        0.0279
     34 H          -0.0653    9.4968   -0.4875 H       1  LIG1        0.0279
     35 C          -3.8647    8.6790    0.7623 C.ar    1  LIG1        0.0679
     36 C          -4.4555    9.6453   -0.0076 C.ar    1  LIG1        0.1350
     37 C          -5.4982   10.3735    0.6544 C.ar    1  LIG1       -0.0014
     38 C          -5.6786    9.9239    1.9255 C.ar    1  LIG1       -0.0172
     39 S          -4.5998    8.6509    2.3441 S.2     1  LIG1       -0.0921
     40 H          -6.3961   10.2865    2.6481 H       1  LIG1        0.0697
     41 O          -4.0792    9.8708   -1.2959 O.3     1  LIG1       -0.5053
     42 H          -4.7082   10.4726   -1.7101 H       1  LIG1        0.2922
     43 C          -6.2742   11.4706   -0.0103 C.3     1  LIG1       -0.0357
     44 H          -7.0115   11.8962    0.6719 H       1  LIG1        0.0279
     45 H          -6.8212   11.1080   -0.8892 H       1  LIG1        0.0279
     46 H          -5.6204   12.2869   -0.3378 H       1  LIG1        0.0279
@<TRIPOS>BOND
     1     6     1    1
     2     5     1   ar
     3     5     4   ar
     4     1     2   ar
     5    42    41    1
     6    33    31    1
     7    30    29    1
     8    41    36    1
     9    29    25    1
    10    45    43    1
    11     4    13    1
    12     4     3   ar
    13     2     7    1
    14     2     3   ar
    15    17    13   ar
    16    17    16   ar
    17    31    34    1
    18    31    26    1
    19    31    32    1
    20    13    14   ar
    21    25    26   ar
    22    25    24   ar
    23    46    43    1
    24     7     8    1
    25    26    27   ar
    26     3     9    1
    27    16    24    1
    28    16    15   ar
    29    14    18    1
    30    14    15   ar
    31    22    20    1
    32    24    28   ar
    33    43    37    1
    34    43    44    1
    35    36    37   ar
    36    36    35   ar
    37    18    19    1
    38    15    20    1
    39    27    28   ar
    40    27    35    1
    41    37    38   ar
    42    20    21    1
    43    20    23    1
    44    35    39   ar
    45    11     9    1
    46     9    10    1
    47     9    12    1
    48    38    39   ar
    49    38    40    1
