@<TRIPOS>MOLECULE
mol_data/opt/cam/geoms/mol2/5fi5fi-5fi.out
 35 37 0 0 0
SMALL
GASTEIGER

@<TRIPOS>ATOM
      1 C          -1.8842   -1.7501   -1.2612 C.ar    1  LIG1        0.0180
      2 C          -0.8221   -1.8706   -0.4219 C.ar    1  LIG1        0.1273
      3 C          -0.3168   -0.6190    0.0650 C.ar    1  LIG1        0.0064
      4 C          -1.0148    0.4403   -0.4522 C.ar    1  LIG1        0.0359
      5 S          -2.2903   -0.0926   -1.5119 S.2     1  LIG1       -0.0920
      6 H          -2.4372   -2.5470   -1.7334 H       1  LIG1        0.0730
      7 O          -0.3178   -3.0828   -0.0585 O.3     1  LIG1       -0.5060
      8 H           0.5042   -2.9475    0.4258 H       1  LIG1        0.2922
      9 C           0.8090   -0.5271    1.0488 C.3     1  LIG1       -0.0351
     10 H           0.7768    0.4225    1.5841 H       1  LIG1        0.0279
     11 H           1.7872   -0.5841    0.5608 H       1  LIG1        0.0279
     12 H           0.7451   -1.3275    1.7953 H       1  LIG1        0.0279
     13 C          -0.7894    1.8590   -0.2234 C.ar    1  LIG1        0.0685
     14 C           0.3913    2.5487   -0.2850 C.ar    1  LIG1        0.1356
     15 C           0.2830    3.9494   -0.0110 C.ar    1  LIG1        0.0070
     16 C          -1.0153    4.3175    0.2237 C.ar    1  LIG1        0.0365
     17 S          -2.0927    2.9540    0.1483 S.2     1  LIG1       -0.0831
     18 O           1.5707    1.9291   -0.5698 O.3     1  LIG1       -0.5053
     19 H           2.2278    2.5962   -0.7990 H       1  LIG1        0.2922
     20 C           1.4719    4.8598    0.0286 C.3     1  LIG1       -0.0351
     21 H           1.2601    5.7427    0.6329 H       1  LIG1        0.0279
     22 H           1.7496    5.2173   -0.9682 H       1  LIG1        0.0279
     23 H           2.3371    4.3546    0.4724 H       1  LIG1        0.0279
     24 C          -1.5303    5.6493    0.5020 C.ar    1  LIG1        0.0679
     25 C          -1.2760    6.8114   -0.1763 C.ar    1  LIG1        0.1350
     26 C          -1.9689    7.9583    0.3339 C.ar    1  LIG1       -0.0014
     27 C          -2.7508    7.6257    1.3962 C.ar    1  LIG1       -0.0172
     28 S          -2.6502    5.9573    1.8037 S.2     1  LIG1       -0.0921
     29 H          -3.3836    8.2875    1.9707 H       1  LIG1        0.0697
     30 O          -0.4419    6.8512   -1.2515 O.3     1  LIG1       -0.5053
     31 H          -0.5105    7.7145   -1.6749 H       1  LIG1        0.2922
     32 C          -1.8329    9.3258   -0.2651 C.3     1  LIG1       -0.0357
     33 H          -2.4382   10.0524    0.2789 H       1  LIG1        0.0279
     34 H          -2.1661    9.3481   -1.3099 H       1  LIG1        0.0279
     35 H          -0.7953    9.6778   -0.2384 H       1  LIG1        0.0279
@<TRIPOS>BOND
     1     6     1    1
     2    31    30    1
     3     5     1   ar
     4     5     4   ar
     5    34    32    1
     6     1     2   ar
     7    30    25    1
     8    22    20    1
     9    19    18    1
    10    18    14    1
    11     4    13    1
    12     4     3   ar
    13     2     7    1
    14     2     3   ar
    15    14    13   ar
    16    14    15   ar
    17    32    35    1
    18    32    33    1
    19    32    26    1
    20    13    17   ar
    21    25    26   ar
    22    25    24   ar
    23     7     8    1
    24    15    20    1
    25    15    16   ar
    26    20    23    1
    27    20    21    1
    28     3     9    1
    29    17    16   ar
    30    16    24    1
    31    26    27   ar
    32    24    28   ar
    33    11     9    1
    34     9    10    1
    35     9    12    1
    36    27    28   ar
    37    27    29    1
