@<TRIPOS>MOLECULE
mol_data/opt/cam/geoms/mol2/5fi5fi-5fi5fi-.out
 46 49 0 0 0
SMALL
GASTEIGER

@<TRIPOS>ATOM
      1 C          -1.4247   -1.6452   -2.0107 C.ar    1  LIG1        0.0180
      2 C          -0.7856   -1.8371   -0.8268 C.ar    1  LIG1        0.1273
      3 C          -0.4512   -0.6229   -0.1392 C.ar    1  LIG1        0.0064
      4 C          -0.8361    0.4815   -0.8527 C.ar    1  LIG1        0.0359
      5 S          -1.6168    0.0362   -2.3448 S.2     1  LIG1       -0.0920
      6 H          -1.7866   -2.4029   -2.6880 H       1  LIG1        0.0730
      7 O          -0.5254   -3.0809   -0.3353 O.3     1  LIG1       -0.5060
      8 H           0.0421   -2.9988    0.4391 H       1  LIG1        0.2922
      9 C           0.1993   -0.6081    1.2100 C.3     1  LIG1       -0.0351
     10 H           0.0059    0.3360    1.7204 H       1  LIG1        0.0279
     11 H           1.2865   -0.7171    1.1438 H       1  LIG1        0.0279
     12 H          -0.1933   -1.4114    1.8446 H       1  LIG1        0.0279
     13 C          -0.6486    1.8818   -0.5064 C.ar    1  LIG1        0.0685
     14 C           0.4943    2.5010   -0.0777 C.ar    1  LIG1        0.1356
     15 C           0.3577    3.9023    0.1796 C.ar    1  LIG1        0.0070
     16 C          -0.9086    4.3446   -0.0999 C.ar    1  LIG1        0.0365
     17 S          -1.9367    3.0479   -0.6373 S.2     1  LIG1       -0.0831
     18 O           1.6587    1.8162    0.0997 O.3     1  LIG1       -0.5053
     19 H           2.3832    2.4470    0.1799 H       1  LIG1        0.2922
     20 C           1.4792    4.7384    0.7154 C.3     1  LIG1       -0.0351
     21 H           1.0915    5.6244    1.2194 H       1  LIG1        0.0279
     22 H           2.1445    5.0924   -0.0786 H       1  LIG1        0.0279
     23 H           2.0731    4.1757    1.4447 H       1  LIG1        0.0279
     24 C          -1.4246    5.7002    0.0002 C.ar    1  LIG1        0.0685
     25 C          -0.8619    6.8554   -0.4725 C.ar    1  LIG1        0.1356
     26 C          -1.6256    8.0399   -0.2233 C.ar    1  LIG1        0.0070
     27 C          -2.8026    7.7542    0.4168 C.ar    1  LIG1        0.0365
     28 S          -2.9591    6.0537    0.7464 S.2     1  LIG1       -0.0831
     29 O           0.3390    6.8584   -1.1147 O.3     1  LIG1       -0.5053
     30 H           0.4478    7.6997   -1.5727 H       1  LIG1        0.2922
     31 C          -1.1487    9.4064   -0.6092 C.3     1  LIG1       -0.0351
     32 H          -1.6225   10.1679    0.0116 H       1  LIG1        0.0279
     33 H          -1.3919    9.6485   -1.6487 H       1  LIG1        0.0279
     34 H          -0.0650    9.4959   -0.4732 H       1  LIG1        0.0279
     35 C          -3.8547    8.6799    0.8067 C.ar    1  LIG1        0.0679
     36 C          -4.4509    9.6481    0.0434 C.ar    1  LIG1        0.1350
     37 C          -5.4874   10.3763    0.7151 C.ar    1  LIG1       -0.0014
     38 C          -5.6577    9.9248    1.9870 C.ar    1  LIG1       -0.0172
     39 S          -4.5767    8.6500    2.3945 S.2     1  LIG1       -0.0921
     40 H          -6.3688   10.2869    2.7160 H       1  LIG1        0.0697
     41 O          -4.0851    9.8753   -1.2477 O.3     1  LIG1       -0.5053
     42 H          -4.7168   10.4785   -1.6557 H       1  LIG1        0.2922
     43 C          -6.2676   11.4753    0.0587 C.3     1  LIG1       -0.0357
     44 H          -6.9989   11.9004    0.7476 H       1  LIG1        0.0279
     45 H          -6.8223   11.1147   -0.8163 H       1  LIG1        0.0279
     46 H          -5.6158   12.2915   -0.2728 H       1  LIG1        0.0279
@<TRIPOS>BOND
     1     6     1    1
     2     5     1   ar
     3     5     4   ar
     4     1     2   ar
     5    42    41    1
     6    33    31    1
     7    30    29    1
     8    41    36    1
     9    29    25    1
    10     4    13    1
    11     4     3   ar
    12     2     7    1
    13     2     3   ar
    14    45    43    1
    15    17    13   ar
    16    17    16   ar
    17    31    34    1
    18    31    26    1
    19    31    32    1
    20    13    14   ar
    21    25    26   ar
    22    25    24   ar
    23     7     8    1
    24    46    43    1
    25    26    27   ar
    26     3     9    1
    27    16    24    1
    28    16    15   ar
    29    22    20    1
    30    14    18    1
    31    14    15   ar
    32    24    28   ar
    33    36    37   ar
    34    36    35   ar
    35    43    37    1
    36    43    44    1
    37    18    19    1
    38    15    20    1
    39    27    28   ar
    40    27    35    1
    41    37    38   ar
    42    20    21    1
    43    20    23    1
    44    35    39   ar
    45    11     9    1
    46     9    10    1
    47     9    12    1
    48    38    39   ar
    49    38    40    1
