@<TRIPOS>MOLECULE
mol_data/opt/cam/geoms/mol2/5fi5fi-.out
 24 25 0 0 0
SMALL
GASTEIGER

@<TRIPOS>ATOM
      1 C          -2.0754   -1.7617   -0.6554 C.ar    1  LIG1        0.0180
      2 C          -0.7850   -1.8222   -0.2328 C.ar    1  LIG1        0.1273
      3 C          -0.2281   -0.5499    0.1280 C.ar    1  LIG1        0.0064
      4 C          -1.1295    0.4643   -0.0595 C.ar    1  LIG1        0.0359
      5 S          -2.6513   -0.1360   -0.6558 S.2     1  LIG1       -0.0920
      6 H          -2.7023   -2.5852   -0.9597 H       1  LIG1        0.0730
      7 O          -0.1085   -3.0002   -0.1332 O.3     1  LIG1       -0.5060
      8 H           0.8198   -2.8150    0.0467 H       1  LIG1        0.2922
      9 C           1.1579   -0.3970    0.6748 C.3     1  LIG1       -0.0351
     10 H           1.2477    0.5289    1.2440 H       1  LIG1        0.0279
     11 H           1.9108   -0.3578   -0.1190 H       1  LIG1        0.0279
     12 H           1.4075   -1.2237    1.3502 H       1  LIG1        0.0279
     13 C          -0.9332    1.8889    0.1638 C.ar    1  LIG1        0.0679
     14 C           0.1022    2.6763   -0.2631 C.ar    1  LIG1        0.1350
     15 C          -0.0142    4.0579    0.1031 C.ar    1  LIG1       -0.0014
     16 C          -1.1597    4.2855    0.8004 C.ar    1  LIG1       -0.0172
     17 S          -2.0894    2.8576    1.0402 S.2     1  LIG1       -0.0921
     18 H          -1.5044    5.2310    1.1949 H       1  LIG1        0.0697
     19 O           1.1417    2.1728   -0.9845 O.3     1  LIG1       -0.5053
     20 H           1.6890    2.9002   -1.3016 H       1  LIG1        0.2922
     21 C           1.0096    5.0882   -0.2682 C.3     1  LIG1       -0.0357
     22 H           0.7314    6.0710    0.1152 H       1  LIG1        0.0279
     23 H           1.1148    5.1850   -1.3557 H       1  LIG1        0.0279
     24 H           1.9964    4.8440    0.1415 H       1  LIG1        0.0279
@<TRIPOS>BOND
     1    23    21    1
     2    20    19    1
     3    19    14    1
     4     6     1    1
     5     5     1   ar
     6     5     4   ar
     7     1     2   ar
     8    21    15    1
     9    21    22    1
    10    21    24    1
    11    14    15   ar
    12    14    13   ar
    13     2     7    1
    14     2     3   ar
    15     7     8    1
    16    11     9    1
    17     4     3   ar
    18     4    13    1
    19    15    16   ar
    20     3     9    1
    21    13    17   ar
    22     9    10    1
    23     9    12    1
    24    16    17   ar
    25    16    18    1
