@<TRIPOS>MOLECULE
mol_data/opt/cam/geoms/mol2/5fi5fi-5fi-5fi.out
 46 49 0 0 0
SMALL
GASTEIGER

@<TRIPOS>ATOM
      1 C          -1.4124   -1.6479   -2.0009 C.ar    1  LIG1        0.0180
      2 C          -0.7784   -1.8378   -0.8139 C.ar    1  LIG1        0.1273
      3 C          -0.4477   -0.6225   -0.1265 C.ar    1  LIG1        0.0064
      4 C          -0.8300    0.4807   -0.8433 C.ar    1  LIG1        0.0359
      5 S          -1.6039    0.0328   -2.3382 S.2     1  LIG1       -0.0920
      6 H          -1.7710   -2.4068   -2.6787 H       1  LIG1        0.0730
      7 O          -0.5198   -3.0808   -0.3195 O.3     1  LIG1       -0.5060
      8 H           0.0442   -2.9973    0.4574 H       1  LIG1        0.2922
      9 C           0.1968   -0.6054    1.2255 C.3     1  LIG1       -0.0351
     10 H           0.0007    0.3393    1.7337 H       1  LIG1        0.0279
     11 H           1.2844   -0.7139    1.1643 H       1  LIG1        0.0279
     12 H          -0.1981   -1.4080    1.8595 H       1  LIG1        0.0279
     13 C          -0.6448    1.8815   -0.4982 C.ar    1  LIG1        0.0685
     14 C           0.4960    2.5020   -0.0654 C.ar    1  LIG1        0.1356
     15 C           0.3575    3.9036    0.1893 C.ar    1  LIG1        0.0070
     16 C          -0.9077    4.3448   -0.0964 C.ar    1  LIG1        0.0365
     17 S          -1.9328    3.0468   -0.6365 S.2     1  LIG1       -0.0831
     18 O           1.6599    1.8180    0.1182 O.3     1  LIG1       -0.5053
     19 H           2.3837    2.4493    0.2005 H       1  LIG1        0.2922
     20 C           1.4763    4.7410    0.7288 C.3     1  LIG1       -0.0351
     21 H           1.0859    5.6275    1.2299 H       1  LIG1        0.0279
     22 H           2.1449    5.0941   -0.0627 H       1  LIG1        0.0279
     23 H           2.0672    4.1796    1.4615 H       1  LIG1        0.0279
     24 C          -1.4249    5.7003   -0.0006 C.ar    1  LIG1        0.0685
     25 C          -0.8607    6.8551   -0.4724 C.ar    1  LIG1        0.1356
     26 C          -1.6260    8.0395   -0.2284 C.ar    1  LIG1        0.0070
     27 C          -2.8057    7.7543    0.4070 C.ar    1  LIG1        0.0365
     28 S          -2.9628    6.0541    0.7384 S.2     1  LIG1       -0.0831
     29 O           0.3431    6.8578   -1.1094 O.3     1  LIG1       -0.5053
     30 H           0.4535    7.6985   -1.5680 H       1  LIG1        0.2922
     31 C          -1.1481    9.4058   -0.6141 C.3     1  LIG1       -0.0351
     32 H          -1.6249   10.1679    0.0036 H       1  LIG1        0.0279
     33 H          -1.3869    9.6463   -1.6549 H       1  LIG1        0.0279
     34 H          -0.0650    9.4960   -0.4735 H       1  LIG1        0.0279
     35 C          -3.8599    8.6800    0.7909 C.ar    1  LIG1        0.0679
     36 C          -4.4533    9.6467    0.0236 C.ar    1  LIG1        0.1350
     37 C          -5.4930   10.3754    0.6897 C.ar    1  LIG1       -0.0014
     38 C          -5.6687    9.9256    1.9614 C.ar    1  LIG1       -0.0172
     39 S          -4.5889    8.6520    2.3756 S.2     1  LIG1       -0.0921
     40 H          -6.3832   10.2885    2.6868 H       1  LIG1        0.0697
     41 O          -4.0819    9.8723   -1.2662 O.3     1  LIG1       -0.5053
     42 H          -4.7122   10.4745   -1.6778 H       1  LIG1        0.2922
     43 C          -6.2709   11.4730    0.0282 C.3     1  LIG1       -0.0357
     44 H          -7.0054   11.8989    0.7134 H       1  LIG1        0.0279
     45 H          -6.8216   11.1110   -0.8486 H       1  LIG1        0.0279
     46 H          -5.6180   12.2891   -0.3016 H       1  LIG1        0.0279
@<TRIPOS>BOND
     1     6     1    1
     2     5     1   ar
     3     5     4   ar
     4     1     2   ar
     5    42    41    1
     6    33    31    1
     7    30    29    1
     8    41    36    1
     9    29    25    1
    10    45    43    1
    11     4    13    1
    12     4     3   ar
    13     2     7    1
    14     2     3   ar
    15    17    13   ar
    16    17    16   ar
    17    31    34    1
    18    31    26    1
    19    31    32    1
    20    13    14   ar
    21    25    26   ar
    22    25    24   ar
    23     7     8    1
    24    46    43    1
    25    26    27   ar
    26     3     9    1
    27    16    24    1
    28    16    15   ar
    29    14    18    1
    30    14    15   ar
    31    22    20    1
    32    24    28   ar
    33    36    37   ar
    34    36    35   ar
    35    43    37    1
    36    43    44    1
    37    18    19    1
    38    15    20    1
    39    27    28   ar
    40    27    35    1
    41    37    38   ar
    42    20    21    1
    43    20    23    1
    44    35    39   ar
    45    11     9    1
    46     9    10    1
    47     9    12    1
    48    38    39   ar
    49    38    40    1
