@<TRIPOS>MOLECULE
mol_data/opt/cam/geoms/mol2/5fi5fi-5fi5fi.out
 46 49 0 0 0
SMALL
GASTEIGER

@<TRIPOS>ATOM
      1 C          -1.4225   -1.6404   -2.0225 C.ar    1  LIG1        0.0180
      2 C          -0.7824   -1.8347   -0.8395 C.ar    1  LIG1        0.1273
      3 C          -0.4482   -0.6220   -0.1493 C.ar    1  LIG1        0.0064
      4 C          -0.8342    0.4839   -0.8600 C.ar    1  LIG1        0.0359
      5 S          -1.6157    0.0416   -2.3526 S.2     1  LIG1       -0.0920
      6 H          -1.7844   -2.3968   -2.7014 H       1  LIG1        0.0730
      7 O          -0.5213   -3.0795   -0.3511 O.3     1  LIG1       -0.5060
      8 H           0.0467   -2.9989    0.4232 H       1  LIG1        0.2922
      9 C           0.2032   -0.6099    1.1995 C.3     1  LIG1       -0.0351
     10 H           0.0097    0.3330    1.7122 H       1  LIG1        0.0279
     11 H           1.2904   -0.7182    1.1323 H       1  LIG1        0.0279
     12 H          -0.1886   -1.4148    1.8325 H       1  LIG1        0.0279
     13 C          -0.6473    1.8835   -0.5106 C.ar    1  LIG1        0.0685
     14 C           0.4957    2.5023   -0.0813 C.ar    1  LIG1        0.1356
     15 C           0.3585    3.9029    0.1794 C.ar    1  LIG1        0.0070
     16 C          -0.9082    4.3452   -0.0983 C.ar    1  LIG1        0.0365
     17 S          -1.9360    3.0492   -0.6380 S.2     1  LIG1       -0.0831
     18 O           1.6605    1.8177    0.0938 O.3     1  LIG1       -0.5053
     19 H           2.3847    2.4487    0.1748 H       1  LIG1        0.2922
     20 C           1.4799    4.7384    0.7163 C.3     1  LIG1       -0.0351
     21 H           1.0921    5.6230    1.2227 H       1  LIG1        0.0279
     22 H           2.1445    5.0946   -0.0774 H       1  LIG1        0.0279
     23 H           2.0746    4.1743    1.4438 H       1  LIG1        0.0279
     24 C          -1.4249    5.7003    0.0053 C.ar    1  LIG1        0.0685
     25 C          -0.8632    6.8569   -0.4651 C.ar    1  LIG1        0.1356
     26 C          -1.6273    8.0404   -0.2127 C.ar    1  LIG1        0.0070
     27 C          -2.8037    7.7526    0.4276 C.ar    1  LIG1        0.0365
     28 S          -2.9591    6.0513    0.7534 S.2     1  LIG1       -0.0831
     29 O           0.3373    6.8620   -1.1082 O.3     1  LIG1       -0.5053
     30 H           0.4453    7.7045   -1.5642 H       1  LIG1        0.2922
     31 C          -1.1514    9.4080   -0.5957 C.3     1  LIG1       -0.0351
     32 H          -1.6251   10.1678    0.0272 H       1  LIG1        0.0279
     33 H          -1.3956    9.6524   -1.6344 H       1  LIG1        0.0279
     34 H          -0.0676    9.4978   -0.4603 H       1  LIG1        0.0279
     35 C          -3.8560    8.6769    0.8204 C.ar    1  LIG1        0.0679
     36 C          -4.4533    9.6465    0.0597 C.ar    1  LIG1        0.1350
     37 C          -5.4896   10.3726    0.7339 C.ar    1  LIG1       -0.0014
     38 C          -5.6588    9.9180    2.0048 C.ar    1  LIG1       -0.0172
     39 S          -4.5769    8.6429    2.4086 S.2     1  LIG1       -0.0921
     40 H          -6.3696   10.2782    2.7352 H       1  LIG1        0.0697
     41 O          -4.0885    9.8769   -1.2311 O.3     1  LIG1       -0.5053
     42 H          -4.7208   10.4806   -1.6372 H       1  LIG1        0.2922
     43 C          -6.2709   11.4726    0.0805 C.3     1  LIG1       -0.0357
     44 H          -7.0019   11.8959    0.7710 H       1  LIG1        0.0279
     45 H          -6.8261   11.1138   -0.7948 H       1  LIG1        0.0279
     46 H          -5.6198   12.2899   -0.2497 H       1  LIG1        0.0279
@<TRIPOS>BOND
     1     6     1    1
     2     5     1   ar
     3     5     4   ar
     4     1     2   ar
     5    42    41    1
     6    33    31    1
     7    30    29    1
     8    41    36    1
     9    29    25    1
    10     4    13    1
    11     4     3   ar
    12     2     7    1
    13     2     3   ar
    14    45    43    1
    15    17    13   ar
    16    17    16   ar
    17    31    34    1
    18    31    26    1
    19    31    32    1
    20    13    14   ar
    21    25    26   ar
    22    25    24   ar
    23     7     8    1
    24    46    43    1
    25    26    27   ar
    26     3     9    1
    27    16    24    1
    28    16    15   ar
    29    14    18    1
    30    14    15   ar
    31    22    20    1
    32    24    28   ar
    33    36    37   ar
    34    36    35   ar
    35    43    37    1
    36    43    44    1
    37    18    19    1
    38    15    20    1
    39    27    28   ar
    40    27    35    1
    41    20    21    1
    42    20    23    1
    43    37    38   ar
    44    35    39   ar
    45    11     9    1
    46     9    10    1
    47     9    12    1
    48    38    39   ar
    49    38    40    1
