@<TRIPOS>MOLECULE
mol_data/opt/cam/geoms/mol2/5fi5fi5fi5fi.out
 46 49 0 0 0
SMALL
GASTEIGER

@<TRIPOS>ATOM
      1 C          -1.4087   -1.6489   -2.0126 C.ar    1  LIG1        0.0180
      2 C          -0.7767   -1.8382   -0.8244 C.ar    1  LIG1        0.1273
      3 C          -0.4473   -0.6226   -0.1370 C.ar    1  LIG1        0.0064
      4 C          -0.8283    0.4803   -0.8550 C.ar    1  LIG1        0.0359
      5 S          -1.5995    0.0317   -2.3511 S.2     1  LIG1       -0.0920
      6 H          -1.7660   -2.4081   -2.6907 H       1  LIG1        0.0730
      7 O          -0.5190   -3.0809   -0.3290 O.3     1  LIG1       -0.5060
      8 H           0.0436   -2.9971    0.4488 H       1  LIG1        0.2922
      9 C           0.1948   -0.6048    1.2161 C.3     1  LIG1       -0.0351
     10 H          -0.0022    0.3401    1.7236 H       1  LIG1        0.0279
     11 H           1.2825   -0.7134    1.1569 H       1  LIG1        0.0279
     12 H          -0.2012   -1.4072    1.8498 H       1  LIG1        0.0279
     13 C          -0.6437    1.8813   -0.5102 C.ar    1  LIG1        0.0685
     14 C           0.4963    2.5020   -0.0756 C.ar    1  LIG1        0.1356
     15 C           0.3573    3.9036    0.1782 C.ar    1  LIG1        0.0070
     16 C          -0.9074    4.3448   -0.1100 C.ar    1  LIG1        0.0365
     17 S          -1.9316    3.0465   -0.6513 S.2     1  LIG1       -0.0831
     18 O           1.6599    1.8180    0.1103 O.3     1  LIG1       -0.5053
     19 H           2.3835    2.4494    0.1938 H       1  LIG1        0.2922
     20 C           1.4751    4.7413    0.7193 C.3     1  LIG1       -0.0351
     21 H           1.0838    5.6281    1.2193 H       1  LIG1        0.0279
     22 H           2.1451    5.0942   -0.0712 H       1  LIG1        0.0279
     23 H           2.0647    4.1803    1.4533 H       1  LIG1        0.0279
     24 C          -1.4248    5.7002   -0.0157 C.ar    1  LIG1        0.0685
     25 C          -0.8597    6.8549   -0.4871 C.ar    1  LIG1        0.1356
     26 C          -1.6255    8.0394   -0.2449 C.ar    1  LIG1        0.0070
     27 C          -2.8063    7.7544    0.3884 C.ar    1  LIG1        0.0365
     28 S          -2.9640    6.0545    0.7203 S.2     1  LIG1       -0.0831
     29 O           0.3452    6.8573   -1.1219 O.3     1  LIG1       -0.5053
     30 H           0.4564    7.6978   -1.5807 H       1  LIG1        0.2922
     31 C          -1.1469    9.4055   -0.6304 C.3     1  LIG1       -0.0351
     32 H          -1.6249   10.1679   -0.0141 H       1  LIG1        0.0279
     33 H          -1.3838    9.6455   -1.6719 H       1  LIG1        0.0279
     34 H          -0.0641    9.4958   -0.4879 H       1  LIG1        0.0279
     35 C          -3.8613    8.6803    0.7700 C.ar    1  LIG1        0.0679
     36 C          -4.4532    9.6467    0.0012 C.ar    1  LIG1        0.1350
     37 C          -5.4942   10.3757    0.6651 C.ar    1  LIG1       -0.0014
     38 C          -5.6721    9.9265    1.9367 C.ar    1  LIG1       -0.0172
     39 S          -4.5931    8.6530    2.3534 S.2     1  LIG1       -0.0921
     40 H          -6.3879   10.2897    2.6607 H       1  LIG1        0.0697
     41 O          -4.0795    9.8717   -1.2881 O.3     1  LIG1       -0.5053
     42 H          -4.7090   10.4737   -1.7011 H       1  LIG1        0.2922
     43 C          -6.2709   11.4730    0.0017 C.3     1  LIG1       -0.0357
     44 H          -7.0067   11.8991    0.6853 H       1  LIG1        0.0279
     45 H          -6.8199   11.1105   -0.8760 H       1  LIG1        0.0279
     46 H          -5.6175   12.2889   -0.3273 H       1  LIG1        0.0279
@<TRIPOS>BOND
     1     6     1    1
     2     5     1   ar
     3     5     4   ar
     4     1     2   ar
     5    42    41    1
     6    33    31    1
     7    30    29    1
     8    41    36    1
     9    29    25    1
    10    45    43    1
    11     4    13    1
    12     4     3   ar
    13     2     7    1
    14     2     3   ar
    15    17    13   ar
    16    17    16   ar
    17    31    34    1
    18    31    26    1
    19    31    32    1
    20    13    14   ar
    21    25    26   ar
    22    25    24   ar
    23     7     8    1
    24    46    43    1
    25    26    27   ar
    26     3     9    1
    27    16    24    1
    28    16    15   ar
    29    14    18    1
    30    14    15   ar
    31    22    20    1
    32    24    28   ar
    33    36    37   ar
    34    36    35   ar
    35    43    37    1
    36    43    44    1
    37    18    19    1
    38    15    20    1
    39    27    28   ar
    40    27    35    1
    41    37    38   ar
    42    20    21    1
    43    20    23    1
    44    35    39   ar
    45    11     9    1
    46     9    10    1
    47     9    12    1
    48    38    39   ar
    49    38    40    1
