@<TRIPOS>MOLECULE
mol_data/opt/cam/geoms/mol2/5fi5fi-5fi-5fi-.out
 46 49 0 0 0
SMALL
GASTEIGER

@<TRIPOS>ATOM
      1 C          -1.4157   -1.6519   -1.9916 C.ar    1  LIG1        0.0180
      2 C          -0.7813   -1.8397   -0.8045 C.ar    1  LIG1        0.1273
      3 C          -0.4498   -0.6232   -0.1196 C.ar    1  LIG1        0.0064
      4 C          -0.8320    0.4787   -0.8385 C.ar    1  LIG1        0.0359
      5 S          -1.6066    0.0282   -2.3322 S.2     1  LIG1       -0.0920
      6 H          -1.7747   -2.4120   -2.6678 H       1  LIG1        0.0730
      7 O          -0.5230   -3.0818   -0.3077 O.3     1  LIG1       -0.5060
      8 H           0.0414   -2.9970    0.4687 H       1  LIG1        0.2922
      9 C           0.1952   -0.6036    1.2321 C.3     1  LIG1       -0.0351
     10 H          -0.0005    0.3421    1.7386 H       1  LIG1        0.0279
     11 H           1.2827   -0.7127    1.1707 H       1  LIG1        0.0279
     12 H          -0.1998   -1.4049    1.8678 H       1  LIG1        0.0279
     13 C          -0.6461    1.8802   -0.4962 C.ar    1  LIG1        0.0685
     14 C           0.4950    2.5011   -0.0650 C.ar    1  LIG1        0.1356
     15 C           0.3572    3.9032    0.1870 C.ar    1  LIG1        0.0070
     16 C          -0.9080    4.3444   -0.0991 C.ar    1  LIG1        0.0365
     17 S          -1.9338    3.0457   -0.6363 S.2     1  LIG1       -0.0831
     18 O           1.6587    1.8170    0.1195 O.3     1  LIG1       -0.5053
     19 H           2.3828    2.4482    0.2004 H       1  LIG1        0.2922
     20 C           1.4764    4.7412    0.7245 C.3     1  LIG1       -0.0351
     21 H           1.0865    5.6289    1.2239 H       1  LIG1        0.0279
     22 H           2.1449    5.0927   -0.0681 H       1  LIG1        0.0279
     23 H           2.0674    4.1811    1.4580 H       1  LIG1        0.0279
     24 C          -1.4246    5.7002   -0.0058 C.ar    1  LIG1        0.0685
     25 C          -0.8602    6.8539   -0.4801 C.ar    1  LIG1        0.1356
     26 C          -1.6250    8.0391   -0.2381 C.ar    1  LIG1        0.0070
     27 C          -2.8045    7.7555    0.3983 C.ar    1  LIG1        0.0365
     28 S          -2.9622    6.0561    0.7330 S.2     1  LIG1       -0.0831
     29 O           0.3433    6.8549   -1.1175 O.3     1  LIG1       -0.5053
     30 H           0.4539    7.6946   -1.5778 H       1  LIG1        0.2922
     31 C          -1.1467    9.4043   -0.6266 C.3     1  LIG1       -0.0351
     32 H          -1.6231   10.1679   -0.0104 H       1  LIG1        0.0279
     33 H          -1.3858    9.6429   -1.6679 H       1  LIG1        0.0279
     34 H          -0.0636    9.4945   -0.4866 H       1  LIG1        0.0279
     35 C          -3.8583    8.6824    0.7808 C.ar    1  LIG1        0.0679
     36 C          -4.4516    9.6478    0.0117 C.ar    1  LIG1        0.1350
     37 C          -5.4908   10.3782    0.6768 C.ar    1  LIG1       -0.0014
     38 C          -5.6662    9.9310    1.9495 C.ar    1  LIG1       -0.0172
     39 S          -4.5867    8.6577    2.3657 S.2     1  LIG1       -0.0921
     40 H          -6.3803   10.2955    2.6744 H       1  LIG1        0.0697
     41 O          -4.0805    9.8707   -1.2786 O.3     1  LIG1       -0.5053
     42 H          -4.7108   10.4723   -1.6912 H       1  LIG1        0.2922
     43 C          -6.2685   11.4748    0.0135 C.3     1  LIG1       -0.0357
     44 H          -7.0027   11.9022    0.6980 H       1  LIG1        0.0279
     45 H          -6.8196   11.1112   -0.8625 H       1  LIG1        0.0279
     46 H          -5.6155   12.2900   -0.3182 H       1  LIG1        0.0279
@<TRIPOS>BOND
     1     6     1    1
     2     5     1   ar
     3     5     4   ar
     4     1     2   ar
     5    42    41    1
     6    33    31    1
     7    30    29    1
     8    41    36    1
     9    29    25    1
    10    45    43    1
    11     4    13    1
    12     4     3   ar
    13     2     7    1
    14     2     3   ar
    15    17    13   ar
    16    17    16   ar
    17    31    34    1
    18    31    26    1
    19    31    32    1
    20    13    14   ar
    21    25    26   ar
    22    25    24   ar
    23    46    43    1
    24     7     8    1
    25    26    27   ar
    26     3     9    1
    27    16    24    1
    28    16    15   ar
    29    22    20    1
    30    14    18    1
    31    14    15   ar
    32    24    28   ar
    33    36    37   ar
    34    36    35   ar
    35    43    37    1
    36    43    44    1
    37    18    19    1
    38    15    20    1
    39    27    28   ar
    40    27    35    1
    41    37    38   ar
    42    20    21    1
    43    20    23    1
    44    35    39   ar
    45    11     9    1
    46     9    10    1
    47     9    12    1
    48    38    39   ar
    49    38    40    1
