@<TRIPOS>MOLECULE
mol_data/opt/cam/geoms/mol2/5fi5fi5fi-5fi.out
 46 49 0 0 0
SMALL
GASTEIGER

@<TRIPOS>ATOM
      1 C          -1.3896   -1.6434   -2.0338 C.ar    1  LIG1        0.0180
      2 C          -0.7680   -1.8358   -0.8407 C.ar    1  LIG1        0.1273
      3 C          -0.4448   -0.6219   -0.1472 C.ar    1  LIG1        0.0064
      4 C          -0.8198    0.4827   -0.8655 C.ar    1  LIG1        0.0359
      5 S          -1.5780    0.0381   -2.3694 S.2     1  LIG1       -0.0920
      6 H          -1.7409   -2.4008   -2.7170 H       1  LIG1        0.0730
      7 O          -0.5143   -3.0798   -0.3464 O.3     1  LIG1       -0.5060
      8 H           0.0416   -2.9979    0.4364 H       1  LIG1        0.2922
      9 C           0.1856   -0.6077    1.2115 C.3     1  LIG1       -0.0351
     10 H          -0.0160    0.3359    1.7197 H       1  LIG1        0.0279
     11 H           1.2738   -0.7159    1.1614 H       1  LIG1        0.0279
     12 H          -0.2158   -1.4118    1.8396 H       1  LIG1        0.0279
     13 C          -0.6386    1.8829   -0.5153 C.ar    1  LIG1        0.0685
     14 C           0.4974    2.5026   -0.0692 C.ar    1  LIG1        0.1356
     15 C           0.3559    3.9036    0.1871 C.ar    1  LIG1        0.0070
     16 C          -0.9064    4.3452   -0.1108 C.ar    1  LIG1        0.0365
     17 S          -1.9255    3.0482   -0.6645 S.2     1  LIG1       -0.0831
     18 O           1.6595    1.8185    0.1249 O.3     1  LIG1       -0.5053
     19 H           2.3823    2.4498    0.2163 H       1  LIG1        0.2922
     20 C           1.4688    4.7401    0.7401 C.3     1  LIG1       -0.0351
     21 H           1.0729    5.6254    1.2391 H       1  LIG1        0.0279
     22 H           2.1455    5.0952   -0.0436 H       1  LIG1        0.0279
     23 H           2.0522    4.1772    1.4777 H       1  LIG1        0.0279
     24 C          -1.4248    5.7003   -0.0174 C.ar    1  LIG1        0.0685
     25 C          -0.8561    6.8563   -0.4807 C.ar    1  LIG1        0.1356
     26 C          -1.6242    8.0400   -0.2420 C.ar    1  LIG1        0.0070
     27 C          -2.8103    7.7531    0.3804 C.ar    1  LIG1        0.0365
     28 S          -2.9705    6.0522    0.7063 S.2     1  LIG1       -0.0831
     29 O           0.3543    6.8607   -1.1050 O.3     1  LIG1       -0.5053
     30 H           0.4692    7.7025   -1.5606 H       1  LIG1        0.2922
     31 C          -1.1426    9.4072   -0.6196 C.3     1  LIG1       -0.0351
     32 H          -1.6261   10.1679   -0.0053 H       1  LIG1        0.0279
     33 H          -1.3706    9.6500   -1.6624 H       1  LIG1        0.0279
     34 H          -0.0611    9.4974   -0.4675 H       1  LIG1        0.0279
     35 C          -3.8688    8.6777    0.7553 C.ar    1  LIG1        0.0679
     36 C          -4.4543    9.6460   -0.0160 C.ar    1  LIG1        0.1350
     37 C          -5.5012   10.3729    0.6409 C.ar    1  LIG1       -0.0014
     38 C          -5.6900    9.9203    1.9097 C.ar    1  LIG1       -0.0172
     39 S          -4.6143    8.6460    2.3322 S.2     1  LIG1       -0.0921
     40 H          -6.4121   10.2814    2.6284 H       1  LIG1        0.0697
     41 O          -4.0695    9.8746   -1.3013 O.3     1  LIG1       -0.5053
     42 H          -4.6956   10.4776   -1.7182 H       1  LIG1        0.2922
     43 C          -6.2724   11.4719   -0.0263 C.3     1  LIG1       -0.0357
     44 H          -7.0142   11.8960    0.6521 H       1  LIG1        0.0279
     45 H          -6.8137   11.1116   -0.9096 H       1  LIG1        0.0279
     46 H          -5.6163   12.2888   -0.3474 H       1  LIG1        0.0279
@<TRIPOS>BOND
     1     6     1    1
     2     5     1   ar
     3     5     4   ar
     4     1     2   ar
     5    42    41    1
     6    33    31    1
     7    30    29    1
     8    41    36    1
     9    29    25    1
    10    45    43    1
    11     4    13    1
    12     4     3   ar
    13     2     7    1
    14     2     3   ar
    15    17    13   ar
    16    17    16   ar
    17    31    34    1
    18    31    26    1
    19    31    32    1
    20    13    14   ar
    21    25    26   ar
    22    25    24   ar
    23    46    43    1
    24     7     8    1
    25    26    27   ar
    26     3     9    1
    27    16    24    1
    28    16    15   ar
    29    14    18    1
    30    14    15   ar
    31    22    20    1
    32    43    37    1
    33    43    44    1
    34    24    28   ar
    35    36    37   ar
    36    36    35   ar
    37    18    19    1
    38    15    20    1
    39    27    28   ar
    40    27    35    1
    41    37    38   ar
    42    20    21    1
    43    20    23    1
    44    35    39   ar
    45    11     9    1
    46     9    10    1
    47     9    12    1
    48    38    39   ar
    49    38    40    1
