@<TRIPOS>MOLECULE
mol_data/opt/cam/geoms/mol2/5fl.out
 14 14 0 0 0
SMALL
GASTEIGER

@<TRIPOS>ATOM
      1 C          -2.2457   -1.6862    0.0003 C.ar    1  LIG1        0.0209
      2 C          -0.8886   -1.7831   -0.0003 C.ar    1  LIG1        0.1656
      3 C          -0.2539   -0.4838   -0.0003 C.ar    1  LIG1        0.1683
      4 C          -1.1655    0.5278    0.0003 C.ar    1  LIG1        0.0211
      5 S          -2.7840   -0.0517    0.0008 S.2     1  LIG1       -0.0976
      6 H          -2.9394   -2.5124    0.0004 H       1  LIG1        0.0731
      7 H          -0.9395    1.5828    0.0004 H       1  LIG1        0.0731
      8 O          -0.2923   -3.0120   -0.0008 O.3     1  LIG1       -0.5029
      9 H           0.6629   -2.9276   -0.0010 H       1  LIG1        0.2923
     10 O           1.0764   -0.1663   -0.0008 O.3     1  LIG1       -0.4909
     11 C           2.0566   -1.1752   -0.0011 C.3     1  LIG1        0.0790
     12 H           3.0199   -0.6647   -0.0013 H       1  LIG1        0.0660
     13 H           2.0102   -1.7991    0.9021 H       1  LIG1        0.0660
     14 H           2.0097   -1.7989   -0.9043 H       1  LIG1        0.0660
@<TRIPOS>BOND
     1    14    11    1
     2    12    11    1
     3    11    10    1
     4    11    13    1
     5     9     8    1
     6     8     2    1
     7    10     3    1
     8     2     3   ar
     9     2     1   ar
    10     3     4   ar
    11     1     6    1
    12     1     5   ar
    13     4     7    1
    14     4     5   ar
