@<TRIPOS>MOLECULE
mol_data/opt/cam/geoms/mol2/5fl5fl5fl-5fl.out
 50 53 0 0 0
SMALL
GASTEIGER

@<TRIPOS>ATOM
      1 C          -2.3504   -1.8886    1.6229 C.ar    1  LIG1        0.0215
      2 C          -1.5015   -2.1632    0.6020 C.ar    1  LIG1        0.1663
      3 C          -0.7687   -1.0167    0.1522 C.ar    1  LIG1        0.1766
      4 C          -1.0854    0.1316    0.8228 C.ar    1  LIG1        0.0749
      5 S          -2.2716   -0.2150    2.0556 S.2     1  LIG1       -0.0885
      6 H          -3.0239   -2.5662    2.1237 H       1  LIG1        0.0731
      7 O          -1.3427   -3.3760    0.0110 O.3     1  LIG1       -0.5029
      8 H          -0.9305   -3.2076   -0.8490 H       1  LIG1        0.2923
      9 O           0.0783   -1.1340   -0.9154 O.3     1  LIG1       -0.4903
     10 C           1.3521   -1.7012   -0.5850 C.3     1  LIG1        0.0790
     11 H           1.9023   -1.7804   -1.5236 H       1  LIG1        0.0660
     12 H           1.8888   -1.0491    0.1042 H       1  LIG1        0.0660
     13 H           1.2342   -2.6979   -0.1459 H       1  LIG1        0.0660
     14 C          -0.6180    1.4911    0.6077 C.ar    1  LIG1        0.0753
     15 C           0.6475    1.9569    0.4125 C.ar    1  LIG1        0.1748
     16 C           0.7178    3.3698    0.1934 C.ar    1  LIG1        0.1773
     17 C          -0.4953    3.9983    0.2430 C.ar    1  LIG1        0.0755
     18 S          -1.7538    2.8203    0.5367 S.2     1  LIG1       -0.0794
     19 O           1.7789    1.2161    0.4168 O.3     1  LIG1       -0.5025
     20 H           2.5032    1.8375    0.2411 H       1  LIG1        0.2923
     21 O           1.9717    3.8548   -0.0188 O.3     1  LIG1       -0.4903
     22 C           2.1440    4.8959   -0.9738 C.3     1  LIG1        0.0790
     23 H           3.1906    4.8590   -1.2793 H       1  LIG1        0.0660
     24 H           1.5010    4.7334   -1.8439 H       1  LIG1        0.0660
     25 H           1.9301    5.8673   -0.5276 H       1  LIG1        0.0660
     26 C          -0.8305    5.4099    0.1660 C.ar    1  LIG1        0.0753
     27 C          -0.2299    6.4585    0.7959 C.ar    1  LIG1        0.1748
     28 C          -0.8362    7.7268    0.5221 C.ar    1  LIG1        0.1773
     29 C          -1.9277    7.6472   -0.2980 C.ar    1  LIG1        0.0755
     30 S          -2.1908    5.9817   -0.7717 S.2     1  LIG1       -0.0794
     31 O           0.8626    6.3666    1.5877 O.3     1  LIG1       -0.5025
     32 H           1.0429    7.2636    1.9092 H       1  LIG1        0.2923
     33 O          -0.2339    8.7817    1.1301 O.3     1  LIG1       -0.4903
     34 C          -0.2942   10.0640    0.5176 C.3     1  LIG1        0.0790
     35 H           0.5247   10.6425    0.9469 H       1  LIG1        0.0660
     36 H          -0.1594    9.9836   -0.5651 H       1  LIG1        0.0660
     37 H          -1.2429   10.5532    0.7405 H       1  LIG1        0.0660
     38 C          -2.8698    8.6684   -0.7299 C.ar    1  LIG1        0.0747
     39 C          -3.5525    9.5643    0.0380 C.ar    1  LIG1        0.1742
     40 C          -4.4617   10.3777   -0.7117 C.ar    1  LIG1        0.1689
     41 C          -4.4800   10.0862   -2.0377 C.ar    1  LIG1        0.0218
     42 S          -3.3578    8.8195   -2.4052 S.2     1  LIG1       -0.0885
     43 H          -5.0751   10.5332   -2.8184 H       1  LIG1        0.0731
     44 O          -3.4034    9.7105    1.3759 O.3     1  LIG1       -0.5025
     45 H          -4.0617   10.3573    1.6693 H       1  LIG1        0.2923
     46 O          -5.1751   11.2884   -0.0015 O.3     1  LIG1       -0.4909
     47 C          -6.1296   12.0398   -0.7278 C.3     1  LIG1        0.0790
     48 H          -6.6200   12.6989   -0.0127 H       1  LIG1        0.0660
     49 H          -5.6436   12.6399   -1.5052 H       1  LIG1        0.0660
     50 H          -6.8726   11.3811   -1.1911 H       1  LIG1        0.0660
@<TRIPOS>BOND
     1    43    41    1
     2    42    41   ar
     3    42    38   ar
     4    41    40   ar
     5    24    22    1
     6    11    10    1
     7    49    47    1
     8    23    22    1
     9    50    47    1
    10    22    25    1
    11    22    21    1
    12     9    10    1
    13     9     3    1
    14     8     7    1
    15    30    29   ar
    16    30    26   ar
    17    38    29    1
    18    38    39   ar
    19    47    48    1
    20    47    46    1
    21    40    46    1
    22    40    39   ar
    23    10    13    1
    24    10    12    1
    25    36    34    1
    26    29    28   ar
    27    21    16    1
    28     7     2    1
    29    39    44    1
    30     3     2   ar
    31     3     4   ar
    32    26    17    1
    33    26    27   ar
    34    16    17   ar
    35    16    15   ar
    36    20    19    1
    37    17    18   ar
    38    15    19    1
    39    15    14   ar
    40    34    37    1
    41    34    35    1
    42    34    33    1
    43    28    27   ar
    44    28    33    1
    45    18    14   ar
    46     2     1   ar
    47    14     4    1
    48    27    31    1
    49     4     5   ar
    50    44    45    1
    51    31    32    1
    52     1     5   ar
    53     1     6    1
