@<TRIPOS>MOLECULE
mol_data/opt/cam/geoms/mol2/5fl5fl-5fl.out
 38 40 0 0 0
SMALL
GASTEIGER

@<TRIPOS>ATOM
      1 C          -2.5360   -1.9066    0.8306 C.ar    1  LIG1        0.0215
      2 C          -1.3811   -2.1948    0.1814 C.ar    1  LIG1        0.1663
      3 C          -0.5662   -1.0412   -0.0616 C.ar    1  LIG1        0.1766
      4 C          -1.1221    0.1242    0.3871 C.ar    1  LIG1        0.0749
      5 S          -2.6516   -0.2115    1.1581 S.2     1  LIG1       -0.0885
      6 H          -3.3240   -2.5873    1.1125 H       1  LIG1        0.0731
      7 O          -0.9991   -3.4277   -0.2417 O.3     1  LIG1       -0.5029
      8 H          -0.3204   -3.2855   -0.9176 H       1  LIG1        0.2923
      9 O           0.5987   -1.1746   -0.7654 O.3     1  LIG1       -0.4903
     10 C           1.6951   -1.6662    0.0158 C.3     1  LIG1        0.0790
     11 H           2.5358   -1.7695   -0.6715 H       1  LIG1        0.0660
     12 H           1.9462   -0.9555    0.8033 H       1  LIG1        0.0660
     13 H           1.4577   -2.6428    0.4515 H       1  LIG1        0.0660
     14 C          -0.6412    1.4902    0.2609 C.ar    1  LIG1        0.0753
     15 C           0.6006    2.0013    0.4904 C.ar    1  LIG1        0.1748
     16 C           0.7099    3.4030    0.2194 C.ar    1  LIG1        0.1773
     17 C          -0.4579    3.9775   -0.1987 C.ar    1  LIG1        0.0755
     18 S          -1.7112    2.7613   -0.2881 S.2     1  LIG1       -0.0794
     19 O           1.6750    1.3129    0.9382 O.3     1  LIG1       -0.5025
     20 H           2.4012    1.9544    0.9866 H       1  LIG1        0.2923
     21 O           1.9461    3.9302    0.4305 O.3     1  LIG1       -0.4903
     22 C           2.4093    4.9561   -0.4404 C.3     1  LIG1        0.0790
     23 H           3.4977    4.9473   -0.3691 H       1  LIG1        0.0660
     24 H           2.1067    4.7543   -1.4721 H       1  LIG1        0.0660
     25 H           2.0326    5.9294   -0.1246 H       1  LIG1        0.0660
     26 C          -0.7787    5.3680   -0.4754 C.ar    1  LIG1        0.0747
     27 C          -0.4887    6.4661    0.2793 C.ar    1  LIG1        0.1742
     28 C          -1.0180    7.6815   -0.2616 C.ar    1  LIG1        0.1689
     29 C          -1.7198    7.5019   -1.4100 C.ar    1  LIG1        0.0218
     30 S          -1.7244    5.8334   -1.8739 S.2     1  LIG1       -0.0885
     31 H          -2.2282    8.2382   -2.0122 H       1  LIG1        0.0731
     32 O           0.2333    6.4510    1.4249 O.3     1  LIG1       -0.5025
     33 H           0.2204    7.3504    1.7834 H       1  LIG1        0.2923
     34 O          -0.7662    8.8121    0.4471 O.3     1  LIG1       -0.4909
     35 C          -1.3447   10.0036   -0.0506 C.3     1  LIG1        0.0790
     36 H          -1.0595   10.8010    0.6344 H       1  LIG1        0.0660
     37 H          -0.9675   10.2305   -1.0541 H       1  LIG1        0.0660
     38 H          -2.4368    9.9216   -0.0854 H       1  LIG1        0.0660
@<TRIPOS>BOND
     1    31    29    1
     2    30    29   ar
     3    30    26   ar
     4    24    22    1
     5    29    28   ar
     6    37    35    1
     7     8     7    1
     8     9     3    1
     9     9    10    1
    10    11    10    1
    11    26    17    1
    12    26    27   ar
    13    22    23    1
    14    22    25    1
    15    22    21    1
    16    18    17   ar
    17    18    14   ar
    18    28    27   ar
    19    28    34    1
    20     7     2    1
    21    17    16   ar
    22    38    35    1
    23     3     2   ar
    24     3     4   ar
    25    35    34    1
    26    35    36    1
    27    10    13    1
    28    10    12    1
    29     2     1   ar
    30    16    21    1
    31    16    15   ar
    32    14     4    1
    33    14    15   ar
    34    27    32    1
    35     4     5   ar
    36    15    19    1
    37     1     6    1
    38     1     5   ar
    39    19    20    1
    40    32    33    1
