@<TRIPOS>MOLECULE
mol_data/opt/cam/geoms/mol2/5fl5fl5fl.out
 38 40 0 0 0
SMALL
GASTEIGER

@<TRIPOS>ATOM
      1 C          -2.4430   -1.9863    0.3930 C.ar    1  LIG1        0.0215
      2 C          -1.2706   -2.1262   -0.2734 C.ar    1  LIG1        0.1663
      3 C          -0.5112   -0.9126   -0.3421 C.ar    1  LIG1        0.1766
      4 C          -1.1288    0.1516    0.2541 C.ar    1  LIG1        0.0749
      5 S          -2.6457   -0.3604    0.9498 S.2     1  LIG1       -0.0885
      6 H          -3.1988   -2.7362    0.5666 H       1  LIG1        0.0731
      7 O          -0.8271   -3.2695   -0.8575 O.3     1  LIG1       -0.5029
      8 H          -0.1589   -3.0043   -1.5061 H       1  LIG1        0.2923
      9 O           0.6644   -0.8875   -1.0402 O.3     1  LIG1       -0.4903
     10 C           1.7750   -1.4465   -0.3278 C.3     1  LIG1        0.0790
     11 H           2.6251   -1.4066   -1.0101 H       1  LIG1        0.0660
     12 H           1.9886   -0.8556    0.5630 H       1  LIG1        0.0660
     13 H           1.5778   -2.4875   -0.0500 H       1  LIG1        0.0660
     14 C          -0.7138    1.5419    0.3218 C.ar    1  LIG1        0.0753
     15 C           0.5063    2.0776    0.6117 C.ar    1  LIG1        0.1748
     16 C           0.5292    3.5072    0.6029 C.ar    1  LIG1        0.1773
     17 C          -0.6838    4.0754    0.3352 C.ar    1  LIG1        0.0755
     18 S          -1.8613    2.8287    0.0243 S.2     1  LIG1       -0.0794
     19 O           1.6186    1.3782    0.9524 O.3     1  LIG1       -0.5025
     20 H           2.2030    2.0061    1.4040 H       1  LIG1        0.2923
     21 O           1.6801    4.1559    0.9559 O.3     1  LIG1       -0.4903
     22 C           2.6442    4.2492   -0.1016 C.3     1  LIG1        0.0790
     23 H           3.5193    4.7379    0.3283 H       1  LIG1        0.0660
     24 H           2.9222    3.2540   -0.4650 H       1  LIG1        0.0660
     25 H           2.2490    4.8501   -0.9206 H       1  LIG1        0.0660
     26 C          -1.0724    5.4760    0.3302 C.ar    1  LIG1        0.0747
     27 C          -0.4579    6.5454   -0.2505 C.ar    1  LIG1        0.1742
     28 C          -1.1521    7.7794   -0.0375 C.ar    1  LIG1        0.1689
     29 C          -2.2884    7.6457    0.6926 C.ar    1  LIG1        0.0218
     30 S          -2.5278    5.9961    1.1559 S.2     1  LIG1       -0.0885
     31 H          -2.9946    8.4056    0.9878 H       1  LIG1        0.0731
     32 O           0.6737    6.5049   -0.9931 O.3     1  LIG1       -0.5025
     33 H           0.8476    7.4090   -1.2932 H       1  LIG1        0.2923
     34 O          -0.5930    8.8821   -0.6000 O.3     1  LIG1       -0.4909
     35 C          -1.2900   10.0995   -0.4157 C.3     1  LIG1        0.0790
     36 H          -0.7156   10.8710   -0.9269 H       1  LIG1        0.0660
     37 H          -2.2951   10.0422   -0.8484 H       1  LIG1        0.0660
     38 H          -1.3685   10.3455    0.6492 H       1  LIG1        0.0660
@<TRIPOS>BOND
     1     8     7    1
     2    33    32    1
     3     9     3    1
     4     9    10    1
     5    11    10    1
     6    32    27    1
     7    36    35    1
     8    25    22    1
     9     7     2    1
    10    37    35    1
    11    34    35    1
    12    34    28    1
    13    24    22    1
    14    35    38    1
    15     3     2   ar
    16     3     4   ar
    17    10    13    1
    18    10    12    1
    19     2     1   ar
    20    27    28   ar
    21    27    26   ar
    22    22    23    1
    23    22    21    1
    24    28    29   ar
    25    18    14   ar
    26    18    17   ar
    27     4    14    1
    28     4     5   ar
    29    14    15   ar
    30    26    17    1
    31    26    30   ar
    32    17    16   ar
    33     1     6    1
    34     1     5   ar
    35    16    15   ar
    36    16    21    1
    37    15    19    1
    38    29    31    1
    39    29    30   ar
    40    19    20    1
