@<TRIPOS>MOLECULE
mol_data/opt/cam/geoms/mol2/5fl5fl-5fl5fl-.out
 50 53 0 0 0
SMALL
GASTEIGER

@<TRIPOS>ATOM
      1 C          -2.3300   -1.8943    1.6342 C.ar    1  LIG1        0.0215
      2 C          -1.4831   -2.1650    0.6107 C.ar    1  LIG1        0.1663
      3 C          -0.7541   -1.0159    0.1613 C.ar    1  LIG1        0.1766
      4 C          -1.0717    0.1304    0.8350 C.ar    1  LIG1        0.0749
      5 S          -2.2538   -0.2215    2.0702 S.2     1  LIG1       -0.0885
      6 H          -3.0007   -2.5746    2.1355 H       1  LIG1        0.0731
      7 O          -1.3231   -3.3761    0.0167 O.3     1  LIG1       -0.5029
      8 H          -0.9126   -3.2051   -0.8436 H       1  LIG1        0.2923
      9 O           0.0905   -1.1293   -0.9087 O.3     1  LIG1       -0.4903
     10 C           1.3666   -1.6936   -0.5824 C.3     1  LIG1        0.0790
     11 H           1.9147   -1.7696   -1.5225 H       1  LIG1        0.0660
     12 H           1.9032   -1.0413    0.1066 H       1  LIG1        0.0660
     13 H           1.2525   -2.6914   -0.1449 H       1  LIG1        0.0660
     14 C          -0.6080    1.4914    0.6214 C.ar    1  LIG1        0.0753
     15 C           0.6559    1.9607    0.4247 C.ar    1  LIG1        0.1748
     16 C           0.7223    3.3741    0.2078 C.ar    1  LIG1        0.1773
     17 C          -0.4923    3.9995    0.2607 C.ar    1  LIG1        0.0755
     18 S          -1.7473    2.8178    0.5547 S.2     1  LIG1       -0.0794
     19 O           1.7892    1.2228    0.4257 O.3     1  LIG1       -0.5025
     20 H           2.5116    1.8462    0.2496 H       1  LIG1        0.2923
     21 O           1.9746    3.8627   -0.0058 O.3     1  LIG1       -0.4903
     22 C           2.1425    4.9061   -0.9589 C.3     1  LIG1        0.0790
     23 H           3.1889    4.8731   -1.2657 H       1  LIG1        0.0660
     24 H           1.4989    4.7436   -1.8285 H       1  LIG1        0.0660
     25 H           1.9262    5.8760   -0.5104 H       1  LIG1        0.0660
     26 C          -0.8312    5.4104    0.1866 C.ar    1  LIG1        0.0753
     27 C          -0.2323    6.4593    0.8177 C.ar    1  LIG1        0.1748
     28 C          -0.8421    7.7266    0.5471 C.ar    1  LIG1        0.1773
     29 C          -1.9345    7.6458   -0.2716 C.ar    1  LIG1        0.0755
     30 S          -2.1941    5.9806   -0.7481 S.2     1  LIG1       -0.0794
     31 O           0.8615    6.3685    1.6079 O.3     1  LIG1       -0.5025
     32 H           1.0403    7.2654    1.9306 H       1  LIG1        0.2923
     33 O          -0.2415    8.7819    1.1562 O.3     1  LIG1       -0.4903
     34 C          -0.3056   10.0651    0.5460 C.3     1  LIG1        0.0790
     35 H           0.5129   10.6445    0.9748 H       1  LIG1        0.0660
     36 H          -0.1726    9.9868   -0.5370 H       1  LIG1        0.0660
     37 H          -1.2549   10.5518    0.7714 H       1  LIG1        0.0660
     38 C          -2.8797    8.6656   -0.7001 C.ar    1  LIG1        0.0747
     39 C          -3.5634    9.5583    0.0707 C.ar    1  LIG1        0.1742
     40 C          -4.4757   10.3709   -0.6759 C.ar    1  LIG1        0.1689
     41 C          -4.4954   10.0822   -2.0025 C.ar    1  LIG1        0.0218
     42 S          -3.3706    8.8190   -2.3743 S.2     1  LIG1       -0.0885
     43 H          -5.0926   10.5294   -2.7814 H       1  LIG1        0.0731
     44 O          -3.4127    9.7020    1.4087 O.3     1  LIG1       -0.5025
     45 H          -4.0720   10.3468    1.7043 H       1  LIG1        0.2923
     46 O          -5.1903   11.2786    0.0372 O.3     1  LIG1       -0.4909
     47 C          -6.1481   12.0287   -0.6860 C.3     1  LIG1        0.0790
     48 H          -6.6392   12.6849    0.0312 H       1  LIG1        0.0660
     49 H          -5.6650   12.6318   -1.4630 H       1  LIG1        0.0660
     50 H          -6.8899   11.3689   -1.1495 H       1  LIG1        0.0660
@<TRIPOS>BOND
     1    43    41    1
     2    42    41   ar
     3    42    38   ar
     4    41    40   ar
     5    24    22    1
     6    11    10    1
     7    49    47    1
     8    23    22    1
     9    50    47    1
    10    22    25    1
    11    22    21    1
    12     9    10    1
    13     9     3    1
    14     8     7    1
    15    30    29   ar
    16    30    26   ar
    17    38    29    1
    18    38    39   ar
    19    47    48    1
    20    47    46    1
    21    40    46    1
    22    40    39   ar
    23    10    13    1
    24    10    12    1
    25    36    34    1
    26    29    28   ar
    27    21    16    1
    28     7     2    1
    29    39    44    1
    30     3     2   ar
    31     3     4   ar
    32    26    17    1
    33    26    27   ar
    34    16    17   ar
    35    16    15   ar
    36    20    19    1
    37    17    18   ar
    38    15    19    1
    39    15    14   ar
    40    34    37    1
    41    34    35    1
    42    34    33    1
    43    28    27   ar
    44    28    33    1
    45    18    14   ar
    46     2     1   ar
    47    14     4    1
    48    27    31    1
    49     4     5   ar
    50    44    45    1
    51    31    32    1
    52     1     5   ar
    53     1     6    1
