@<TRIPOS>MOLECULE
mol_data/opt/cam/geoms/mol2/5fl5fl-5fl-5fl-.out
 50 53 0 0 0
SMALL
GASTEIGER

@<TRIPOS>ATOM
      1 C           0.1489   -2.4231    1.1803 C.ar    1  LIG1        0.0215
      2 C          -0.9692   -2.1391    0.4664 C.ar    1  LIG1        0.1663
      3 C          -1.0940   -0.7481    0.1483 C.ar    1  LIG1        0.1766
      4 C          -0.0819    0.0297    0.6346 C.ar    1  LIG1        0.0749
      5 S           1.0481   -0.9786    1.5142 S.2     1  LIG1       -0.0885
      6 H           0.4899   -3.3852    1.5286 H       1  LIG1        0.0731
      7 O          -1.8952   -3.0314    0.0535 O.3     1  LIG1       -0.5029
      8 H          -2.5998   -2.5133   -0.3659 H       1  LIG1        0.2923
      9 O          -2.1913   -0.3487   -0.5670 O.3     1  LIG1       -0.4903
     10 C          -1.9159    0.0972   -1.8975 C.3     1  LIG1        0.0790
     11 H          -2.8813    0.3190   -2.3522 H       1  LIG1        0.0660
     12 H          -1.3040    1.0019   -1.8883 H       1  LIG1        0.0660
     13 H          -1.4075   -0.6853   -2.4704 H       1  LIG1        0.0660
     14 C           0.1090    1.4643    0.5337 C.ar    1  LIG1        0.0753
     15 C           1.2867    2.1331    0.3287 C.ar    1  LIG1        0.1748
     16 C           1.1356    3.5574    0.2735 C.ar    1  LIG1        0.1773
     17 C          -0.1623    3.9579    0.4447 C.ar    1  LIG1        0.0755
     18 S          -1.2192    2.5906    0.6747 S.2     1  LIG1       -0.0794
     19 O           2.5135    1.5864    0.1491 O.3     1  LIG1       -0.5025
     20 H           2.4367    0.6217    0.1152 H       1  LIG1        0.2923
     21 O           2.1456    4.4066   -0.0323 O.3     1  LIG1       -0.4903
     22 C           3.2100    4.4618    0.9162 C.3     1  LIG1        0.0790
     23 H           3.9260    5.1836    0.5222 H       1  LIG1        0.0660
     24 H           2.8373    4.8125    1.8818 H       1  LIG1        0.0660
     25 H           3.6937    3.4878    1.0219 H       1  LIG1        0.0660
     26 C          -0.6820    5.3110    0.4319 C.ar    1  LIG1        0.0753
     27 C          -0.1636    6.4246    1.0239 C.ar    1  LIG1        0.1748
     28 C          -0.9737    7.5939    0.8602 C.ar    1  LIG1        0.1773
     29 C          -2.1130    7.3803    0.1348 C.ar    1  LIG1        0.0755
     30 S          -2.1862    5.7054   -0.3669 S.2     1  LIG1       -0.0794
     31 O           0.9645    6.4728    1.7639 O.3     1  LIG1       -0.5025
     32 H           1.0325    7.3846    2.0880 H       1  LIG1        0.2923
     33 O          -0.4947    8.7097    1.4726 O.3     1  LIG1       -0.4903
     34 C          -1.4196    9.6211    2.0548 C.3     1  LIG1        0.0790
     35 H          -2.2405    9.0839    2.5390 H       1  LIG1        0.0660
     36 H          -0.8602   10.1863    2.8014 H       1  LIG1        0.0660
     37 H          -1.8137   10.3043    1.3021 H       1  LIG1        0.0660
     38 C          -3.1370    8.3091   -0.3128 C.ar    1  LIG1        0.0747
     39 C          -2.9714    9.5282   -0.9012 C.ar    1  LIG1        0.1742
     40 C          -4.2058   10.1488   -1.2768 C.ar    1  LIG1        0.1689
     41 C          -5.2989    9.3955   -0.9916 C.ar    1  LIG1        0.0218
     42 S          -4.8407    7.9118   -0.2244 S.2     1  LIG1       -0.0885
     43 H          -6.3380    9.6166   -1.1777 H       1  LIG1        0.0731
     44 O          -1.7771   10.1296   -1.1149 O.3     1  LIG1       -0.5025
     45 H          -1.9505   10.9445   -1.6084 H       1  LIG1        0.2923
     46 O          -4.1077   11.3657   -1.8710 O.3     1  LIG1       -0.4909
     47 C          -5.3224   11.9520   -2.2986 C.3     1  LIG1        0.0790
     48 H          -5.0661   12.9052   -2.7591 H       1  LIG1        0.0660
     49 H          -5.8265   11.3129   -3.0321 H       1  LIG1        0.0660
     50 H          -5.9924   12.1242   -1.4487 H       1  LIG1        0.0660
@<TRIPOS>BOND
     1    49    47    1
     2    48    47    1
     3    13    10    1
     4    11    10    1
     5    47    46    1
     6    47    50    1
     7    10    12    1
     8    10     9    1
     9    46    40    1
    10    45    44    1
    11    40    41   ar
    12    40    39   ar
    13    43    41    1
    14    44    39    1
    15    41    42   ar
    16    39    38   ar
    17     9     3    1
    18    30    29   ar
    19    30    26   ar
    20     8     7    1
    21    38    42   ar
    22    38    29    1
    23    21    16    1
    24    21    22    1
    25     7     2    1
    26    20    19    1
    27    29    28   ar
    28     3     2   ar
    29     3     4   ar
    30    19    15    1
    31    16    15   ar
    32    16    17   ar
    33    15    14   ar
    34    26    17    1
    35    26    27   ar
    36    17    18   ar
    37     2     1   ar
    38    23    22    1
    39    14     4    1
    40    14    18   ar
    41     4     5   ar
    42    28    27   ar
    43    28    33    1
    44    22    25    1
    45    22    24    1
    46    27    31    1
    47     1     5   ar
    48     1     6    1
    49    37    34    1
    50    33    34    1
    51    31    32    1
    52    34    35    1
    53    34    36    1
