@<TRIPOS>MOLECULE
mol_data/opt/cam/geoms/mol2/5fl5fl5fl-5fl-.out
 50 53 0 0 0
SMALL
GASTEIGER

@<TRIPOS>ATOM
      1 C          -2.0770   -2.1008    1.3317 C.ar    1  LIG1        0.0215
      2 C          -1.2064   -2.2445    0.3023 C.ar    1  LIG1        0.1663
      3 C          -0.5632   -1.0190   -0.0694 C.ar    1  LIG1        0.1766
      4 C          -0.9699    0.0570    0.6694 C.ar    1  LIG1        0.0749
      5 S          -2.1291   -0.4569    1.8689 S.2     1  LIG1       -0.0885
      6 H          -2.6977   -2.8585    1.7838 H       1  LIG1        0.0731
      7 O          -0.9529   -3.4021   -0.3617 O.3     1  LIG1       -0.5029
      8 H          -0.5550   -3.1498   -1.2077 H       1  LIG1        0.2923
      9 O           0.2932   -1.0028   -1.1356 O.3     1  LIG1       -0.4903
     10 C           1.6058   -1.4913   -0.8325 C.3     1  LIG1        0.0790
     11 H           2.1622   -1.4702   -1.7706 H       1  LIG1        0.0660
     12 H           2.0901   -0.8445   -0.1008 H       1  LIG1        0.0660
     13 H           1.5633   -2.5194   -0.4566 H       1  LIG1        0.0660
     14 C          -0.6082    1.4590    0.5434 C.ar    1  LIG1        0.0753
     15 C           0.6178    2.0328    0.3870 C.ar    1  LIG1        0.1748
     16 C           0.5786    3.4575    0.2584 C.ar    1  LIG1        0.1773
     17 C          -0.6799    3.9862    0.3404 C.ar    1  LIG1        0.0755
     18 S          -1.8441    2.6985    0.5488 S.2     1  LIG1       -0.0794
     19 O           1.8031    1.3830    0.3530 O.3     1  LIG1       -0.5025
     20 H           2.4776    2.0689    0.2255 H       1  LIG1        0.2923
     21 O           1.7903    4.0558    0.0874 O.3     1  LIG1       -0.4903
     22 C           1.8874    5.1237   -0.8485 C.3     1  LIG1        0.0790
     23 H           2.9419    5.1986   -1.1175 H       1  LIG1        0.0660
     24 H           1.2935    4.9109   -1.7424 H       1  LIG1        0.0660
     25 H           1.5611    6.0635   -0.4019 H       1  LIG1        0.0660
     26 C          -1.1167    5.3703    0.3537 C.ar    1  LIG1        0.0753
     27 C          -0.5811    6.4224    1.0383 C.ar    1  LIG1        0.1748
     28 C          -1.3183    7.6399    0.9026 C.ar    1  LIG1        0.1773
     29 C          -2.4444    7.5143    0.1386 C.ar    1  LIG1        0.0755
     30 S          -2.5643    5.8877   -0.4793 S.2     1  LIG1       -0.0794
     31 O           0.5300    6.3521    1.8137 O.3     1  LIG1       -0.5025
     32 H           0.4925    7.1072    2.4198 H       1  LIG1        0.2923
     33 O          -0.9277    8.7445    1.6064 O.3     1  LIG1       -0.4903
     34 C           0.1547    9.4687    1.0100 C.3     1  LIG1        0.0790
     35 H           0.3813   10.2907    1.6899 H       1  LIG1        0.0660
     36 H           1.0401    8.8320    0.9029 H       1  LIG1        0.0660
     37 H          -0.1434    9.8637    0.0386 H       1  LIG1        0.0660
     38 C          -3.4798    8.4920   -0.1514 C.ar    1  LIG1        0.0747
     39 C          -3.3579    9.7867   -0.5606 C.ar    1  LIG1        0.1742
     40 C          -4.6178   10.4408   -0.7458 C.ar    1  LIG1        0.1689
     41 C          -5.6867    9.6456   -0.4864 C.ar    1  LIG1        0.0218
     42 S          -5.1725    8.0705    0.0114 S.2     1  LIG1       -0.0885
     43 H          -6.7367    9.8829   -0.5530 H       1  LIG1        0.0731
     44 O          -2.1956   10.4328   -0.8167 O.3     1  LIG1       -0.5025
     45 H          -2.4280   11.3257   -1.1109 H       1  LIG1        0.2923
     46 O          -4.5628   11.7328   -1.1612 O.3     1  LIG1       -0.4909
     47 C          -5.8058   12.3769   -1.3669 C.3     1  LIG1        0.0790
     48 H          -5.5834   13.3911   -1.6962 H       1  LIG1        0.0660
     49 H          -6.3893   11.8603   -2.1370 H       1  LIG1        0.0660
     50 H          -6.3845   12.4117   -0.4371 H       1  LIG1        0.0660
@<TRIPOS>BOND
     1    49    47    1
     2    11    10    1
     3    24    22    1
     4    48    47    1
     5    47    46    1
     6    47    50    1
     7     8     7    1
     8    46    40    1
     9     9    10    1
    10     9     3    1
    11    23    22    1
    12    45    44    1
    13    22    25    1
    14    22    21    1
    15    10    13    1
    16    10    12    1
    17    44    39    1
    18    40    39   ar
    19    40    41   ar
    20    39    38   ar
    21    43    41    1
    22    41    42   ar
    23    30    29   ar
    24    30    26   ar
    25     7     2    1
    26    38    42   ar
    27    38    29    1
    28     3     2   ar
    29     3     4   ar
    30    37    34    1
    31    21    16    1
    32    29    28   ar
    33    20    19    1
    34    16    17   ar
    35    16    15   ar
    36     2     1   ar
    37    17    26    1
    38    17    18   ar
    39    19    15    1
    40    26    27   ar
    41    15    14   ar
    42    14    18   ar
    43    14     4    1
    44     4     5   ar
    45    28    27   ar
    46    28    33    1
    47    36    34    1
    48    34    33    1
    49    34    35    1
    50    27    31    1
    51     1     6    1
    52     1     5   ar
    53    31    32    1
