@<TRIPOS>MOLECULE
mol_data/opt/cam/geoms/mol2/5fl5fl-5fl-5fl.out
 50 53 0 0 0
SMALL
GASTEIGER

@<TRIPOS>ATOM
      1 C          -2.2867   -1.8862    1.6957 C.ar    1  LIG1        0.0215
      2 C          -1.4627   -2.1619    0.6549 C.ar    1  LIG1        0.1663
      3 C          -0.7451   -1.0147    0.1827 C.ar    1  LIG1        0.1766
      4 C          -1.0488    0.1350    0.8570 C.ar    1  LIG1        0.0749
      5 S          -2.2025   -0.2109    2.1203 S.2     1  LIG1       -0.0885
      6 H          -2.9453   -2.5642    2.2156 H       1  LIG1        0.0731
      7 O          -1.3149   -3.3763    0.0643 O.3     1  LIG1       -0.5029
      8 H          -0.9249   -3.2098   -0.8063 H       1  LIG1        0.2923
      9 O           0.0752   -1.1332   -0.9053 O.3     1  LIG1       -0.4903
     10 C           1.3587   -1.6952   -0.6049 C.3     1  LIG1        0.0790
     11 H           1.8854   -1.7762   -1.5567 H       1  LIG1        0.0660
     12 H           1.9104   -1.0389    0.0683 H       1  LIG1        0.0660
     13 H           1.2551   -2.6907   -0.1595 H       1  LIG1        0.0660
     14 C          -0.5913    1.4952    0.6254 C.ar    1  LIG1        0.0753
     15 C           0.6673    1.9643    0.3967 C.ar    1  LIG1        0.1748
     16 C           0.7276    3.3766    0.1709 C.ar    1  LIG1        0.1773
     17 C          -0.4859    4.0015    0.2490 C.ar    1  LIG1        0.0755
     18 S          -1.7328    2.8205    0.5785 S.2     1  LIG1       -0.0794
     19 O           1.8009    1.2270    0.3749 O.3     1  LIG1       -0.5025
     20 H           2.5185    1.8501    0.1788 H       1  LIG1        0.2923
     21 O           1.9741    3.8648   -0.0745 O.3     1  LIG1       -0.4903
     22 C           2.1189    4.9027   -1.0375 C.3     1  LIG1        0.0790
     23 H           3.1575    4.8679   -1.3693 H       1  LIG1        0.0660
     24 H           1.4545    4.7349   -1.8904 H       1  LIG1        0.0660
     25 H           1.9131    5.8752   -0.5897 H       1  LIG1        0.0660
     26 C          -0.8274    5.4117    0.1755 C.ar    1  LIG1        0.0753
     27 C          -0.2144    6.4645    0.7863 C.ar    1  LIG1        0.1748
     28 C          -0.8315    7.7298    0.5235 C.ar    1  LIG1        0.1773
     29 C          -1.9432    7.6439   -0.2683 C.ar    1  LIG1        0.0755
     30 S          -2.2130    5.9759   -0.7292 S.2     1  LIG1       -0.0794
     31 O           0.8982    6.3788    1.5504 O.3     1  LIG1       -0.5025
     32 H           1.0838    7.2775    1.8640 H       1  LIG1        0.2923
     33 O          -0.2172    8.7888    1.1123 O.3     1  LIG1       -0.4903
     34 C          -0.2967   10.0686    0.4966 C.3     1  LIG1        0.0790
     35 H           0.5310   10.6510    0.9030 H       1  LIG1        0.0660
     36 H          -0.1889    9.9843   -0.5888 H       1  LIG1        0.0660
     37 H          -1.2409   10.5559    0.7413 H       1  LIG1        0.0660
     38 C          -2.8992    8.6606   -0.6797 C.ar    1  LIG1        0.0747
     39 C          -3.5647    9.5575    0.1021 C.ar    1  LIG1        0.1742
     40 C          -4.4953   10.3652   -0.6271 C.ar    1  LIG1        0.1689
     41 C          -4.5468   10.0686   -1.9511 C.ar    1  LIG1        0.0218
     42 S          -3.4305    8.8038   -2.3425 S.2     1  LIG1       -0.0885
     43 H          -5.1630   10.5108   -2.7179 H       1  LIG1        0.0731
     44 O          -3.3817    9.7092    1.4352 O.3     1  LIG1       -0.5025
     45 H          -4.0343   10.3552    1.7429 H       1  LIG1        0.2923
     46 O          -5.1931   11.2766    0.0977 O.3     1  LIG1       -0.4909
     47 C          -6.1682   12.0223   -0.6066 C.3     1  LIG1        0.0790
     48 H          -6.6421   12.6828    0.1183 H       1  LIG1        0.0660
     49 H          -5.7041   12.6209   -1.3985 H       1  LIG1        0.0660
     50 H          -6.9208   11.3598   -1.0482 H       1  LIG1        0.0660
@<TRIPOS>BOND
     1    43    41    1
     2    42    41   ar
     3    42    38   ar
     4    41    40   ar
     5    24    22    1
     6    11    10    1
     7    49    47    1
     8    23    22    1
     9    50    47    1
    10    22    25    1
    11    22    21    1
    12     9    10    1
    13     9     3    1
    14     8     7    1
    15    30    29   ar
    16    30    26   ar
    17    38    29    1
    18    38    39   ar
    19    40    46    1
    20    40    39   ar
    21    47    46    1
    22    47    48    1
    23    10    13    1
    24    10    12    1
    25    36    34    1
    26    29    28   ar
    27    21    16    1
    28     7     2    1
    29    39    44    1
    30    16    17   ar
    31    16    15   ar
    32    26    17    1
    33    26    27   ar
    34    20    19    1
    35     3     2   ar
    36     3     4   ar
    37    17    18   ar
    38    19    15    1
    39    15    14   ar
    40    34    37    1
    41    34    35    1
    42    34    33    1
    43    28    27   ar
    44    28    33    1
    45    18    14   ar
    46    14     4    1
    47     2     1   ar
    48    27    31    1
    49     4     5   ar
    50    44    45    1
    51    31    32    1
    52     1     5   ar
    53     1     6    1
