@<TRIPOS>MOLECULE
mol_data/opt/cam/geoms/mol2/5fl5fl-5fl-.out
 38 40 0 0 0
SMALL
GASTEIGER

@<TRIPOS>ATOM
      1 C          -0.5414   -2.3297    1.6547 C.ar    1  LIG1        0.0215
      2 C          -0.9826   -2.2192    0.3766 C.ar    1  LIG1        0.1663
      3 C          -0.8460   -0.8947   -0.1516 C.ar    1  LIG1        0.1766
      4 C          -0.3186    0.0064    0.7290 C.ar    1  LIG1        0.0749
      5 S           0.0104   -0.7976    2.2497 S.2     1  LIG1       -0.0885
      6 H          -0.5120   -3.2119    2.2745 H       1  LIG1        0.0731
      7 O          -1.4900   -3.2184   -0.3768 O.3     1  LIG1       -0.5029
      8 H          -1.7738   -2.8104   -1.2097 H       1  LIG1        0.2923
      9 O          -1.2661   -0.6702   -1.4352 O.3     1  LIG1       -0.4903
     10 C          -0.2262   -0.3699   -2.3695 C.3     1  LIG1        0.0790
     11 H          -0.7063   -0.2812   -3.3440 H       1  LIG1        0.0660
     12 H           0.2636    0.5739   -2.1200 H       1  LIG1        0.0660
     13 H           0.5160   -1.1746   -2.3943 H       1  LIG1        0.0660
     14 C          -0.0629    1.4246    0.5569 C.ar    1  LIG1        0.0753
     15 C           1.0261    2.1299    0.9953 C.ar    1  LIG1        0.1748
     16 C           0.9810    3.5223    0.6568 C.ar    1  LIG1        0.1773
     17 C          -0.1508    3.8615   -0.0334 C.ar    1  LIG1        0.0755
     18 S          -1.1800    2.4767   -0.2778 S.2     1  LIG1       -0.0794
     19 O           2.1021    1.6392    1.6566 O.3     1  LIG1       -0.5025
     20 H           2.0250    0.6768    1.7317 H       1  LIG1        0.2923
     21 O           1.9989    4.3849    0.8908 O.3     1  LIG1       -0.4903
     22 C           2.2978    4.6237    2.2657 C.3     1  LIG1        0.0790
     23 H           3.1266    5.3321    2.2741 H       1  LIG1        0.0660
     24 H           1.4354    5.0694    2.7676 H       1  LIG1        0.0660
     25 H           2.6001    3.7021    2.7686 H       1  LIG1        0.0660
     26 C          -0.5173    5.1680   -0.5473 C.ar    1  LIG1        0.0747
     27 C          -0.4201    6.3785    0.0733 C.ar    1  LIG1        0.1742
     28 C          -0.8848    7.4638   -0.7376 C.ar    1  LIG1        0.1689
     29 C          -1.3371    7.0782   -1.9579 C.ar    1  LIG1        0.0218
     30 S          -1.1866    5.3646   -2.1537 S.2     1  LIG1       -0.0885
     31 H          -1.7445    7.6859   -2.7503 H       1  LIG1        0.0731
     32 O           0.0256    6.5855    1.3332 O.3     1  LIG1       -0.5025
     33 H          -0.0464    7.5353    1.5067 H       1  LIG1        0.2923
     34 O          -0.8238    8.6984   -0.1747 O.3     1  LIG1       -0.4909
     35 C          -1.3023    9.7697   -0.9645 C.3     1  LIG1        0.0790
     36 H          -1.1853   10.6751   -0.3703 H       1  LIG1        0.0660
     37 H          -0.7222    9.8610   -1.8897 H       1  LIG1        0.0660
     38 H          -2.3600    9.6283   -1.2140 H       1  LIG1        0.0660
@<TRIPOS>BOND
     1    11    10    1
     2    31    29    1
     3    13    10    1
     4    10    12    1
     5    10     9    1
     6    30    29   ar
     7    30    26   ar
     8    29    28   ar
     9    37    35    1
    10     9     3    1
    11    38    35    1
    12     8     7    1
    13    35    36    1
    14    35    34    1
    15    28    34    1
    16    28    27   ar
    17    26    17    1
    18    26    27   ar
    19     7     2    1
    20    18    17   ar
    21    18    14   ar
    22     3     2   ar
    23     3     4   ar
    24    17    16   ar
    25    27    32    1
    26     2     1   ar
    27    14     4    1
    28    14    15   ar
    29    16    21    1
    30    16    15   ar
    31     4     5   ar
    32    21    22    1
    33    15    19    1
    34    32    33    1
    35     1     5   ar
    36     1     6    1
    37    19    20    1
    38    22    23    1
    39    22    24    1
    40    22    25    1
