@<TRIPOS>MOLECULE
mol_data/opt/cam/geoms/mol2/5fl5fl5fl-.out
 38 40 0 0 0
SMALL
GASTEIGER

@<TRIPOS>ATOM
      1 C          -2.5613   -1.9096    0.7312 C.ar    1  LIG1        0.0215
      2 C          -1.3919   -2.1942    0.1070 C.ar    1  LIG1        0.1663
      3 C          -0.5700   -1.0398   -0.1074 C.ar    1  LIG1        0.1766
      4 C          -1.1348    0.1227    0.3375 C.ar    1  LIG1        0.0749
      5 S          -2.6825   -0.2170    1.0697 S.2     1  LIG1       -0.0885
      6 H          -3.3566   -2.5913    0.9890 H       1  LIG1        0.0731
      7 O          -1.0016   -3.4242   -0.3170 O.3     1  LIG1       -0.5029
      8 H          -0.3070   -3.2776   -0.9756 H       1  LIG1        0.2923
      9 O           0.6110   -1.1693   -0.7847 O.3     1  LIG1       -0.4903
     10 C           1.6880   -1.6687    0.0180 C.3     1  LIG1        0.0790
     11 H           2.5445   -1.7677   -0.6502 H       1  LIG1        0.0660
     12 H           1.9215   -0.9649    0.8169 H       1  LIG1        0.0660
     13 H           1.4393   -2.6486    0.4400 H       1  LIG1        0.0660
     14 C          -0.6494    1.4890    0.2338 C.ar    1  LIG1        0.0753
     15 C           0.5874    1.9963    0.4965 C.ar    1  LIG1        0.1748
     16 C           0.7047    3.4001    0.2395 C.ar    1  LIG1        0.1773
     17 C          -0.4521    3.9796   -0.2012 C.ar    1  LIG1        0.0755
     18 S          -1.7045    2.7660   -0.3299 S.2     1  LIG1       -0.0794
     19 O           1.6501    1.3028    0.9638 O.3     1  LIG1       -0.5025
     20 H           2.3758    1.9428    1.0344 H       1  LIG1        0.2923
     21 O           1.9363    3.9238    0.4838 O.3     1  LIG1       -0.4903
     22 C           2.4212    4.9559   -0.3676 C.3     1  LIG1        0.0790
     23 H           3.5076    4.9450   -0.2709 H       1  LIG1        0.0660
     24 H           2.1426    4.7629   -1.4077 H       1  LIG1        0.0660
     25 H           2.0384    5.9272   -0.0529 H       1  LIG1        0.0660
     26 C          -0.7646    5.3728   -0.4741 C.ar    1  LIG1        0.0747
     27 C          -0.4910    6.4643    0.2960 C.ar    1  LIG1        0.1742
     28 C          -1.0059    7.6848   -0.2473 C.ar    1  LIG1        0.1689
     29 C          -1.6807    7.5155   -1.4133 C.ar    1  LIG1        0.0218
     30 S          -1.6766    5.8508   -1.8906 S.2     1  LIG1       -0.0885
     31 H          -2.1739    8.2574   -2.0212 H       1  LIG1        0.0731
     32 O           0.2038    6.4389    1.4581 O.3     1  LIG1       -0.5025
     33 H           0.1836    7.3354    1.8235 H       1  LIG1        0.2923
     34 O          -0.7694    8.8092    0.4763 O.3     1  LIG1       -0.4909
     35 C          -1.3345   10.0056   -0.0252 C.3     1  LIG1        0.0790
     36 H          -1.0645   10.7971    0.6728 H       1  LIG1        0.0660
     37 H          -0.9335   10.2401   -1.0177 H       1  LIG1        0.0660
     38 H          -2.4256    9.9255   -0.0862 H       1  LIG1        0.0660
@<TRIPOS>BOND
     1    31    29    1
     2    30    29   ar
     3    30    26   ar
     4    29    28   ar
     5    24    22    1
     6    37    35    1
     7     8     7    1
     8     9     3    1
     9     9    10    1
    10    11    10    1
    11    26    17    1
    12    26    27   ar
    13    22    23    1
    14    22    25    1
    15    22    21    1
    16    18    17   ar
    17    18    14   ar
    18     7     2    1
    19    28    27   ar
    20    28    34    1
    21    17    16   ar
    22     3     2   ar
    23     3     4   ar
    24    38    35    1
    25    35    34    1
    26    35    36    1
    27    10    13    1
    28    10    12    1
    29     2     1   ar
    30    14     4    1
    31    14    15   ar
    32    16    21    1
    33    16    15   ar
    34    27    32    1
    35     4     5   ar
    36    15    19    1
    37     1     6    1
    38     1     5   ar
    39    19    20    1
    40    32    33    1
