@<TRIPOS>MOLECULE
mol_data/opt/cam/geoms/mol2/5fl5fl5fl5fl-.out
 50 53 0 0 0
SMALL
GASTEIGER

@<TRIPOS>ATOM
      1 C          -2.5061   -1.9967    0.2260 C.ar    1  LIG1        0.0215
      2 C          -1.2405   -2.1687   -0.2287 C.ar    1  LIG1        0.1663
      3 C          -0.4837   -0.9523   -0.2681 C.ar    1  LIG1        0.1766
      4 C          -1.1933    0.1449    0.1349 C.ar    1  LIG1        0.0749
      5 S          -2.8017   -0.3363    0.6138 S.2     1  LIG1       -0.0885
      6 H          -3.2779   -2.7428    0.3327 H       1  LIG1        0.0731
      7 O          -0.7044   -3.3464   -0.6423 O.3     1  LIG1       -0.5029
      8 H           0.0593   -3.1210   -1.1931 H       1  LIG1        0.2923
      9 O           0.7901   -0.9626   -0.7656 O.3     1  LIG1       -0.4903
     10 C           1.7697   -1.4525    0.1582 C.3     1  LIG1        0.0790
     11 H           2.7196   -1.4543   -0.3779 H       1  LIG1        0.0660
     12 H           1.8356   -0.7932    1.0239 H       1  LIG1        0.0660
     13 H           1.5293   -2.4717    0.4795 H       1  LIG1        0.0660
     14 C          -0.7993    1.5423    0.1597 C.ar    1  LIG1        0.0753
     15 C           0.3613    2.1173    0.5866 C.ar    1  LIG1        0.1748
     16 C           0.3799    3.5423    0.4728 C.ar    1  LIG1        0.1773
     17 C          -0.7832    4.0711   -0.0130 C.ar    1  LIG1        0.0755
     18 S          -1.8951    2.7856   -0.4021 S.2     1  LIG1       -0.0794
     19 O           1.4125    1.4622    1.1424 O.3     1  LIG1       -0.5025
     20 H           1.9165    2.1297    1.6323 H       1  LIG1        0.2923
     21 O           1.4623    4.2342    0.9419 O.3     1  LIG1       -0.4903
     22 C           2.5787    4.2469    0.0421 C.3     1  LIG1        0.0790
     23 H           3.3748    4.7889    0.5539 H       1  LIG1        0.0660
     24 H           2.9129    3.2277   -0.1798 H       1  LIG1        0.0660
     25 H           2.3139    4.7636   -0.8802 H       1  LIG1        0.0660
     26 C          -1.1732    5.4589   -0.1793 C.ar    1  LIG1        0.0753
     27 C          -0.4637    6.5160   -0.6699 C.ar    1  LIG1        0.1748
     28 C          -1.1980    7.7420   -0.7031 C.ar    1  LIG1        0.1773
     29 C          -2.4871    7.6235   -0.2662 C.ar    1  LIG1        0.0755
     30 S          -2.7833    5.9878    0.2571 S.2     1  LIG1       -0.0794
     31 O           0.7994    6.4634   -1.1626 O.3     1  LIG1       -0.5025
     32 H           0.9055    7.2535   -1.7144 H       1  LIG1        0.2923
     33 O          -0.6136    8.8513   -1.2482 O.3     1  LIG1       -0.4903
     34 C           0.2709    9.5430   -0.3560 C.3     1  LIG1        0.0790
     35 H           0.6980   10.3659   -0.9304 H       1  LIG1        0.0660
     36 H          -0.2837    9.9347    0.4966 H       1  LIG1        0.0660
     37 H           1.0734    8.8817   -0.0116 H       1  LIG1        0.0660
     38 C          -3.5531    8.6108   -0.2372 C.ar    1  LIG1        0.0747
     39 C          -3.5327    9.8974    0.2136 C.ar    1  LIG1        0.1742
     40 C          -4.7943   10.5613    0.0821 C.ar    1  LIG1        0.1689
     41 C          -5.7659    9.7818   -0.4568 C.ar    1  LIG1        0.0218
     42 S          -5.1503    8.2102   -0.8363 S.2     1  LIG1       -0.0885
     43 H          -6.7967   10.0289   -0.6562 H       1  LIG1        0.0731
     44 O          -2.4719   10.5276    0.7710 O.3     1  LIG1       -0.5025
     45 H          -2.7689   11.4154    1.0188 H       1  LIG1        0.2923
     46 O          -4.8401   11.8452    0.5227 O.3     1  LIG1       -0.4909
     47 C          -6.0926   12.4961    0.4242 C.3     1  LIG1        0.0790
     48 H          -5.9561   13.5016    0.8200 H       1  LIG1        0.0660
     49 H          -6.4198   12.5542   -0.6199 H       1  LIG1        0.0660
     50 H          -6.8524   11.9695    1.0125 H       1  LIG1        0.0660
@<TRIPOS>BOND
     1    32    31    1
     2    33    28    1
     3    33    34    1
     4     8     7    1
     5    31    27    1
     6    35    34    1
     7    25    22    1
     8    42    41   ar
     9    42    38   ar
    10     9     3    1
    11     9    10    1
    12    28    27   ar
    13    28    29   ar
    14    27    26   ar
    15    43    41    1
    16     7     2    1
    17    49    47    1
    18    41    40   ar
    19    18    17   ar
    20    18    14   ar
    21    11    10    1
    22    34    37    1
    23    34    36    1
    24     3     2   ar
    25     3     4   ar
    26    29    38    1
    27    29    30   ar
    28    38    39   ar
    29     2     1   ar
    30    24    22    1
    31    26    17    1
    32    26    30   ar
    33    17    16   ar
    34    22    23    1
    35    22    21    1
    36    40    39   ar
    37    40    46    1
    38     4    14    1
    39     4     5   ar
    40    10    13    1
    41    10    12    1
    42    14    15   ar
    43    39    44    1
    44     1     6    1
    45     1     5   ar
    46    47    46    1
    47    47    48    1
    48    47    50    1
    49    16    15   ar
    50    16    21    1
    51    15    19    1
    52    44    45    1
    53    19    20    1
