@<TRIPOS>MOLECULE
mol_data/opt/cam/geoms/mol2/5fl5fl.out
 26 27 0 0 0
SMALL
GASTEIGER

@<TRIPOS>ATOM
      1 C          -2.4688   -1.8475    0.4876 C.ar    1  LIG1        0.0215
      2 C          -1.2208   -2.1595    0.0588 C.ar    1  LIG1        0.1663
      3 C          -0.4065   -1.0074   -0.1930 C.ar    1  LIG1        0.1766
      4 C          -1.0524    0.1763    0.0272 C.ar    1  LIG1        0.0749
      5 S          -2.6745   -0.1325    0.5906 S.2     1  LIG1       -0.0885
      6 H          -3.2745   -2.5240    0.7261 H       1  LIG1        0.0731
      7 O          -0.7477   -3.4148   -0.1512 O.3     1  LIG1       -0.5029
      8 H           0.0265   -3.3222   -0.7254 H       1  LIG1        0.2923
      9 O           0.8560   -1.1700   -0.6926 O.3     1  LIG1       -0.4903
     10 C           1.8348   -1.5064    0.2987 C.3     1  LIG1        0.0790
     11 H           2.7724   -1.6552   -0.2383 H       1  LIG1        0.0660
     12 H           1.9424   -0.6917    1.0152 H       1  LIG1        0.0660
     13 H           1.5620   -2.4308    0.8195 H       1  LIG1        0.0660
     14 C          -0.5840    1.5376   -0.1828 C.ar    1  LIG1        0.0747
     15 C           0.5625    2.1347    0.2481 C.ar    1  LIG1        0.1742
     16 C           0.6754    3.5025   -0.1607 C.ar    1  LIG1        0.1689
     17 C          -0.3817    3.9416   -0.8899 C.ar    1  LIG1        0.0218
     18 S          -1.5403    2.6754   -1.1101 S.2     1  LIG1       -0.0885
     19 H          -0.5524    4.9204   -1.3096 H       1  LIG1        0.0731
     20 O           1.5190    1.5574    1.0145 O.3     1  LIG1       -0.5025
     21 H           2.1937    2.2319    1.1800 H       1  LIG1        0.2923
     22 O           1.7951    4.1559    0.2459 O.3     1  LIG1       -0.4909
     23 C           1.8989    5.5141   -0.1354 C.3     1  LIG1        0.0790
     24 H           2.8407    5.8831    0.2688 H       1  LIG1        0.0660
     25 H           1.9044    5.6127   -1.2267 H       1  LIG1        0.0660
     26 H           1.0685    6.0990    0.2758 H       1  LIG1        0.0660
@<TRIPOS>BOND
     1    19    17    1
     2    25    23    1
     3    18    17   ar
     4    18    14   ar
     5    17    16   ar
     6     8     7    1
     7     9     3    1
     8     9    10    1
     9    11    10    1
    10     3     4   ar
    11     3     2   ar
    12    14     4    1
    13    14    15   ar
    14    16    22    1
    15    16    15   ar
    16     7     2    1
    17    23    22    1
    18    23    24    1
    19    23    26    1
    20     4     5   ar
    21     2     1   ar
    22    15    20    1
    23    10    13    1
    24    10    12    1
    25     1     5   ar
    26     1     6    1
    27    20    21    1
