@<TRIPOS>MOLECULE
mol_data/opt/cam/geoms/mol2/5fl5fl-5fl5fl.out
 50 53 0 0 0
SMALL
GASTEIGER

@<TRIPOS>ATOM
      1 C          -2.2435   -1.9622    1.3632 C.ar    1  LIG1        0.0215
      2 C          -1.2626   -2.1379    0.4434 C.ar    1  LIG1        0.1663
      3 C          -0.5841   -0.9227    0.1027 C.ar    1  LIG1        0.1766
      4 C          -1.0751    0.1761    0.7518 C.ar    1  LIG1        0.0749
      5 S          -2.3596   -0.3014    1.8326 S.2     1  LIG1       -0.0885
      6 H          -2.9101   -2.7070    1.7691 H       1  LIG1        0.0731
      7 O          -0.9361   -3.3186   -0.1435 O.3     1  LIG1       -0.5029
      8 H          -0.4630   -3.0996   -0.9592 H       1  LIG1        0.2923
      9 O           0.3872   -0.9323   -0.8595 O.3     1  LIG1       -0.4903
     10 C           1.6524   -1.4256   -0.4021 C.3     1  LIG1        0.0790
     11 H           2.3112   -1.4262   -1.2714 H       1  LIG1        0.0660
     12 H           2.0580   -0.7697    0.3686 H       1  LIG1        0.0660
     13 H           1.5583   -2.4457   -0.0146 H       1  LIG1        0.0660
     14 C          -0.7003    1.5722    0.6135 C.ar    1  LIG1        0.0753
     15 C           0.5368    2.1472    0.5760 C.ar    1  LIG1        0.1748
     16 C           0.4924    3.5598    0.4056 C.ar    1  LIG1        0.1773
     17 C          -0.7637    4.0959    0.3409 C.ar    1  LIG1        0.0755
     18 S          -1.9320    2.8119    0.4612 S.2     1  LIG1       -0.0794
     19 O           1.7183    1.4954    0.6946 O.3     1  LIG1       -0.5025
     20 H           2.4023    2.1742    0.7921 H       1  LIG1        0.2923
     21 O           1.6814    4.2679    0.3537 O.3     1  LIG1       -0.4903
     22 C           2.0736    4.6409   -0.9781 C.3     1  LIG1        0.0790
     23 H           3.0242    5.1658   -0.8851 H       1  LIG1        0.0660
     24 H           2.1963    3.7481   -1.5969 H       1  LIG1        0.0660
     25 H           1.3253    5.2987   -1.4263 H       1  LIG1        0.0660
     26 C          -1.1465    5.4878    0.2241 C.ar    1  LIG1        0.0753
     27 C          -0.4605    6.5943    0.6676 C.ar    1  LIG1        0.1748
     28 C          -1.1637    7.8224    0.4293 C.ar    1  LIG1        0.1773
     29 C          -2.3797    7.6420   -0.1687 C.ar    1  LIG1        0.0755
     30 S          -2.6844    5.9532   -0.4656 S.2     1  LIG1       -0.0794
     31 O           0.7356    6.6306    1.2883 O.3     1  LIG1       -0.5025
     32 H           1.1878    5.7713    1.1875 H       1  LIG1        0.2923
     33 O          -0.6914    9.0393    0.7976 O.3     1  LIG1       -0.4903
     34 C           0.5032    9.4492    0.1419 C.3     1  LIG1        0.0790
     35 H           0.7387   10.4404    0.5305 H       1  LIG1        0.0660
     36 H           1.3286    8.7665    0.3578 H       1  LIG1        0.0660
     37 H           0.3494    9.5141   -0.9415 H       1  LIG1        0.0660
     38 C          -3.3436    8.6606   -0.5417 C.ar    1  LIG1        0.0747
     39 C          -3.7942    9.7071    0.2088 C.ar    1  LIG1        0.1742
     40 C          -4.7545   10.5162   -0.4837 C.ar    1  LIG1        0.1689
     41 C          -5.0342   10.0795   -1.7379 C.ar    1  LIG1        0.0218
     42 S          -4.1098    8.6651   -2.1174 S.2     1  LIG1       -0.0885
     43 H          -5.7197   10.4945   -2.4597 H       1  LIG1        0.0731
     44 O          -3.4354    9.9706    1.4809 O.3     1  LIG1       -0.5025
     45 H          -3.9299   10.7535    1.7624 H       1  LIG1        0.2923
     46 O          -5.2526   11.5743    0.2064 O.3     1  LIG1       -0.4909
     47 C          -6.2259   12.3533   -0.4608 C.3     1  LIG1        0.0790
     48 H          -6.5205   13.1450    0.2270 H       1  LIG1        0.0660
     49 H          -5.8121   12.7965   -1.3738 H       1  LIG1        0.0660
     50 H          -7.1013   11.7469   -0.7193 H       1  LIG1        0.0660
@<TRIPOS>BOND
     1    43    41    1
     2    42    41   ar
     3    42    38   ar
     4    41    40   ar
     5    24    22    1
     6    25    22    1
     7    49    47    1
     8    11    10    1
     9    22    23    1
    10    22    21    1
    11     8     7    1
    12    37    34    1
    13     9    10    1
    14     9     3    1
    15    50    47    1
    16    38    29    1
    17    38    39   ar
    18    40    46    1
    19    40    39   ar
    20    30    29   ar
    21    30    26   ar
    22    47    46    1
    23    47    48    1
    24    10    13    1
    25    10    12    1
    26    29    28   ar
    27     7     2    1
    28     3     2   ar
    29     3     4   ar
    30    34    36    1
    31    34    35    1
    32    34    33    1
    33    39    44    1
    34    26    17    1
    35    26    27   ar
    36    17    16   ar
    37    17    18   ar
    38    21    16    1
    39    16    15   ar
    40    28    27   ar
    41    28    33    1
    42     2     1   ar
    43    18    14   ar
    44    15    14   ar
    45    15    19    1
    46    14     4    1
    47    27    31    1
    48    19    20    1
    49     4     5   ar
    50    32    31    1
    51     1     6    1
    52     1     5   ar
    53    44    45    1
