@<TRIPOS>MOLECULE
mol_data/opt/cam/geoms/mol2/5fl5fl5fl5fl.out
 50 53 0 0 0
SMALL
GASTEIGER

@<TRIPOS>ATOM
      1 C          -2.1203   -1.9070    1.5371 C.ar    1  LIG1        0.0215
      2 C          -1.2441   -2.1261    0.5257 C.ar    1  LIG1        0.1663
      3 C          -0.5927   -0.9320    0.0746 C.ar    1  LIG1        0.1766
      4 C          -1.0010    0.1941    0.7341 C.ar    1  LIG1        0.0749
      5 S          -2.1691   -0.2302    1.9596 S.2     1  LIG1       -0.0885
      6 H          -2.7479   -2.6289    2.0359 H       1  LIG1        0.0731
      7 O          -0.9939   -3.3296   -0.0522 O.3     1  LIG1       -0.5029
      8 H          -0.6067   -3.1439   -0.9198 H       1  LIG1        0.2923
      9 O           0.2715   -0.9862   -0.9834 O.3     1  LIG1       -0.4903
     10 C           1.5721   -1.4838   -0.6459 C.3     1  LIG1        0.0790
     11 H           2.1353   -1.5214   -1.5792 H       1  LIG1        0.0660
     12 H           2.0646   -0.8102    0.0559 H       1  LIG1        0.0660
     13 H           1.5078   -2.4897   -0.2174 H       1  LIG1        0.0660
     14 C          -0.6293    1.5797    0.5092 C.ar    1  LIG1        0.0753
     15 C           0.6018    2.1348    0.3119 C.ar    1  LIG1        0.1748
     16 C           0.5540    3.5415    0.0984 C.ar    1  LIG1        0.1773
     17 C          -0.6953    4.0936    0.1588 C.ar    1  LIG1        0.0755
     18 S          -1.8567    2.8319    0.4551 S.2     1  LIG1       -0.0794
     19 O           1.7819    1.4702    0.3190 O.3     1  LIG1       -0.5025
     20 H           2.4796    2.1420    0.3045 H       1  LIG1        0.2923
     21 O           1.7368    4.2287   -0.1147 O.3     1  LIG1       -0.4903
     22 C           1.9707    4.5666   -1.4935 C.3     1  LIG1        0.0790
     23 H           2.9316    5.0795   -1.5267 H       1  LIG1        0.0660
     24 H           2.0072    3.6582   -2.1003 H       1  LIG1        0.0660
     25 H           1.1829    5.2266   -1.8636 H       1  LIG1        0.0660
     26 C          -1.0717    5.4870    0.0412 C.ar    1  LIG1        0.0753
     27 C          -0.3257    6.5950    0.3665 C.ar    1  LIG1        0.1748
     28 C          -1.0278    7.8292    0.1526 C.ar    1  LIG1        0.1773
     29 C          -2.2983    7.6494   -0.3214 C.ar    1  LIG1        0.0755
     30 S          -2.6518    5.9577   -0.5403 S.2     1  LIG1       -0.0794
     31 O           0.9336    6.6289    0.8460 O.3     1  LIG1       -0.5025
     32 H           1.3633    5.7619    0.7159 H       1  LIG1        0.2923
     33 O          -0.4578    9.0481    0.3080 O.3     1  LIG1       -0.4903
     34 C          -0.0674    9.3809    1.6401 C.3     1  LIG1        0.0790
     35 H           0.3597   10.3828    1.5857 H       1  LIG1        0.0660
     36 H          -0.9408    9.3956    2.2967 H       1  LIG1        0.0660
     37 H           0.6835    8.6821    2.0154 H       1  LIG1        0.0660
     38 C          -3.2750    8.6679   -0.6586 C.ar    1  LIG1        0.0747
     39 C          -3.6017    9.7913    0.0423 C.ar    1  LIG1        0.1742
     40 C          -4.6243   10.5695   -0.5902 C.ar    1  LIG1        0.1689
     41 C          -5.0732   10.0366   -1.7551 C.ar    1  LIG1        0.0218
     42 S          -4.2344    8.5669   -2.1204 S.2     1  LIG1       -0.0885
     43 H          -5.8356   10.4110   -2.4196 H       1  LIG1        0.0731
     44 O          -3.0757   10.1602    1.2319 O.3     1  LIG1       -0.5025
     45 H          -3.5212   10.9777    1.4975 H       1  LIG1        0.2923
     46 O          -5.0042   11.6989    0.0618 O.3     1  LIG1       -0.4909
     47 C          -6.0309   12.4571   -0.5475 C.3     1  LIG1        0.0790
     48 H          -6.2118   13.3164    0.0970 H       1  LIG1        0.0660
     49 H          -5.7229   12.8025   -1.5409 H       1  LIG1        0.0660
     50 H          -6.9498   11.8672   -0.6393 H       1  LIG1        0.0660
@<TRIPOS>BOND
     1    43    41    1
     2    42    41   ar
     3    42    38   ar
     4    24    22    1
     5    25    22    1
     6    41    40   ar
     7    11    10    1
     8    49    47    1
     9    23    22    1
    10    22    21    1
    11     9    10    1
    12     9     3    1
    13     8     7    1
    14    38    29    1
    15    38    39   ar
    16    10    13    1
    17    10    12    1
    18    50    47    1
    19    40    39   ar
    20    40    46    1
    21    47    46    1
    22    47    48    1
    23    30    29   ar
    24    30    26   ar
    25    29    28   ar
    26    21    16    1
    27     7     2    1
    28    26    17    1
    29    26    27   ar
    30    39    44    1
    31     3     2   ar
    32     3     4   ar
    33    16    17   ar
    34    16    15   ar
    35    28    33    1
    36    28    27   ar
    37    17    18   ar
    38    20    19    1
    39    33    34    1
    40    15    19    1
    41    15    14   ar
    42    27    31    1
    43    18    14   ar
    44    14     4    1
    45     2     1   ar
    46    32    31    1
    47     4     5   ar
    48    44    45    1
    49     1     5   ar
    50     1     6    1
    51    35    34    1
    52    34    37    1
    53    34    36    1
