@<TRIPOS>MOLECULE
mol_data/opt/cam/geoms/mol2/5fl5fl-.out
 26 27 0 0 0
SMALL
GASTEIGER

@<TRIPOS>ATOM
      1 C          -2.4701   -1.8490    0.4618 C.ar    1  LIG1        0.0215
      2 C          -1.2215   -2.1595    0.0339 C.ar    1  LIG1        0.1663
      3 C          -0.4064   -1.0066   -0.2118 C.ar    1  LIG1        0.1766
      4 C          -1.0525    0.1763    0.0122 C.ar    1  LIG1        0.0749
      5 S          -2.6756   -0.1344    0.5714 S.2     1  LIG1       -0.0885
      6 H          -3.2764   -2.5263    0.6962 H       1  LIG1        0.0731
      7 O          -0.7483   -3.4140   -0.1805 O.3     1  LIG1       -0.5029
      8 H           0.0274   -3.3191   -0.7525 H       1  LIG1        0.2923
      9 O           0.8568   -1.1675   -0.7098 O.3     1  LIG1       -0.4903
     10 C           1.8339   -1.5076    0.2819 C.3     1  LIG1        0.0790
     11 H           2.7725   -1.6544   -0.2541 H       1  LIG1        0.0660
     12 H           1.9403   -0.6955    1.0016 H       1  LIG1        0.0660
     13 H           1.5603   -2.4338    0.7989 H       1  LIG1        0.0660
     14 C          -0.5835    1.5384   -0.1915 C.ar    1  LIG1        0.0747
     15 C           0.5622    2.1336    0.2443 C.ar    1  LIG1        0.1742
     16 C           0.6762    3.5030   -0.1589 C.ar    1  LIG1        0.1689
     17 C          -0.3792    3.9451   -0.8888 C.ar    1  LIG1        0.0218
     18 S          -1.5375    2.6800   -1.1165 S.2     1  LIG1       -0.0885
     19 H          -0.5487    4.9256   -1.3051 H       1  LIG1        0.0731
     20 O           1.5168    1.5532    1.0107 O.3     1  LIG1       -0.5025
     21 H           2.1912    2.2270    1.1803 H       1  LIG1        0.2923
     22 O           1.7951    4.1546    0.2527 O.3     1  LIG1       -0.4909
     23 C           1.8998    5.5143   -0.1229 C.3     1  LIG1        0.0790
     24 H           2.8407    5.8816    0.2849 H       1  LIG1        0.0660
     25 H           1.9078    5.6173   -1.2138 H       1  LIG1        0.0660
     26 H           1.0685    6.0976    0.2888 H       1  LIG1        0.0660
@<TRIPOS>BOND
     1    19    17    1
     2    25    23    1
     3    18    17   ar
     4    18    14   ar
     5    17    16   ar
     6     8     7    1
     7     9     3    1
     8     9    10    1
     9    11    10    1
    10     3     4   ar
    11     3     2   ar
    12    14     4    1
    13    14    15   ar
    14     7     2    1
    15    16    15   ar
    16    16    22    1
    17    23    22    1
    18    23    24    1
    19    23    26    1
    20     4     5   ar
    21     2     1   ar
    22    15    20    1
    23    10    13    1
    24    10    12    1
    25     1     5   ar
    26     1     6    1
    27    20    21    1
