@<TRIPOS>MOLECULE
mol_data/opt/cam/geoms/mol2/5ga.out
 10 10 0 0 0
SMALL
GASTEIGER

@<TRIPOS>ATOM
      1 C          -2.0936   -1.6623   -0.0001 C.ar    1  LIG1       -0.0112
      2 C          -0.7315   -1.6424   -0.0002 C.ar    1  LIG1        0.0117
      3 C          -0.2051   -0.3114    0.0001 C.ar    1  LIG1       -0.0415
      4 C          -1.1815    0.6335    0.0005 C.ar    1  LIG1       -0.0233
      5 S          -2.7528   -0.0687    0.0001 S.2     1  LIG1       -0.1040
      6 H          -2.7454   -2.5237   -0.0002 H       1  LIG1        0.0704
      7 H          -1.0624    1.7073    0.0009 H       1  LIG1        0.0694
      8 S           0.2468   -3.1233   -0.0006 S.3     1  LIG1       -0.1421
      9 H           1.4412   -2.5116   -0.0012 H       1  LIG1        0.1071
     10 H           0.8531   -0.0806    0.0001 H       1  LIG1        0.0634
@<TRIPOS>BOND
     1     9     8    1
     2     8     2    1
     3     6     1    1
     4     2     1   ar
     5     2     3   ar
     6     1     5   ar
     7     3    10    1
     8     3     4   ar
     9     5     4   ar
    10     4     7    1
