@<TRIPOS>MOLECULE
mol_data/opt/cam/geoms/mol2/5ga5ga-5ga-.out
 26 28 0 0 0
SMALL
GASTEIGER

@<TRIPOS>ATOM
      1 C          -1.9913   -1.8509   -0.0566 C.ar    1  LIG1       -0.0105
      2 C          -0.7286   -1.7902    0.4512 C.ar    1  LIG1        0.0124
      3 C          -0.2188   -0.4576    0.5000 C.ar    1  LIG1       -0.0332
      4 C          -1.0938    0.4687    0.0064 C.ar    1  LIG1        0.0280
      5 S          -2.5747   -0.2968   -0.5081 S.2     1  LIG1       -0.0950
      6 H          -2.6018   -2.7314   -0.1932 H       1  LIG1        0.0704
      7 S           0.1225   -3.2189    1.0827 S.3     1  LIG1       -0.1421
      8 H           1.1172   -3.2385    0.1769 H       1  LIG1        0.1071
      9 H           0.7450   -0.2055    0.9230 H       1  LIG1        0.0640
     10 C          -0.9020    1.9040   -0.1216 C.ar    1  LIG1        0.0397
     11 C           0.2325    2.5872   -0.4837 C.ar    1  LIG1        0.0206
     12 C           0.0445    3.9995   -0.5172 C.ar    1  LIG1       -0.0326
     13 C          -1.2233    4.3883   -0.1889 C.ar    1  LIG1        0.0286
     14 S          -2.2054    3.0113    0.2098 S.2     1  LIG1       -0.0861
     15 S           1.7631    1.7925   -0.8939 S.3     1  LIG1       -0.1415
     16 H           2.2775    2.8322   -1.5701 H       1  LIG1        0.1071
     17 H           0.8176    4.6960   -0.8160 H       1  LIG1        0.0640
     18 C          -1.7557    5.7395   -0.1241 C.ar    1  LIG1        0.0391
     19 C          -1.1387    6.8849    0.3164 C.ar    1  LIG1        0.0200
     20 C          -1.9800    8.0367    0.2263 C.ar    1  LIG1       -0.0409
     21 C          -3.2145    7.7501   -0.2603 C.ar    1  LIG1       -0.0227
     22 S          -3.3803    6.0851   -0.6544 S.2     1  LIG1       -0.0950
     23 H          -4.0371    8.4323   -0.4193 H       1  LIG1        0.0694
     24 S           0.5214    6.9270    0.9368 S.3     1  LIG1       -0.1415
     25 H           0.3899    8.0887    1.5972 H       1  LIG1        0.1071
     26 H          -1.6672    9.0305    0.5216 H       1  LIG1        0.0634
@<TRIPOS>BOND
     1    16    15    1
     2    15    11    1
     3    17    12    1
     4    22    21   ar
     5    22    18   ar
     6    12    11   ar
     7    12    13   ar
     8     5     1   ar
     9     5     4   ar
    10    11    10   ar
    11    23    21    1
    12    21    20   ar
    13     6     1    1
    14    13    18    1
    15    13    14   ar
    16    18    19   ar
    17    10     4    1
    18    10    14   ar
    19     1     2   ar
    20     4     3   ar
    21     8     7    1
    22    20    19   ar
    23    20    26    1
    24    19    24    1
    25     2     3   ar
    26     2     7    1
    27     3     9    1
    28    24    25    1
