@<TRIPOS>MOLECULE
mol_data/opt/cam/geoms/mol2/5ga5ga-5ga5ga.out
 34 37 0 0 0
SMALL
GASTEIGER

@<TRIPOS>ATOM
      1 C          -1.9781   -1.9119    0.1303 C.ar    1  LIG1       -0.0105
      2 C          -0.6855   -1.8812   -0.2989 C.ar    1  LIG1        0.0124
      3 C          -0.1617   -0.5551   -0.3722 C.ar    1  LIG1       -0.0332
      4 C          -1.0577    0.3971    0.0252 C.ar    1  LIG1        0.0280
      5 S          -2.5747   -0.3363    0.4776 S.2     1  LIG1       -0.0950
      6 H          -2.6040   -2.7817    0.2654 H       1  LIG1        0.0704
      7 S           0.1897   -3.3410   -0.8155 S.3     1  LIG1       -0.1421
      8 H           1.1250   -3.3306    0.1517 H       1  LIG1        0.1071
      9 H           0.8289   -0.3276   -0.7441 H       1  LIG1        0.0640
     10 C          -0.8627    1.8355    0.1017 C.ar    1  LIG1        0.0397
     11 C           0.2536    2.5291    0.4994 C.ar    1  LIG1        0.0206
     12 C           0.0750    3.9420    0.4585 C.ar    1  LIG1       -0.0326
     13 C          -1.1687    4.3219    0.0380 C.ar    1  LIG1        0.0286
     14 S          -2.1363    2.9327   -0.3554 S.2     1  LIG1       -0.0861
     15 S           1.7513    1.7460    1.0343 S.3     1  LIG1       -0.1415
     16 H           2.2379    2.8158    1.6836 H       1  LIG1        0.1071
     17 H           0.8340    4.6471    0.7728 H       1  LIG1        0.0640
     18 C          -1.6870    5.6696   -0.1185 C.ar    1  LIG1        0.0397
     19 C          -1.0328    6.7982   -0.5492 C.ar    1  LIG1        0.0206
     20 C          -1.8751    7.9465   -0.5903 C.ar    1  LIG1       -0.0326
     21 C          -3.1597    7.6952   -0.1982 C.ar    1  LIG1        0.0286
     22 S          -3.3472    6.0321    0.2672 S.2     1  LIG1       -0.0861
     23 S           0.6703    6.8158   -1.0385 S.3     1  LIG1       -0.1415
     24 H           0.6138    7.9947   -1.6782 H       1  LIG1        0.1071
     25 H          -1.5437    8.9156   -0.9411 H       1  LIG1        0.0640
     26 C          -4.2702    8.6300   -0.1204 C.ar    1  LIG1        0.0391
     27 C          -4.2577    9.9477    0.2674 C.ar    1  LIG1        0.0200
     28 C          -5.5512   10.5528    0.2130 C.ar    1  LIG1       -0.0409
     29 C          -6.5182    9.6919   -0.1951 C.ar    1  LIG1       -0.0227
     30 S          -5.8843    8.1357   -0.5563 S.2     1  LIG1       -0.0950
     31 H          -7.5734    9.8912   -0.3140 H       1  LIG1        0.0694
     32 S          -2.7944   10.8030    0.7864 S.3     1  LIG1       -0.1415
     33 H          -3.4357   11.7880    1.4355 H       1  LIG1        0.1071
     34 H          -5.7397   11.5863    0.4758 H       1  LIG1        0.0634
@<TRIPOS>BOND
     1    24    23    1
     2    23    19    1
     3    25    20    1
     4     7     2    1
     5     7     8    1
     6     9     3    1
     7    20    19   ar
     8    20    21   ar
     9    30    29   ar
    10    30    26   ar
    11    19    18   ar
    12     3     2   ar
    13     3     4   ar
    14    14    13   ar
    15    14    10   ar
    16    31    29    1
    17     2     1   ar
    18    21    26    1
    19    21    22   ar
    20    29    28   ar
    21    26    27   ar
    22    18    13    1
    23    18    22   ar
    24     4    10    1
    25     4     5   ar
    26    13    12   ar
    27    10    11   ar
    28     1     6    1
    29     1     5   ar
    30    28    27   ar
    31    28    34    1
    32    27    32    1
    33    12    11   ar
    34    12    17    1
    35    11    15    1
    36    32    33    1
    37    15    16    1
