@<TRIPOS>MOLECULE
mol_data/opt/cam/geoms/mol2/5ga5ga5ga-.out
 26 28 0 0 0
SMALL
GASTEIGER

@<TRIPOS>ATOM
      1 C          -1.8544   -1.7800    0.8210 C.ar    1  LIG1       -0.0105
      2 C          -0.8491   -1.8298   -0.0972 C.ar    1  LIG1        0.0124
      3 C          -0.4065   -0.5331   -0.4984 C.ar    1  LIG1       -0.0332
      4 C          -1.0665    0.4792    0.1392 C.ar    1  LIG1        0.0280
      5 S          -2.2637   -0.1614    1.2346 S.2     1  LIG1       -0.0950
      6 H          -2.3673   -2.6136    1.2777 H       1  LIG1        0.0704
      7 S          -0.2531   -3.3568   -0.7880 S.3     1  LIG1       -0.1421
      8 H           0.9914   -3.3000   -0.2799 H       1  LIG1        0.1071
      9 H           0.3458   -0.3722   -1.2597 H       1  LIG1        0.0640
     10 C          -0.8625    1.9117   -0.0033 C.ar    1  LIG1        0.0397
     11 C           0.3165    2.5986   -0.1542 C.ar    1  LIG1        0.0206
     12 C           0.1284    4.0054   -0.2851 C.ar    1  LIG1       -0.0326
     13 C          -1.1796    4.3901   -0.2034 C.ar    1  LIG1        0.0286
     14 S          -2.2157    3.0096    0.0002 S.2     1  LIG1       -0.0861
     15 S           1.9078    1.8183   -0.2013 S.3     1  LIG1       -0.1415
     16 H           2.6001    2.9000    0.1913 H       1  LIG1        0.1071
     17 H           0.9396    4.7001   -0.4618 H       1  LIG1        0.0640
     18 C          -1.7190    5.7389   -0.2638 C.ar    1  LIG1        0.0391
     19 C          -1.1998    6.8939    0.2681 C.ar    1  LIG1        0.0200
     20 C          -2.0122    8.0396    0.0041 C.ar    1  LIG1       -0.0409
     21 C          -3.1317    7.7391   -0.7025 C.ar    1  LIG1       -0.0227
     22 S          -3.2148    6.0679   -1.0967 S.2     1  LIG1       -0.0950
     23 H          -3.9113    8.4142   -1.0245 H       1  LIG1        0.0694
     24 S           0.3143    6.9550    1.1884 S.3     1  LIG1       -0.1415
     25 H           0.0462    8.1110    1.8167 H       1  LIG1        0.1071
     26 H          -1.7633    9.0392    0.3380 H       1  LIG1        0.0634
@<TRIPOS>BOND
     1     9     3    1
     2    22    21   ar
     3    22    18   ar
     4    23    21    1
     5     7     8    1
     6     7     2    1
     7    21    20   ar
     8     3     2   ar
     9     3     4   ar
    10    17    12    1
    11    12    13   ar
    12    12    11   ar
    13    18    13    1
    14    18    19   ar
    15    13    14   ar
    16    15    11    1
    17    15    16    1
    18    11    10   ar
    19     2     1   ar
    20    10    14   ar
    21    10     4    1
    22    20    19   ar
    23    20    26    1
    24     4     5   ar
    25    19    24    1
    26     1     5   ar
    27     1     6    1
    28    24    25    1
