@<TRIPOS>MOLECULE
mol_data/opt/cam/geoms/mol2/5ga5ga-5ga5ga-.out
 34 37 0 0 0
SMALL
GASTEIGER

@<TRIPOS>ATOM
      1 C          -1.6625   -1.8972    0.8469 C.ar    1  LIG1       -0.0105
      2 C          -0.8274   -1.8867   -0.2296 C.ar    1  LIG1        0.0124
      3 C          -0.4563   -0.5660   -0.6245 C.ar    1  LIG1       -0.0332
      4 C          -0.9971    0.4032    0.1726 C.ar    1  LIG1        0.0280
      5 S          -1.9930   -0.3080    1.4158 S.2     1  LIG1       -0.0950
      6 H          -2.0921   -2.7594    1.3355 H       1  LIG1        0.0704
      7 S          -0.3608   -3.3674   -1.0978 S.3     1  LIG1       -0.1421
      8 H           0.9530   -3.3271   -0.8108 H       1  LIG1        0.1071
      9 H           0.1568   -0.3558   -1.4913 H       1  LIG1        0.0640
     10 C          -0.8169    1.8429    0.0803 C.ar    1  LIG1        0.0397
     11 C           0.3212    2.5460   -0.2284 C.ar    1  LIG1        0.0206
     12 C           0.1181    3.9564   -0.2426 C.ar    1  LIG1       -0.0326
     13 C          -1.1564    4.3264    0.0831 C.ar    1  LIG1        0.0286
     14 S          -2.1471    2.9285    0.3778 S.2     1  LIG1       -0.0861
     15 S           1.8792    1.7810   -0.5892 S.3     1  LIG1       -0.1415
     16 H           2.6294    2.8492   -0.2738 H       1  LIG1        0.1071
     17 H           0.8892    4.6656   -0.5148 H       1  LIG1        0.0640
     18 C          -1.6941    5.6710    0.1944 C.ar    1  LIG1        0.0397
     19 C          -1.0817    6.8030    0.6745 C.ar    1  LIG1        0.0206
     20 C          -1.9302    7.9472    0.6485 C.ar    1  LIG1       -0.0326
     21 C          -3.1787    7.6892    0.1569 C.ar    1  LIG1        0.0286
     22 S          -3.3200    6.0253   -0.3221 S.2     1  LIG1       -0.0861
     23 S           0.5781    6.8304    1.2954 S.3     1  LIG1       -0.1415
     24 H           0.4574    7.9950    1.9524 H       1  LIG1        0.1071
     25 H          -1.6319    8.9181    1.0232 H       1  LIG1        0.0640
     26 C          -4.2845    8.6182   -0.0080 C.ar    1  LIG1        0.0391
     27 C          -4.2483    9.9362   -0.3936 C.ar    1  LIG1        0.0200
     28 C          -5.5451   10.5350   -0.4399 C.ar    1  LIG1       -0.0409
     29 C          -6.5367    9.6692   -0.1080 C.ar    1  LIG1       -0.0227
     30 S          -5.9251    8.1159    0.3013 S.2     1  LIG1       -0.0950
     31 H          -7.5989    9.8632   -0.0717 H       1  LIG1        0.0694
     32 S          -2.7532   10.7988   -0.7970 S.3     1  LIG1       -0.1415
     33 H          -3.3466   11.7816   -1.4931 H       1  LIG1        0.1071
     34 H          -5.7176   11.5675   -0.7168 H       1  LIG1        0.0634
@<TRIPOS>BOND
     1    33    32    1
     2     9     3    1
     3     7     8    1
     4     7     2    1
     5    32    27    1
     6    34    28    1
     7     3     2   ar
     8     3     4   ar
     9    15    16    1
    10    15    11    1
    11    17    12    1
    12    28    27   ar
    13    28    29   ar
    14    27    26   ar
    15    22    21   ar
    16    22    18   ar
    17    12    11   ar
    18    12    13   ar
    19     2     1   ar
    20    11    10   ar
    21    29    31    1
    22    29    30   ar
    23    26    21    1
    24    26    30   ar
    25    10     4    1
    26    10    14   ar
    27    13    18    1
    28    13    14   ar
    29    21    20   ar
    30     4     5   ar
    31    18    19   ar
    32    20    19   ar
    33    20    25    1
    34    19    23    1
    35     1     6    1
    36     1     5   ar
    37    23    24    1
