@<TRIPOS>MOLECULE
mol_data/opt/cam/geoms/mol2/5ga5ga5ga5ga-.out
 34 37 0 0 0
SMALL
GASTEIGER

@<TRIPOS>ATOM
      1 C          -1.9714   -1.9107    0.1642 C.ar    1  LIG1       -0.0105
      2 C          -0.6815   -1.8825   -0.2734 C.ar    1  LIG1        0.0124
      3 C          -0.1593   -0.5567   -0.3612 C.ar    1  LIG1       -0.0332
      4 C          -1.0536    0.3981    0.0339 C.ar    1  LIG1        0.0280
      5 S          -2.5671   -0.3327    0.5021 S.2     1  LIG1       -0.0950
      6 H          -2.5957   -2.7799    0.3105 H       1  LIG1        0.0704
      7 S           0.1916   -3.3459   -0.7833 S.3     1  LIG1       -0.1421
      8 H           1.1330   -3.3266    0.1777 H       1  LIG1        0.1071
      9 H           0.8287   -0.3315   -0.7413 H       1  LIG1        0.0640
     10 C          -0.8595    1.8373    0.0971 C.ar    1  LIG1        0.0397
     11 C           0.2588    2.5350    0.4818 C.ar    1  LIG1        0.0206
     12 C           0.0787    3.9475    0.4302 C.ar    1  LIG1       -0.0326
     13 C          -1.1681    4.3228    0.0144 C.ar    1  LIG1        0.0286
     14 S          -2.1369    2.9295   -0.3611 S.2     1  LIG1       -0.0861
     15 S           1.7605    1.7577    1.0137 S.3     1  LIG1       -0.1415
     16 H           2.2503    2.8333    1.6509 H       1  LIG1        0.1071
     17 H           0.8390    4.6558    0.7338 H       1  LIG1        0.0640
     18 C          -1.6885    5.6686   -0.1502 C.ar    1  LIG1        0.0397
     19 C          -1.0380    6.7941   -0.5944 C.ar    1  LIG1        0.0206
     20 C          -1.8816    7.9414   -0.6398 C.ar    1  LIG1       -0.0326
     21 C          -3.1634    7.6923   -0.2375 C.ar    1  LIG1        0.0286
     22 S          -3.3465    6.0331    0.2431 S.2     1  LIG1       -0.0861
     23 S           0.6620    6.8090   -1.0946 S.3     1  LIG1       -0.1415
     24 H           0.6003    7.9824   -1.7439 H       1  LIG1        0.1071
     25 H          -1.5532    8.9078   -1.0008 H       1  LIG1        0.0640
     26 C          -4.2742    8.6268   -0.1605 C.ar    1  LIG1        0.0391
     27 C          -4.2604    9.9478    0.2161 C.ar    1  LIG1        0.0200
     28 C          -5.5547   10.5514    0.1648 C.ar    1  LIG1       -0.0409
     29 C          -6.5236    9.6862   -0.2299 C.ar    1  LIG1       -0.0227
     30 S          -5.8906    8.1276   -0.5821 S.2     1  LIG1       -0.0950
     31 H          -7.5797    9.8837   -0.3438 H       1  LIG1        0.0694
     32 S          -2.7946   10.8086    0.7187 S.3     1  LIG1       -0.1415
     33 H          -3.4326   11.7984    1.3636 H       1  LIG1        0.1071
     34 H          -5.7425   11.5868    0.4202 H       1  LIG1        0.0634
@<TRIPOS>BOND
     1    24    23    1
     2    23    19    1
     3    25    20    1
     4     7     2    1
     5     7     8    1
     6     9     3    1
     7    20    19   ar
     8    20    21   ar
     9    19    18   ar
    10    30    29   ar
    11    30    26   ar
    12     3     2   ar
    13     3     4   ar
    14    14    13   ar
    15    14    10   ar
    16    31    29    1
    17     2     1   ar
    18    21    26    1
    19    21    22   ar
    20    29    28   ar
    21    26    27   ar
    22    18    13    1
    23    18    22   ar
    24    13    12   ar
    25     4    10    1
    26     4     5   ar
    27    10    11   ar
    28     1     6    1
    29     1     5   ar
    30    28    27   ar
    31    28    34    1
    32    27    32    1
    33    12    11   ar
    34    12    17    1
    35    11    15    1
    36    32    33    1
    37    15    16    1
