@<TRIPOS>MOLECULE
mol_data/opt/cam/geoms/mol2/5ga5ga-5ga-5ga.out
 34 37 0 0 0
SMALL
GASTEIGER

@<TRIPOS>ATOM
      1 C          -1.9650   -1.8750    0.2633 C.ar    1  LIG1       -0.0105
      2 C          -0.6335   -1.8208    0.5467 C.ar    1  LIG1        0.0124
      3 C          -0.0962   -0.5046    0.4152 C.ar    1  LIG1       -0.0332
      4 C          -1.0296    0.4193    0.0374 C.ar    1  LIG1        0.0280
      5 S          -2.5868   -0.3355   -0.1854 S.2     1  LIG1       -0.0950
      6 H          -2.6082   -2.7419    0.2990 H       1  LIG1        0.0704
      7 S           0.3197   -3.2654    0.9584 S.3     1  LIG1       -0.1421
      8 H           0.5987   -2.9311    2.2316 H       1  LIG1        0.1071
      9 H           0.9380   -0.2616    0.6220 H       1  LIG1        0.0640
     10 C          -0.8417    1.8410   -0.2030 C.ar    1  LIG1        0.0397
     11 C           0.2218    2.4787   -0.7926 C.ar    1  LIG1        0.0206
     12 C           0.0496    3.8909   -0.8702 C.ar    1  LIG1       -0.0326
     13 C          -1.1362    4.3254   -0.3478 C.ar    1  LIG1        0.0286
     14 S          -2.0528    2.9930    0.2881 S.2     1  LIG1       -0.0861
     15 S           1.6450    1.6279   -1.4190 S.3     1  LIG1       -0.1415
     16 H           2.0773    2.6402   -2.1879 H       1  LIG1        0.1071
     17 H           0.7668    4.5524   -1.3392 H       1  LIG1        0.0640
     18 C          -1.6304    5.6888   -0.2667 C.ar    1  LIG1        0.0397
     19 C          -0.9286    6.8456   -0.0303 C.ar    1  LIG1        0.0206
     20 C          -1.7527    8.0079   -0.0419 C.ar    1  LIG1       -0.0326
     21 C          -3.0748    7.7372   -0.2543 C.ar    1  LIG1        0.0286
     22 S          -3.3257    6.0329   -0.4813 S.2     1  LIG1       -0.0861
     23 S           0.8211    6.8945    0.2490 S.3     1  LIG1       -0.1415
     24 H           0.8248    8.0844    0.8709 H       1  LIG1        0.1071
     25 H          -1.3664    9.0122    0.0767 H       1  LIG1        0.0640
     26 C          -4.1829    8.6773   -0.2959 C.ar    1  LIG1        0.0391
     27 C          -4.3877    9.7947    0.4763 C.ar    1  LIG1        0.0200
     28 C          -5.5979   10.4803    0.1483 C.ar    1  LIG1       -0.0409
     29 C          -6.2941    9.8723   -0.8459 C.ar    1  LIG1       -0.0227
     30 S          -5.4871    8.4734   -1.4346 S.2     1  LIG1       -0.0950
     31 H          -7.2375   10.1777   -1.2749 H       1  LIG1        0.0694
     32 S          -3.2725   10.3253    1.7480 S.3     1  LIG1       -0.1415
     33 H          -4.1673   11.0748    2.4116 H       1  LIG1        0.1071
     34 H          -5.9264   11.3848    0.6449 H       1  LIG1        0.0634
@<TRIPOS>BOND
     1    16    15    1
     2    30    29   ar
     3    30    26   ar
     4    15    11    1
     5    17    12    1
     6    31    29    1
     7    12    11   ar
     8    12    13   ar
     9    29    28   ar
    10    11    10   ar
    11    22    18   ar
    12    22    21   ar
    13    13    18    1
    14    13    14   ar
    15    26    21    1
    16    26    27   ar
    17    18    19   ar
    18    21    20   ar
    19    10     4    1
    20    10    14   ar
    21     5     4   ar
    22     5     1   ar
    23    20    19   ar
    24    20    25    1
    25    19    23    1
    26     4     3   ar
    27    28    27   ar
    28    28    34    1
    29    23    24    1
    30     1     6    1
    31     1     2   ar
    32     3     2   ar
    33     3     9    1
    34    27    32    1
    35     2     7    1
    36     7     8    1
    37    32    33    1
