@<TRIPOS>MOLECULE
mol_data/opt/cam/geoms/mol2/5ga5ga-.out
 18 19 0 0 0
SMALL
GASTEIGER

@<TRIPOS>ATOM
      1 C          -2.1475   -1.7681    0.0007 C.ar    1  LIG1       -0.0105
      2 C          -0.7872   -1.7890   -0.0005 C.ar    1  LIG1        0.0124
      3 C          -0.2159   -0.4812   -0.0004 C.ar    1  LIG1       -0.0332
      4 C          -1.1510    0.5205    0.0008 C.ar    1  LIG1        0.0280
      5 S          -2.7571   -0.1570    0.0019 S.2     1  LIG1       -0.0950
      6 H          -2.8288   -2.6061    0.0009 H       1  LIG1        0.0704
      7 S           0.1456   -3.2982   -0.0019 S.3     1  LIG1       -0.1421
      8 H           1.3580   -2.7234   -0.0024 H       1  LIG1        0.1071
      9 H           0.8510   -0.3121   -0.0014 H       1  LIG1        0.0640
     10 C          -0.9552    1.9632    0.0012 C.ar    1  LIG1        0.0390
     11 C           0.2064    2.7018    0.0017 C.ar    1  LIG1        0.0200
     12 C          -0.0277    4.1121    0.0020 C.ar    1  LIG1       -0.0409
     13 C          -1.3455    4.4302    0.0017 C.ar    1  LIG1       -0.0227
     14 S          -2.3394    3.0297    0.0011 S.2     1  LIG1       -0.0950
     15 H          -1.7907    5.4144    0.0019 H       1  LIG1        0.0694
     16 S           1.8396    2.0154    0.0021 S.3     1  LIG1       -0.1415
     17 H           2.4823    3.1928    0.0028 H       1  LIG1        0.1071
     18 H           0.7667    4.8482    0.0024 H       1  LIG1        0.0634
@<TRIPOS>BOND
     1     8     7    1
     2     7     2    1
     3     9     3    1
     4     2     3   ar
     5     2     1   ar
     6     3     4   ar
     7     1     6    1
     8     1     5   ar
     9     4    10    1
    10     4     5   ar
    11    14    10   ar
    12    14    13   ar
    13    10    11   ar
    14    11    12   ar
    15    11    16    1
    16    13    15    1
    17    13    12   ar
    18    12    18    1
    19    16    17    1
