@<TRIPOS>MOLECULE
mol_data/opt/cam/geoms/mol2/5ga5ga-5ga.out
 26 28 0 0 0
SMALL
GASTEIGER

@<TRIPOS>ATOM
      1 C          -1.7642   -1.7761    0.9384 C.ar    1  LIG1       -0.0105
      2 C          -0.7106   -1.8295    0.0761 C.ar    1  LIG1        0.0124
      3 C          -0.2552   -0.5346   -0.3164 C.ar    1  LIG1       -0.0332
      4 C          -0.9724    0.4804    0.2517 C.ar    1  LIG1        0.0280
      5 S          -2.2099   -0.1558    1.3041 S.2     1  LIG1       -0.0950
      6 H          -2.2986   -2.6081    1.3728 H       1  LIG1        0.0704
      7 S           0.0416   -3.3612   -0.4268 S.3     1  LIG1       -0.1421
      8 H          -0.3046   -3.3053   -1.7260 H       1  LIG1        0.1071
      9 H           0.5564   -0.3775   -1.0149 H       1  LIG1        0.0640
     10 C          -0.7853    1.9136    0.0897 C.ar    1  LIG1        0.0397
     11 C           0.3869    2.6209   -0.0107 C.ar    1  LIG1        0.0206
     12 C           0.1790    4.0205   -0.1835 C.ar    1  LIG1       -0.0326
     13 C          -1.1386    4.3802   -0.1841 C.ar    1  LIG1        0.0286
     14 S          -2.1576    2.9837   -0.0070 S.2     1  LIG1       -0.0861
     15 S           1.9923    1.8721    0.0502 S.3     1  LIG1       -0.1415
     16 H           2.6452    2.9862    0.4186 H       1  LIG1        0.1071
     17 H           0.9853    4.7281   -0.3293 H       1  LIG1        0.0640
     18 C          -1.6994    5.7162   -0.3047 C.ar    1  LIG1        0.0391
     19 C          -1.2329    6.8928    0.2288 C.ar    1  LIG1        0.0200
     20 C          -2.0514    8.0157   -0.1055 C.ar    1  LIG1       -0.0409
     21 C          -3.1238    7.6772   -0.8658 C.ar    1  LIG1       -0.0227
     22 S          -3.1526    5.9966   -1.2260 S.2     1  LIG1       -0.0950
     23 H          -3.8973    8.3291   -1.2455 H       1  LIG1        0.0694
     24 S           0.2262    7.0049    1.2295 S.3     1  LIG1       -0.1415
     25 H          -0.0992    8.1680    1.8164 H       1  LIG1        0.1071
     26 H          -1.8407    9.0270    0.2190 H       1  LIG1        0.0634
@<TRIPOS>BOND
     1     8     7    1
     2    23    21    1
     3    22    21   ar
     4    22    18   ar
     5     9     3    1
     6    21    20   ar
     7     7     2    1
     8    17    12    1
     9     3     2   ar
    10     3     4   ar
    11    18    13    1
    12    18    19   ar
    13    13    12   ar
    14    13    14   ar
    15    12    11   ar
    16    20    26    1
    17    20    19   ar
    18    11    15    1
    19    11    10   ar
    20    14    10   ar
    21    15    16    1
    22     2     1   ar
    23    10     4    1
    24    19    24    1
    25     4     5   ar
    26     1     5   ar
    27     1     6    1
    28    24    25    1
