@<TRIPOS>MOLECULE
mol_data/opt/cam/geoms/mol2/5ga5ga5ga-5ga-.out
 34 37 0 0 0
SMALL
GASTEIGER

@<TRIPOS>ATOM
      1 C          -1.6734   -1.8949    0.8413 C.ar    1  LIG1       -0.0105
      2 C          -0.8237   -1.8872   -0.2236 C.ar    1  LIG1        0.0124
      3 C          -0.4473   -0.5675   -0.6170 C.ar    1  LIG1       -0.0332
      4 C          -0.9990    0.4037    0.1701 C.ar    1  LIG1        0.0280
      5 S          -2.0117   -0.3042    1.4015 S.2     1  LIG1       -0.0950
      6 H          -2.1096   -2.7558    1.3262 H       1  LIG1        0.0704
      7 S          -0.3452   -3.3701   -1.0815 S.3     1  LIG1       -0.1421
      8 H           0.9645   -3.3294   -0.7760 H       1  LIG1        0.1071
      9 H           0.1775   -0.3595   -1.4758 H       1  LIG1        0.0640
     10 C          -0.8176    1.8432    0.0766 C.ar    1  LIG1        0.0397
     11 C           0.3245    2.5456   -0.2186 C.ar    1  LIG1        0.0206
     12 C           0.1215    3.9559   -0.2391 C.ar    1  LIG1       -0.0326
     13 C          -1.1572    4.3267    0.0685 C.ar    1  LIG1        0.0286
     14 S          -2.1517    2.9295    0.3535 S.2     1  LIG1       -0.0861
     15 S           1.8872    1.7797   -0.5564 S.3     1  LIG1       -0.1415
     16 H           2.6331    2.8490   -0.2344 H       1  LIG1        0.1071
     17 H           0.8962    4.6646   -0.5026 H       1  LIG1        0.0640
     18 C          -1.6965    5.6715    0.1692 C.ar    1  LIG1        0.0397
     19 C          -1.0907    6.8048    0.6546 C.ar    1  LIG1        0.0206
     20 C          -1.9388    7.9489    0.6143 C.ar    1  LIG1       -0.0326
     21 C          -3.1805    7.6894    0.1066 C.ar    1  LIG1        0.0286
     22 S          -3.3153    6.0243   -0.3700 S.2     1  LIG1       -0.0861
     23 S           0.5607    6.8339    1.2976 S.3     1  LIG1       -0.1415
     24 H           0.4312    8.0003    1.9497 H       1  LIG1        0.1071
     25 H          -1.6457    8.9207    0.9905 H       1  LIG1        0.0640
     26 C          -4.2841    8.6179   -0.0757 C.ar    1  LIG1        0.0391
     27 C          -4.2430    9.9349   -0.4639 C.ar    1  LIG1        0.0200
     28 C          -5.5391   10.5333   -0.5292 C.ar    1  LIG1       -0.0409
     29 C          -6.5349    9.6682   -0.2087 C.ar    1  LIG1       -0.0227
     30 S          -5.9287    8.1160    0.2126 S.2     1  LIG1       -0.0950
     31 H          -7.5976    9.8621   -0.1872 H       1  LIG1        0.0694
     32 S          -2.7427   10.7968   -0.8489 S.3     1  LIG1       -0.1415
     33 H          -3.3266   11.7780   -1.5554 H       1  LIG1        0.1071
     34 H          -5.7080   11.5652   -0.8109 H       1  LIG1        0.0634
@<TRIPOS>BOND
     1    33    32    1
     2     9     3    1
     3     7     8    1
     4     7     2    1
     5    32    27    1
     6    34    28    1
     7     3     2   ar
     8     3     4   ar
     9    15    16    1
    10    15    11    1
    11    28    27   ar
    12    28    29   ar
    13    17    12    1
    14    27    26   ar
    15    22    21   ar
    16    22    18   ar
    17    12    11   ar
    18    12    13   ar
    19     2     1   ar
    20    11    10   ar
    21    29    31    1
    22    29    30   ar
    23    26    21    1
    24    26    30   ar
    25    13    18    1
    26    13    14   ar
    27    10     4    1
    28    10    14   ar
    29    21    20   ar
    30    18    19   ar
    31     4     5   ar
    32    20    19   ar
    33    20    25    1
    34    19    23    1
    35     1     6    1
    36     1     5   ar
    37    23    24    1
