@<TRIPOS>MOLECULE
mol_data/opt/cam/geoms/mol2/5ga5ga5ga.out
 26 28 0 0 0
SMALL
GASTEIGER

@<TRIPOS>ATOM
      1 C          -1.9902   -1.8511    0.0415 C.ar    1  LIG1       -0.0105
      2 C          -0.7169   -1.7910   -0.4392 C.ar    1  LIG1        0.0124
      3 C          -0.2066   -0.4582   -0.4794 C.ar    1  LIG1       -0.0332
      4 C          -1.0923    0.4686   -0.0063 C.ar    1  LIG1        0.0280
      5 S          -2.5837   -0.2964    0.4775 S.2     1  LIG1       -0.0950
      6 H          -2.6033   -2.7315    0.1665 H       1  LIG1        0.0704
      7 S           0.1479   -3.2204   -1.0498 S.3     1  LIG1       -0.1421
      8 H           1.1235   -3.2374   -0.1234 H       1  LIG1        0.1071
      9 H           0.7659   -0.2065   -0.8820 H       1  LIG1        0.0640
     10 C          -0.9038    1.9042    0.1234 C.ar    1  LIG1        0.0397
     11 C           0.2223    2.5886    0.5086 C.ar    1  LIG1        0.0206
     12 C           0.0330    4.0009    0.5356 C.ar    1  LIG1       -0.0326
     13 C          -1.2276    4.3885    0.1794 C.ar    1  LIG1        0.0286
     14 S          -2.2005    3.0103   -0.2374 S.2     1  LIG1       -0.0861
     15 S           1.7441    1.7953    0.9528 S.3     1  LIG1       -0.1415
     16 H           2.2431    2.8361    1.6390 H       1  LIG1        0.1071
     17 H           0.7992    4.6983    0.8497 H       1  LIG1        0.0640
     18 C          -1.7592    5.7393    0.1006 C.ar    1  LIG1        0.0391
     19 C          -1.1337    6.8843   -0.3288 C.ar    1  LIG1        0.0200
     20 C          -1.9774    8.0357   -0.2586 C.ar    1  LIG1       -0.0409
     21 C          -3.2217    7.7492    0.2022 C.ar    1  LIG1       -0.0227
     22 S          -3.3952    6.0847    0.5950 S.2     1  LIG1       -0.0950
     23 H          -4.0479    8.4311    0.3426 H       1  LIG1        0.0694
     24 S           0.5392    6.9263   -0.9136 S.3     1  LIG1       -0.1415
     25 H           0.4212    8.0865   -1.5791 H       1  LIG1        0.1071
     26 H          -1.6589    9.0292   -0.5488 H       1  LIG1        0.0634
@<TRIPOS>BOND
     1    25    24    1
     2     7     2    1
     3     7     8    1
     4    24    19    1
     5     9     3    1
     6    26    20    1
     7     3     2   ar
     8     3     4   ar
     9     2     1   ar
    10    19    20   ar
    11    19    18   ar
    12    20    21   ar
    13    14    10   ar
    14    14    13   ar
    15     4    10    1
    16     4     5   ar
    17     1     6    1
    18     1     5   ar
    19    18    13    1
    20    18    22   ar
    21    10    11   ar
    22    13    12   ar
    23    21    23    1
    24    21    22   ar
    25    11    12   ar
    26    11    15    1
    27    12    17    1
    28    15    16    1
