@<TRIPOS>MOLECULE
mol_data/opt/cam/geoms/mol2/5ga5ga5ga-5ga.out
 34 37 0 0 0
SMALL
GASTEIGER

@<TRIPOS>ATOM
      1 C          -1.6249   -1.7406    1.3509 C.ar    1  LIG1       -0.0105
      2 C          -0.8886   -1.8714    0.2120 C.ar    1  LIG1        0.0124
      3 C          -0.5365   -0.6128   -0.3624 C.ar    1  LIG1       -0.0332
      4 C          -0.9910    0.4526    0.3625 C.ar    1  LIG1        0.0280
      5 S          -1.8817   -0.0901    1.7609 S.2     1  LIG1       -0.0950
      6 H          -2.0212   -2.5319    1.9701 H       1  LIG1        0.0704
      7 S          -0.5203   -3.4509   -0.5184 S.3     1  LIG1       -0.1421
      8 H           0.8130   -3.4142   -0.3418 H       1  LIG1        0.1071
      9 H          -0.0001   -0.5164   -1.2974 H       1  LIG1        0.0640
     10 C          -0.8008    1.8680    0.0900 C.ar    1  LIG1        0.0397
     11 C           0.3136    2.5048   -0.3974 C.ar    1  LIG1        0.0206
     12 C           0.1276    3.9084   -0.5575 C.ar    1  LIG1       -0.0326
     13 C          -1.1070    4.3430   -0.1650 C.ar    1  LIG1        0.0286
     14 S          -2.0841    3.0112    0.3772 S.2     1  LIG1       -0.0861
     15 S           1.8229    1.6687   -0.8051 S.3     1  LIG1       -0.1415
     16 H           2.6159    2.7422   -0.6559 H       1  LIG1        0.1071
     17 H           0.8798    4.5629   -0.9788 H       1  LIG1        0.0640
     18 C          -1.6150    5.7038   -0.1654 C.ar    1  LIG1        0.0397
     19 C          -0.9461    6.8701    0.1154 C.ar    1  LIG1        0.0206
     20 C          -1.7702    8.0264   -0.0038 C.ar    1  LIG1       -0.0326
     21 C          -3.0628    7.7421   -0.3424 C.ar    1  LIG1        0.0286
     22 S          -3.2812    6.0318   -0.5576 S.2     1  LIG1       -0.0861
     23 S           0.7666    6.9381    0.5673 S.3     1  LIG1       -0.1415
     24 H           0.6986    8.1335    1.1750 H       1  LIG1        0.1071
     25 H          -1.4024    9.0355    0.1313 H       1  LIG1        0.0640
     26 C          -4.1654    8.6736   -0.5163 C.ar    1  LIG1        0.0391
     27 C          -4.4508    9.8069    0.2055 C.ar    1  LIG1        0.0200
     28 C          -5.6247   10.4773   -0.2578 C.ar    1  LIG1       -0.0409
     29 C          -6.2153    9.8425   -1.3024 C.ar    1  LIG1       -0.0227
     30 S          -5.3482    8.4355   -1.7746 S.2     1  LIG1       -0.0950
     31 H          -7.1122   10.1324   -1.8306 H       1  LIG1        0.0694
     32 S          -3.4717   10.3725    1.5707 S.3     1  LIG1       -0.1415
     33 H          -4.4248   11.1497    2.1093 H       1  LIG1        0.1071
     34 H          -6.0051   11.3906    0.1824 H       1  LIG1        0.0634
@<TRIPOS>BOND
     1    31    29    1
     2    30    29   ar
     3    30    26   ar
     4    29    28   ar
     5     9     3    1
     6    17    12    1
     7    15    16    1
     8    15    11    1
     9    22    21   ar
    10    22    18   ar
    11    12    11   ar
    12    12    13   ar
    13     7     8    1
    14     7     2    1
    15    26    21    1
    16    26    27   ar
    17    11    10   ar
    18     3     2   ar
    19     3     4   ar
    20    21    20   ar
    21    28    34    1
    22    28    27   ar
    23    18    13    1
    24    18    19   ar
    25    13    14   ar
    26    20    19   ar
    27    20    25    1
    28    10     4    1
    29    10    14   ar
    30    19    23    1
    31    27    32    1
    32     2     1   ar
    33     4     5   ar
    34    23    24    1
    35     1     5   ar
    36     1     6    1
    37    32    33    1
