@<TRIPOS>MOLECULE
mol_data/opt/cam/geoms/mol2/5ga5ga.out
 18 19 0 0 0
SMALL
GASTEIGER

@<TRIPOS>ATOM
      1 C          -1.9581   -1.7554    0.4110 C.ar    1  LIG1       -0.0105
      2 C          -0.7467   -1.7392   -0.2119 C.ar    1  LIG1        0.0124
      3 C          -0.2750   -0.4148   -0.4622 C.ar    1  LIG1       -0.0332
      4 C          -1.1251    0.5518   -0.0054 C.ar    1  LIG1        0.0280
      5 S          -2.5361   -0.1661    0.7266 S.2     1  LIG1       -0.0950
      6 H          -2.5333   -2.6214    0.7038 H       1  LIG1        0.0704
      7 S           0.0794   -3.2214   -0.7456 S.3     1  LIG1       -0.1421
      8 H           1.1471   -3.1239    0.0672 H       1  LIG1        0.1071
      9 H           0.6429   -0.2018   -0.9947 H       1  LIG1        0.0640
     10 C          -0.9564    1.9959   -0.0652 C.ar    1  LIG1        0.0390
     11 C           0.1842    2.7326    0.1374 C.ar    1  LIG1        0.0200
     12 C          -0.0297    4.1383   -0.0098 C.ar    1  LIG1       -0.0409
     13 C          -1.3189    4.4463   -0.3023 C.ar    1  LIG1       -0.0227
     14 S          -2.2997    3.0407   -0.4421 S.2     1  LIG1       -0.0950
     15 H          -1.7463    5.4267   -0.4549 H       1  LIG1        0.0694
     16 S           1.7550    2.0134    0.5373 S.3     1  LIG1       -0.1415
     17 H           2.2669    3.1140    1.1120 H       1  LIG1        0.1071
     18 H           0.7530    4.8776    0.1057 H       1  LIG1        0.0634
@<TRIPOS>BOND
     1     9     3    1
     2     7     2    1
     3     7     8    1
     4     3     2   ar
     5     3     4   ar
     6    15    13    1
     7    14    13   ar
     8    14    10   ar
     9    13    12   ar
    10     2     1   ar
    11    10     4    1
    12    10    11   ar
    13    12    18    1
    14    12    11   ar
    15     4     5   ar
    16    11    16    1
    17     1     6    1
    18     1     5   ar
    19    16    17    1
