@<TRIPOS>MOLECULE
mol_data/opt/cam/geoms/mol2/5ga5ga-5ga-5ga-.out
 34 37 0 0 0
SMALL
GASTEIGER

@<TRIPOS>ATOM
      1 C          -1.9670   -1.9117   -0.1445 C.ar    1  LIG1       -0.0105
      2 C          -0.6808   -1.8803    0.3037 C.ar    1  LIG1        0.0124
      3 C          -0.1599   -0.5537    0.3879 C.ar    1  LIG1       -0.0332
      4 C          -1.0514    0.3983   -0.0203 C.ar    1  LIG1        0.0280
      5 S          -2.5606   -0.3360   -0.4966 S.2     1  LIG1       -0.0950
      6 H          -2.5896   -2.7820   -0.2908 H       1  LIG1        0.0704
      7 S           0.1888   -3.3401    0.8294 S.3     1  LIG1       -0.1421
      8 H           1.1381   -3.3261   -0.1239 H       1  LIG1        0.1071
      9 H           0.8248   -0.3257    0.7747 H       1  LIG1        0.0640
     10 C          -0.8573    1.8372   -0.0904 C.ar    1  LIG1        0.0397
     11 C           0.2637    2.5332   -0.4701 C.ar    1  LIG1        0.0206
     12 C           0.0825    3.9458   -0.4284 C.ar    1  LIG1       -0.0326
     13 C          -1.1677    4.3230   -0.0251 C.ar    1  LIG1        0.0286
     14 S          -2.1390    2.9315    0.3506 S.2     1  LIG1       -0.0861
     15 S           1.7701    1.7535   -0.9849 S.3     1  LIG1       -0.1415
     16 H           2.2647    2.8255   -1.6245 H       1  LIG1        0.1071
     17 H           0.8450    4.6527   -0.7299 H       1  LIG1        0.0640
     18 C          -1.6901    5.6695    0.1271 C.ar    1  LIG1        0.0397
     19 C          -1.0439    6.7980    0.5700 C.ar    1  LIG1        0.0206
     20 C          -1.8883    7.9450    0.6015 C.ar    1  LIG1       -0.0326
     21 C          -3.1667    7.6929    0.1902 C.ar    1  LIG1        0.0286
     22 S          -3.3450    6.0308   -0.2820 S.2     1  LIG1       -0.0861
     23 S           0.6519    6.8167    1.0841 S.3     1  LIG1       -0.1415
     24 H           0.5843    7.9939    1.7259 H       1  LIG1        0.1071
     25 H          -1.5634    8.9137    0.9595 H       1  LIG1        0.0640
     26 C          -4.2772    8.6264    0.0984 C.ar    1  LIG1        0.0391
     27 C          -4.2610    9.9451   -0.2860 C.ar    1  LIG1        0.0200
     28 C          -5.5559   10.5483   -0.2490 C.ar    1  LIG1       -0.0409
     29 C          -6.5276    9.6850    0.1429 C.ar    1  LIG1       -0.0227
     30 S          -5.8969    8.1288    0.5095 S.2     1  LIG1       -0.0950
     31 H          -7.5847    9.8826    0.2468 H       1  LIG1        0.0694
     32 S          -2.7915   10.8036   -0.7815 S.3     1  LIG1       -0.1415
     33 H          -3.4246   11.7893   -1.4376 H       1  LIG1        0.1071
     34 H          -5.7421   11.5821   -0.5120 H       1  LIG1        0.0634
@<TRIPOS>BOND
     1    16    15    1
     2    33    32    1
     3    15    11    1
     4    32    27    1
     5    17    12    1
     6    34    28    1
     7     5     1   ar
     8     5     4   ar
     9    11    12   ar
    10    11    10   ar
    11    12    13   ar
    12     6     1    1
    13    27    28   ar
    14    27    26   ar
    15    22    18   ar
    16    22    21   ar
    17    28    29   ar
    18     1     2   ar
    19     8     7    1
    20    10     4    1
    21    10    14   ar
    22    13    18    1
    23    13    14   ar
    24     4     3   ar
    25    26    21    1
    26    26    30   ar
    27    18    19   ar
    28    29    31    1
    29    29    30   ar
    30    21    20   ar
    31     2     3   ar
    32     2     7    1
    33     3     9    1
    34    19    20   ar
    35    19    23    1
    36    20    25    1
    37    23    24    1
