@<TRIPOS>MOLECULE
mol_data/opt/cam/geoms/mol2/5gd.out
 11 11 0 0 0
SMALL
GASTEIGER

@<TRIPOS>ATOM
      1 C          -2.1286   -1.6748    0.0001 C.ar    1  LIG1       -0.0099
      2 C          -0.7676   -1.6685   -0.0003 C.ar    1  LIG1        0.0292
      3 C          -0.2479   -0.3243   -0.0001 C.ar    1  LIG1        0.0719
      4 C          -1.2331    0.6254    0.0004 C.ar    1  LIG1       -0.0059
      5 S          -2.7878   -0.0806    0.0007 S.2     1  LIG1       -0.1027
      6 H          -2.7835   -2.5336    0.0000 H       1  LIG1        0.0705
      7 H          -1.1019    1.6974    0.0006 H       1  LIG1        0.0706
      8 S           0.2075   -3.1428   -0.0009 S.3     1  LIG1       -0.1409
      9 H           1.4019   -2.5274   -0.0012 H       1  LIG1        0.1072
     10 N           2.2848    0.1822   -0.0007 N.1     1  LIG1       -0.1908
     11 C           1.1452   -0.0201   -0.0005 C.1     1  LIG1        0.1008
@<TRIPOS>BOND
     1     9     8    1
     2     8     2    1
     3    10    11    3
     4    11     3    1
     5     2     3   ar
     6     2     1   ar
     7     3     4   ar
     8     6     1    1
     9     1     5   ar
    10     4     7    1
    11     4     5   ar
