@<TRIPOS>MOLECULE
mol_data/opt/cam/geoms/mol2/5gd5gd-5gd5gd.out
 38 41 0 0 0
SMALL
GASTEIGER

@<TRIPOS>ATOM
      1 C          -1.8452   -2.0075    0.3055 C.ar    1  LIG1       -0.0093
      2 C          -0.6279   -1.9072   -0.2966 C.ar    1  LIG1        0.0298
      3 C          -0.1744   -0.5435   -0.3444 C.ar    1  LIG1        0.0802
      4 C          -1.0550    0.3449    0.2324 C.ar    1  LIG1        0.0454
      5 S          -2.4430   -0.4835    0.8343 S.2     1  LIG1       -0.0937
      6 H          -2.4253   -2.9042    0.4682 H       1  LIG1        0.0705
      7 S           0.2528   -3.3030   -0.9272 S.3     1  LIG1       -0.1408
      8 H           1.2622   -2.6042   -1.4733 H       1  LIG1        0.1072
      9 N           2.0314    0.1013   -1.5211 N.1     1  LIG1       -0.1908
     10 C           1.0418   -0.1559   -0.9792 C.1     1  LIG1        0.1014
     11 C          -0.9104    1.7922    0.3603 C.ar    1  LIG1        0.0422
     12 C           0.0427    2.4850    1.0605 C.ar    1  LIG1        0.0381
     13 C          -0.1498    3.9054    0.9610 C.ar    1  LIG1        0.0808
     14 C          -1.2342    4.2618    0.1910 C.ar    1  LIG1        0.0460
     15 S          -2.0306    2.8649   -0.4260 S.2     1  LIG1       -0.0847
     16 S           1.2931    1.6981    2.0209 S.3     1  LIG1       -0.1402
     17 H           1.8743    2.8339    2.4417 H       1  LIG1        0.1072
     18 N           1.3521    5.5584    2.2563 N.1     1  LIG1       -0.1908
     19 C           0.6679    4.8433    1.6568 C.1     1  LIG1        0.1014
     20 C          -1.7116    5.6067   -0.1144 C.ar    1  LIG1        0.0422
     21 C          -1.0513    6.6037   -0.7854 C.ar    1  LIG1        0.0381
     22 C          -1.8588    7.7859   -0.9077 C.ar    1  LIG1        0.0808
     23 C          -3.1036    7.6667   -0.3321 C.ar    1  LIG1        0.0460
     24 S          -3.3039    6.1087    0.3734 S.2     1  LIG1       -0.0847
     25 S           0.5573    6.4028   -1.4744 S.3     1  LIG1       -0.1402
     26 H           0.6395    7.6420   -1.9868 H       1  LIG1        0.1072
     27 N          -1.0365    9.8483   -2.2255 N.1     1  LIG1       -0.1908
     28 C          -1.4282    8.9428   -1.6210 C.1     1  LIG1        0.1014
     29 C          -4.1621    8.6705   -0.2762 C.ar    1  LIG1        0.0416
     30 C          -4.1284    9.8963    0.3365 C.ar    1  LIG1        0.0375
     31 C          -5.3697   10.6050    0.1674 C.ar    1  LIG1        0.0725
     32 C          -6.2956    9.8998   -0.5503 C.ar    1  LIG1       -0.0052
     33 S          -5.7006    8.3805   -1.0424 S.2     1  LIG1       -0.0937
     34 H          -7.2954   10.2189   -0.8068 H       1  LIG1        0.0707
     35 S          -2.7501   10.4775    1.2665 S.3     1  LIG1       -0.1403
     36 H          -3.2728   11.6845    1.5406 H       1  LIG1        0.1072
     37 N          -5.7686   12.9558    1.1601 N.1     1  LIG1       -0.1908
     38 C          -5.6103   11.9036    0.7054 C.1     1  LIG1        0.1008
@<TRIPOS>BOND
     1    27    28    3
     2    26    25    1
     3    28    22    1
     4     9    10    3
     5    25    21    1
     6     8     7    1
     7    33    32   ar
     8    33    29   ar
     9    10     3    1
    10     7     2    1
    11    22    21   ar
    12    22    23   ar
    13    34    32    1
    14    21    20   ar
    15    32    31   ar
    16    15    14   ar
    17    15    11   ar
    18     3     2   ar
    19     3     4   ar
    20    23    29    1
    21    23    24   ar
    22     2     1   ar
    23    29    30   ar
    24    20    14    1
    25    20    24   ar
    26    31    30   ar
    27    31    38    1
    28    14    13   ar
    29     4    11    1
    30     4     5   ar
    31     1     6    1
    32     1     5   ar
    33    30    35    1
    34    11    12   ar
    35    38    37    3
    36    13    12   ar
    37    13    19    1
    38    12    16    1
    39    35    36    1
    40    19    18    3
    41    16    17    1
