@<TRIPOS>MOLECULE
mol_data/opt/cam/geoms/mol2/5gd5gd-5gd-5gd.out
 38 41 0 0 0
SMALL
GASTEIGER

@<TRIPOS>ATOM
      1 C          -2.0250   -1.8984    0.4914 C.ar    1  LIG1       -0.0093
      2 C          -0.7765   -1.7643    1.0182 C.ar    1  LIG1        0.0298
      3 C          -0.2667   -0.4325    0.8333 C.ar    1  LIG1        0.0802
      4 C          -1.1383    0.3970    0.1628 C.ar    1  LIG1        0.0454
      5 S          -2.5869   -0.4471   -0.2417 S.2     1  LIG1       -0.0937
      6 H          -2.6477   -2.7812    0.4947 H       1  LIG1        0.0705
      7 S           0.0749   -3.0848    1.8263 S.3     1  LIG1       -0.1408
      8 H           1.1564   -2.3684    2.1765 H       1  LIG1        0.1072
      9 N           2.0207    0.2795    1.7961 N.1     1  LIG1       -0.1908
     10 C           0.9947   -0.0104    1.3459 C.1     1  LIG1        0.1014
     11 C          -0.9429    1.7992   -0.1947 C.ar    1  LIG1        0.0422
     12 C           0.0031    2.3314   -1.0319 C.ar    1  LIG1        0.0381
     13 C          -0.1276    3.7574   -1.1447 C.ar    1  LIG1        0.0808
     14 C          -1.1598    4.2770   -0.3964 C.ar    1  LIG1        0.0460
     15 S          -1.9818    3.0302    0.4598 S.2     1  LIG1       -0.0847
     16 S           1.1738    1.3498   -1.9102 S.3     1  LIG1       -0.1402
     17 H           1.7926    2.3815   -2.5082 H       1  LIG1        0.1072
     18 N           1.3770    5.1339   -2.7284 N.1     1  LIG1       -0.1908
     19 C           0.6949    4.5437   -2.0037 C.1     1  LIG1        0.1014
     20 C          -1.5649    5.6761   -0.2883 C.ar    1  LIG1        0.0422
     21 C          -0.8429    6.7219    0.2254 C.ar    1  LIG1        0.0381
     22 C          -1.5684    7.9592    0.1418 C.ar    1  LIG1        0.0808
     23 C          -2.8226    7.8273   -0.4093 C.ar    1  LIG1        0.0460
     24 S          -3.1310    6.1897   -0.8429 S.2     1  LIG1       -0.0847
     25 S           0.7565    6.5307    0.9385 S.3     1  LIG1       -0.1402
     26 H           0.9613    7.8394    1.1628 H       1  LIG1        0.1072
     27 N          -0.5209   10.1930    0.9033 N.1     1  LIG1       -0.1908
     28 C          -1.0182    9.2065    0.5595 C.1     1  LIG1        0.1014
     29 C          -3.8150    8.8762   -0.6290 C.ar    1  LIG1        0.0416
     30 C          -4.4653    9.6262    0.3157 C.ar    1  LIG1        0.0375
     31 C          -5.3695   10.5688   -0.2882 C.ar    1  LIG1        0.0725
     32 C          -5.3810   10.4985   -1.6540 C.ar    1  LIG1       -0.0052
     33 S          -4.3098    9.3109   -2.2422 S.2     1  LIG1       -0.0937
     34 H          -5.9739   11.0999   -2.3277 H       1  LIG1        0.0707
     35 S          -4.2478    9.3983    2.0492 S.3     1  LIG1       -0.1403
     36 H          -5.0540   10.4069    2.4206 H       1  LIG1        0.1072
     37 N          -6.8180   12.1860    1.1107 N.1     1  LIG1       -0.1908
     38 C          -6.1770   11.4718    0.4641 C.1     1  LIG1        0.1008
@<TRIPOS>BOND
     1    18    19    3
     2    17    16    1
     3    34    32    1
     4    33    32   ar
     5    33    29   ar
     6    19    13    1
     7    16    12    1
     8    32    31   ar
     9    13    12   ar
    10    13    14   ar
    11    12    11   ar
    12    24    23   ar
    13    24    20   ar
    14    29    23    1
    15    29    30   ar
    16    23    22   ar
    17    14    20    1
    18    14    15   ar
    19    20    21   ar
    20    31    30   ar
    21    31    38    1
    22     5     4   ar
    23     5     1   ar
    24    11     4    1
    25    11    15   ar
    26    22    21   ar
    27    22    28    1
    28     4     3   ar
    29    21    25    1
    30    30    35    1
    31    38    37    3
    32     1     6    1
    33     1     2   ar
    34    28    27    3
    35     3     2   ar
    36     3    10    1
    37    25    26    1
    38     2     7    1
    39    10     9    3
    40     7     8    1
    41    35    36    1
