@<TRIPOS>MOLECULE
mol_data/opt/cam/geoms/mol2/5gd5gd-5gd-.out
 29 31 0 0 0
SMALL
GASTEIGER

@<TRIPOS>ATOM
      1 C          -1.8429   -1.9116   -0.4738 C.ar    1  LIG1       -0.0093
      2 C          -0.7958   -1.8052    0.3902 C.ar    1  LIG1        0.0298
      3 C          -0.3374   -0.4465    0.4983 C.ar    1  LIG1        0.0802
      4 C          -1.0423    0.4319   -0.2946 C.ar    1  LIG1        0.0454
      5 S          -2.2711   -0.3996   -1.1743 S.2     1  LIG1       -0.0937
      6 H          -2.3881   -2.8060   -0.7378 H       1  LIG1        0.0705
      7 S          -0.1154   -3.1881    1.2543 S.3     1  LIG1       -0.1408
      8 H           0.7683   -2.4848    1.9822 H       1  LIG1        0.1072
      9 N           1.5515    0.2098    2.1314 N.1     1  LIG1       -0.1908
     10 C           0.7077   -0.0527    1.3842 C.1     1  LIG1        0.1014
     11 C          -0.8423    1.8717   -0.4319 C.ar    1  LIG1        0.0422
     12 C           0.2612    2.5265   -0.9138 C.ar    1  LIG1        0.0381
     13 C           0.0798    3.9518   -0.9082 C.ar    1  LIG1        0.0808
     14 C          -1.1460    4.3498   -0.4239 C.ar    1  LIG1        0.0460
     15 S          -2.0916    2.9866    0.0372 S.2     1  LIG1       -0.0847
     16 S           1.6845    1.6900   -1.5304 S.3     1  LIG1       -0.1402
     17 H           2.3679    2.8025   -1.8470 H       1  LIG1        0.1072
     18 N           1.8733    5.5413   -1.8689 N.1     1  LIG1       -0.1908
     19 C           1.0553    4.8550   -1.4230 C.1     1  LIG1        0.1014
     20 C          -1.6508    5.7123   -0.2821 C.ar    1  LIG1        0.0416
     21 C          -1.1501    6.7182    0.5030 C.ar    1  LIG1        0.0375
     22 C          -1.9230    7.9252    0.3711 C.ar    1  LIG1        0.0725
     23 C          -2.9767    7.7951   -0.4908 C.ar    1  LIG1       -0.0052
     24 S          -3.0603    6.2324   -1.1657 S.2     1  LIG1       -0.0937
     25 H          -3.6969    8.5568   -0.7518 H       1  LIG1        0.0707
     26 S           0.2298    6.5127    1.5785 S.3     1  LIG1       -0.1403
     27 H           0.2448    7.7812    2.0208 H       1  LIG1        0.1072
     28 N          -1.3568   10.0831    1.6726 N.1     1  LIG1       -0.1908
     29 C          -1.6266    9.1274    1.0787 C.1     1  LIG1        0.1008
@<TRIPOS>BOND
     1    18    19    3
     2    17    16    1
     3    16    12    1
     4    19    13    1
     5     5     1   ar
     6     5     4   ar
     7    24    23   ar
     8    24    20   ar
     9    12    13   ar
    10    12    11   ar
    11    13    14   ar
    12    25    23    1
    13     6     1    1
    14    23    22   ar
    15     1     2   ar
    16    11     4    1
    17    11    15   ar
    18    14    20    1
    19    14    15   ar
    20     4     3   ar
    21    20    21   ar
    22    22    21   ar
    23    22    29    1
    24     2     3   ar
    25     2     7    1
    26     3    10    1
    27    21    26    1
    28    29    28    3
    29     7     8    1
    30    10     9    3
    31    26    27    1
