@<TRIPOS>MOLECULE
mol_data/opt/cam/geoms/mol2/5gd5gd5gd5gd.out
 38 41 0 0 0
SMALL
GASTEIGER

@<TRIPOS>ATOM
      1 C          -1.7702   -2.0040    0.3733 C.ar    1  LIG1       -0.0093
      2 C          -0.5702   -1.8999   -0.2620 C.ar    1  LIG1        0.0298
      3 C          -0.1313   -0.5327   -0.3384 C.ar    1  LIG1        0.0802
      4 C          -1.0048    0.3546    0.2506 C.ar    1  LIG1        0.0454
      5 S          -2.3685   -0.4791    0.8991 S.2     1  LIG1       -0.0937
      6 H          -2.3371   -2.9040    0.5621 H       1  LIG1        0.0705
      7 S           0.3070   -3.2952   -0.8987 S.3     1  LIG1       -0.1408
      8 H           1.2949   -2.5939   -1.4798 H       1  LIG1        0.1072
      9 N           2.0364    0.1179   -1.5810 N.1     1  LIG1       -0.1908
     10 C           1.0640   -0.1418   -1.0099 C.1     1  LIG1        0.1014
     11 C          -0.8709    1.8046    0.3570 C.ar    1  LIG1        0.0422
     12 C           0.0936    2.5149    1.0232 C.ar    1  LIG1        0.0381
     13 C          -0.1151    3.9321    0.9115 C.ar    1  LIG1        0.0808
     14 C          -1.2228    4.2688    0.1663 C.ar    1  LIG1        0.0460
     15 S          -2.0217    2.8569   -0.4124 S.2     1  LIG1       -0.0847
     16 S           1.3764    1.7517    1.9596 S.3     1  LIG1       -0.1402
     17 H           1.9576    2.8980    2.3511 H       1  LIG1        0.1072
     18 N           1.4045    5.6149    2.1463 N.1     1  LIG1       -0.1908
     19 C           0.7116    4.8861    1.5740 C.1     1  LIG1        0.1014
     20 C          -1.7210    5.6053   -0.1427 C.ar    1  LIG1        0.0422
     21 C          -1.0882    6.5999   -0.8431 C.ar    1  LIG1        0.0381
     22 C          -1.9100    7.7730   -0.9583 C.ar    1  LIG1        0.0808
     23 C          -3.1380    7.6494   -0.3485 C.ar    1  LIG1        0.0460
     24 S          -3.3046    6.0985    0.3809 S.2     1  LIG1       -0.0847
     25 S           0.5034    6.4054   -1.5720 S.3     1  LIG1       -0.1402
     26 H           0.5602    7.6389   -2.1014 H       1  LIG1        0.1072
     27 N          -1.1427    9.8265   -2.3224 N.1     1  LIG1       -0.1908
     28 C          -1.5096    8.9249   -1.6968 C.1     1  LIG1        0.1014
     29 C          -4.2042    8.6439   -0.2768 C.ar    1  LIG1        0.0416
     30 C          -4.1662    9.8775    0.3198 C.ar    1  LIG1        0.0375
     31 C          -5.4182   10.5725    0.1751 C.ar    1  LIG1        0.0725
     32 C          -6.3560    9.8498   -0.5092 C.ar    1  LIG1       -0.0052
     33 S          -5.7596    8.3301   -0.9984 S.2     1  LIG1       -0.0937
     34 H          -7.3653   10.1564   -0.7429 H       1  LIG1        0.0707
     35 S          -2.7695   10.4830    1.2058 S.3     1  LIG1       -0.1403
     36 H          -3.2963   11.6884    1.4789 H       1  LIG1        0.1072
     37 N          -5.8134   12.9317    1.1492 N.1     1  LIG1       -0.1908
     38 C          -5.6570   11.8754    0.7034 C.1     1  LIG1        0.1008
@<TRIPOS>BOND
     1    27    28    3
     2    26    25    1
     3    28    22    1
     4     9    10    3
     5    25    21    1
     6     8     7    1
     7    10     3    1
     8    33    32   ar
     9    33    29   ar
    10    22    21   ar
    11    22    23   ar
    12     7     2    1
    13    21    20   ar
    14    34    32    1
    15    32    31   ar
    16    15    14   ar
    17    15    11   ar
    18    23    29    1
    19    23    24   ar
    20     3     2   ar
    21     3     4   ar
    22    29    30   ar
    23     2     1   ar
    24    20    14    1
    25    20    24   ar
    26    14    13   ar
    27    31    30   ar
    28    31    38    1
    29     4    11    1
    30     4     5   ar
    31    30    35    1
    32    11    12   ar
    33     1     6    1
    34     1     5   ar
    35    38    37    3
    36    13    12   ar
    37    13    19    1
    38    12    16    1
    39    35    36    1
    40    19    18    3
    41    16    17    1
