@<TRIPOS>MOLECULE
mol_data/opt/cam/geoms/mol2/5gd5gd-5gd.out
 29 31 0 0 0
SMALL
GASTEIGER

@<TRIPOS>ATOM
      1 C          -1.5121   -1.6625    1.6351 C.ar    1  LIG1       -0.0093
      2 C          -0.8536   -1.8271    0.4542 C.ar    1  LIG1        0.0298
      3 C          -0.4880   -0.5633   -0.1247 C.ar    1  LIG1        0.0802
      4 C          -0.8703    0.5177    0.6382 C.ar    1  LIG1        0.0454
      5 S          -1.6858   -0.0058    2.0641 S.2     1  LIG1       -0.0937
      6 H          -1.9042   -2.4346    2.2811 H       1  LIG1        0.0705
      7 S          -0.5325   -3.4120   -0.2581 S.3     1  LIG1       -0.1408
      8 H           0.1711   -2.9595   -1.3094 H       1  LIG1        0.1072
      9 N           0.6925   -0.4092   -2.4160 N.1     1  LIG1       -0.1908
     10 C           0.1693   -0.4474   -1.3845 C.1     1  LIG1        0.1014
     11 C          -0.6501    1.9332    0.3500 C.ar    1  LIG1        0.0422
     12 C           0.5451    2.6007    0.2939 C.ar    1  LIG1        0.0381
     13 C           0.3668    3.9862   -0.0413 C.ar    1  LIG1        0.0808
     14 C          -0.9508    4.3457   -0.2132 C.ar    1  LIG1        0.0460
     15 S          -1.9889    2.9923    0.0216 S.2     1  LIG1       -0.0847
     16 S           2.0927    1.8297    0.6358 S.3     1  LIG1       -0.1402
     17 H           2.8436    2.9133    0.3767 H       1  LIG1        0.1072
     18 N           2.3811    5.5722   -0.3471 N.1     1  LIG1       -0.1908
     19 C           1.4589    4.8867   -0.2117 C.1     1  LIG1        0.1014
     20 C          -1.4781    5.6666   -0.5463 C.ar    1  LIG1        0.0416
     21 C          -1.4160    6.8092    0.2072 C.ar    1  LIG1        0.0375
     22 C          -2.0444    7.9183   -0.4605 C.ar    1  LIG1        0.0725
     23 C          -2.5631    7.5829   -1.6807 C.ar    1  LIG1       -0.0052
     24 S          -2.3053    5.9406   -2.0552 S.2     1  LIG1       -0.0937
     25 H          -3.0798    8.2387   -2.3664 H       1  LIG1        0.0707
     26 S          -0.7038    6.8680    1.8180 S.3     1  LIG1       -0.1403
     27 H          -0.8823    8.1876    1.9965 H       1  LIG1        0.1072
     28 N          -2.1750   10.2728    0.5929 N.1     1  LIG1       -0.1908
     29 C          -2.1263    9.2265    0.1012 C.1     1  LIG1        0.1008
@<TRIPOS>BOND
     1     9    10    3
     2    25    23    1
     3    24    23   ar
     4    24    20   ar
     5    23    22   ar
     6    10     3    1
     7     8     7    1
     8    20    14    1
     9    20    21   ar
    10    22    29    1
    11    22    21   ar
    12    18    19    3
    13     7     2    1
    14    14    13   ar
    15    14    15   ar
    16    19    13    1
    17     3     2   ar
    18     3     4   ar
    19    13    12   ar
    20    15    11   ar
    21    29    28    3
    22    21    26    1
    23    12    11   ar
    24    12    16    1
    25    11     4    1
    26    17    16    1
    27     2     1   ar
    28     4     5   ar
    29     1     5   ar
    30     1     6    1
    31    26    27    1
