@<TRIPOS>MOLECULE
mol_data/opt/cam/geoms/mol2/5gd5gd-5gd5gd-.out
 38 41 0 0 0
SMALL
GASTEIGER

@<TRIPOS>ATOM
      1 C          -0.7488   -1.5363    2.2768 C.ar    1  LIG1       -0.0093
      2 C          -0.8338   -1.7578    0.9356 C.ar    1  LIG1        0.0298
      3 C          -0.7476   -0.5300    0.1932 C.ar    1  LIG1        0.0802
      4 C          -0.5897    0.5806    0.9921 C.ar    1  LIG1        0.0454
      5 S          -0.5556    0.1303    2.6559 S.2     1  LIG1       -0.0937
      6 H          -0.7863   -2.2719    3.0671 H       1  LIG1        0.0705
      7 S          -1.0596   -3.3649    0.2366 S.3     1  LIG1       -0.1408
      8 H          -0.9280   -2.9864   -1.0459 H       1  LIG1        0.1072
      9 N          -0.9560   -0.4774   -2.3800 N.1     1  LIG1       -0.1908
     10 C          -0.8541   -0.4717   -1.2273 C.1     1  LIG1        0.1014
     11 C          -0.4594    1.9722    0.5658 C.ar    1  LIG1        0.0422
     12 C           0.5658    2.5376   -0.1464 C.ar    1  LIG1        0.0381
     13 C           0.3333    3.9323   -0.3984 C.ar    1  LIG1        0.0808
     14 C          -0.8449    4.3993    0.1387 C.ar    1  LIG1        0.0460
     15 S          -1.6908    3.1376    0.9484 S.2     1  LIG1       -0.0847
     16 S           1.9989    1.6404   -0.6439 S.3     1  LIG1       -0.1402
     17 H           2.5776    2.6617   -1.2974 H       1  LIG1        0.1072
     18 N           1.9769    5.3522   -1.7948 N.1     1  LIG1       -0.1908
     19 C           1.2259    4.7412   -1.1612 C.1     1  LIG1        0.1014
     20 C          -1.3740    5.7599    0.0741 C.ar    1  LIG1        0.0422
     21 C          -0.8468    6.8908    0.6404 C.ar    1  LIG1        0.0381
     22 C          -1.6368    8.0528    0.3416 C.ar    1  LIG1        0.0808
     23 C          -2.7489    7.7807   -0.4227 C.ar    1  LIG1        0.0460
     24 S          -2.8398    6.1023   -0.7955 S.2     1  LIG1       -0.0847
     25 S           0.6030    6.8799    1.6419 S.3     1  LIG1       -0.1402
     26 H           0.6420    8.2084    1.8385 H       1  LIG1        0.1072
     27 N          -0.9272   10.4050    1.1352 N.1     1  LIG1       -0.1908
     28 C          -1.2739    9.3634    0.7697 C.1     1  LIG1        0.1014
     29 C          -3.7601    8.7240   -0.8930 C.ar    1  LIG1        0.0416
     30 C          -4.6316    9.4648   -0.1384 C.ar    1  LIG1        0.0375
     31 C          -5.4763   10.2883   -0.9623 C.ar    1  LIG1        0.0725
     32 C          -5.2263   10.1409   -2.2989 C.ar    1  LIG1       -0.0052
     33 S          -3.9760    9.0221   -2.5961 S.2     1  LIG1       -0.0937
     34 H          -5.7269   10.6486   -3.1106 H       1  LIG1        0.0707
     35 S          -4.7259    9.3553    1.6177 S.3     1  LIG1       -0.1403
     36 H          -5.6689   10.3012    1.7622 H       1  LIG1        0.1072
     37 N          -7.2803   11.8464    0.0318 N.1     1  LIG1       -0.1908
     38 C          -6.4771   11.1569   -0.4356 C.1     1  LIG1        0.1008
@<TRIPOS>BOND
     1    34    32    1
     2    33    32   ar
     3    33    29   ar
     4     9    10    3
     5    32    31   ar
     6    18    19    3
     7    17    16    1
     8    10     3    1
     9    19    13    1
    10     8     7    1
    11    31    38    1
    12    31    30   ar
    13    29    23    1
    14    29    30   ar
    15    24    23   ar
    16    24    20   ar
    17    16    12    1
    18    38    37    3
    19    23    22   ar
    20    13    12   ar
    21    13    14   ar
    22    12    11   ar
    23    30    35    1
    24    20    14    1
    25    20    21   ar
    26    14    15   ar
    27     3     2   ar
    28     3     4   ar
    29     7     2    1
    30    22    21   ar
    31    22    28    1
    32    11    15   ar
    33    11     4    1
    34    21    25    1
    35    28    27    3
    36     2     1   ar
    37     4     5   ar
    38    35    36    1
    39    25    26    1
    40     1     5   ar
    41     1     6    1
