@<TRIPOS>MOLECULE
mol_data/opt/cam/geoms/mol2/5gd5gd5gd5gd-.out
 38 41 0 0 0
SMALL
GASTEIGER

@<TRIPOS>ATOM
      1 C          -1.7463   -2.0019    0.4084 C.ar    1  LIG1       -0.0093
      2 C          -0.5562   -1.8982   -0.2455 C.ar    1  LIG1        0.0298
      3 C          -0.1220   -0.5304   -0.3360 C.ar    1  LIG1        0.0802
      4 C          -0.9889    0.3579    0.2613 C.ar    1  LIG1        0.0454
      5 S          -2.3405   -0.4756    0.9348 S.2     1  LIG1       -0.0937
      6 H          -2.3079   -2.9022    0.6107 H       1  LIG1        0.0705
      7 S           0.3149   -3.2947   -0.8876 S.3     1  LIG1       -0.1408
      8 H           1.2921   -2.5942   -1.4874 H       1  LIG1        0.1072
      9 N           2.0250    0.1188   -1.6146 N.1     1  LIG1       -0.1908
     10 C           1.0619   -0.1401   -1.0275 C.1     1  LIG1        0.1014
     11 C          -0.8572    1.8089    0.3577 C.ar    1  LIG1        0.0422
     12 C           0.1154    2.5252    1.0054 C.ar    1  LIG1        0.0381
     13 C          -0.0987    3.9413    0.8891 C.ar    1  LIG1        0.0808
     14 C          -1.2184    4.2711    0.1588 C.ar    1  LIG1        0.0460
     15 S          -2.0222    2.8540   -0.4000 S.2     1  LIG1       -0.0847
     16 S           1.4141    1.7704    1.9266 S.3     1  LIG1       -0.1402
     17 H           1.9981    2.9204    2.3029 H       1  LIG1        0.1072
     18 N           1.4350    5.6347    2.0917 N.1     1  LIG1       -0.1908
     19 C           0.7354    4.9010    1.5338 C.1     1  LIG1        0.1014
     20 C          -1.7246    5.6046   -0.1499 C.ar    1  LIG1        0.0422
     21 C          -1.1050    6.5970   -0.8652 C.ar    1  LIG1        0.0381
     22 C          -1.9316    7.7673   -0.9745 C.ar    1  LIG1        0.0808
     23 C          -3.1499    7.6440   -0.3455 C.ar    1  LIG1        0.0460
     24 S          -3.3015    6.0966    0.3948 S.2     1  LIG1       -0.0847
     25 S           0.4759    6.4024   -1.6169 S.3     1  LIG1       -0.1402
     26 H           0.5216    7.6332   -2.1539 H       1  LIG1        0.1072
     27 N          -1.1902    9.8151   -2.3612 N.1     1  LIG1       -0.1908
     28 C          -1.5452    8.9161   -1.7252 C.1     1  LIG1        0.1014
     29 C          -4.2175    8.6362   -0.2632 C.ar    1  LIG1        0.0416
     30 C          -4.1737    9.8731    0.3260 C.ar    1  LIG1        0.0375
     31 C          -5.4296   10.5641    0.1964 C.ar    1  LIG1        0.0725
     32 C          -6.3756    9.8354   -0.4698 C.ar    1  LIG1       -0.0052
     33 S          -5.7827    8.3145   -0.9595 S.2     1  LIG1       -0.0937
     34 H          -7.3891   10.1381   -0.6899 H       1  LIG1        0.0707
     35 S          -2.7654   10.4870    1.1876 S.3     1  LIG1       -0.1403
     36 H          -3.2912   11.6925    1.4620 H       1  LIG1        0.1072
     37 N          -5.8162   12.9276    1.1635 N.1     1  LIG1       -0.1908
     38 C          -5.6638   11.8693    0.7212 C.1     1  LIG1        0.1008
@<TRIPOS>BOND
     1    27    28    3
     2    26    25    1
     3    28    22    1
     4    25    21    1
     5     9    10    3
     6     8     7    1
     7    10     3    1
     8    22    21   ar
     9    22    23   ar
    10    33    32   ar
    11    33    29   ar
    12     7     2    1
    13    21    20   ar
    14    34    32    1
    15    32    31   ar
    16    15    14   ar
    17    15    11   ar
    18    23    29    1
    19    23    24   ar
    20     3     2   ar
    21     3     4   ar
    22    29    30   ar
    23     2     1   ar
    24    20    14    1
    25    20    24   ar
    26    14    13   ar
    27    31    30   ar
    28    31    38    1
    29     4    11    1
    30     4     5   ar
    31    30    35    1
    32    11    12   ar
    33     1     6    1
    34     1     5   ar
    35    38    37    3
    36    13    12   ar
    37    13    19    1
    38    12    16    1
    39    35    36    1
    40    19    18    3
    41    16    17    1
