@<TRIPOS>MOLECULE
mol_data/opt/cam/geoms/mol2/5gd5gd5gd-5gd-.out
 38 41 0 0 0
SMALL
GASTEIGER

@<TRIPOS>ATOM
      1 C          -0.6126   -1.8026    1.7361 C.ar    1  LIG1       -0.0093
      2 C          -0.6498   -1.8638    0.3759 C.ar    1  LIG1        0.0298
      3 C          -0.6136   -0.5520   -0.2108 C.ar    1  LIG1        0.0802
      4 C          -0.5394    0.4603    0.7201 C.ar    1  LIG1        0.0454
      5 S          -0.5223   -0.1866    2.3181 S.2     1  LIG1       -0.0937
      6 H          -0.6300   -2.6296    2.4309 H       1  LIG1        0.0705
      7 S          -0.7622   -3.3839   -0.5176 S.3     1  LIG1       -0.1408
      8 H          -0.6488   -2.8426   -1.7421 H       1  LIG1        0.1072
      9 N          -0.7618   -0.2013   -2.7647 N.1     1  LIG1       -0.1908
     10 C          -0.6879   -0.3281   -1.6168 C.1     1  LIG1        0.1014
     11 C          -0.4777    1.8985    0.4697 C.ar    1  LIG1        0.0422
     12 C           0.5291    2.6017   -0.1379 C.ar    1  LIG1        0.0381
     13 C           0.2249    4.0033   -0.2229 C.ar    1  LIG1        0.0808
     14 C          -0.9884    4.3375    0.3352 C.ar    1  LIG1        0.0460
     15 S          -1.7797    2.9411    0.9594 S.2     1  LIG1       -0.0847
     16 S           2.0210    1.8510   -0.7003 S.3     1  LIG1       -0.1402
     17 H           2.5505    2.9728   -1.2162 H       1  LIG1        0.1072
     18 N           1.8214    5.6603   -1.3941 N.1     1  LIG1       -0.1908
     19 C           1.0882    4.9429   -0.8589 C.1     1  LIG1        0.1014
     20 C          -1.5941    5.6631    0.4280 C.ar    1  LIG1        0.0422
     21 C          -1.1291    6.7530    1.1169 C.ar    1  LIG1        0.0381
     22 C          -2.0100    7.8804    0.9858 C.ar    1  LIG1        0.0808
     23 C          -3.1147    7.6287    0.2034 C.ar    1  LIG1        0.0460
     24 S          -3.0907    6.0109   -0.3860 S.2     1  LIG1       -0.0847
     25 S           0.3313    6.7196    2.1019 S.3     1  LIG1       -0.1402
     26 H           0.2703    8.0080    2.4777 H       1  LIG1        0.1072
     27 N          -1.5639   10.0862    2.2512 N.1     1  LIG1       -0.1908
     28 C          -1.7864    9.1143    1.6639 C.1     1  LIG1        0.1014
     29 C          -4.1988    8.5459   -0.1345 C.ar    1  LIG1        0.0416
     30 C          -4.1191    9.7275   -0.8252 C.ar    1  LIG1        0.0375
     31 C          -5.4104   10.3497   -0.9567 C.ar    1  LIG1        0.0725
     32 C          -6.4156    9.6252   -0.3784 C.ar    1  LIG1       -0.0052
     33 S          -5.8384    8.1915    0.3396 S.2     1  LIG1       -0.0937
     34 H          -7.4641    9.8837   -0.3471 H       1  LIG1        0.0707
     35 S          -2.6221   10.3499   -1.5135 S.3     1  LIG1       -0.1403
     36 H          -3.1584   11.4819   -1.9994 H       1  LIG1        0.1072
     37 N          -5.7475   12.5931   -2.1912 N.1     1  LIG1       -0.1908
     38 C          -5.6184   11.5881   -1.6326 C.1     1  LIG1        0.1008
@<TRIPOS>BOND
     1     9    10    3
     2    37    38    3
     3    36    35    1
     4     8     7    1
     5    38    31    1
     6    10     3    1
     7    35    30    1
     8    18    19    3
     9    17    16    1
    10    31    30   ar
    11    31    32   ar
    12    19    13    1
    13    30    29   ar
    14    16    12    1
    15     7     2    1
    16    24    23   ar
    17    24    20   ar
    18    32    34    1
    19    32    33   ar
    20    13    12   ar
    21    13    14   ar
    22     3     2   ar
    23     3     4   ar
    24    12    11   ar
    25    29    23    1
    26    29    33   ar
    27    23    22   ar
    28    14    20    1
    29    14    15   ar
    30     2     1   ar
    31    20    21   ar
    32    11     4    1
    33    11    15   ar
    34     4     5   ar
    35    22    21   ar
    36    22    28    1
    37    21    25    1
    38    28    27    3
    39     1     5   ar
    40     1     6    1
    41    25    26    1
