@<TRIPOS>MOLECULE
mol_data/opt/cam/geoms/mol2/5gd5gd5gd-5gd.out
 38 41 0 0 0
SMALL
GASTEIGER

@<TRIPOS>ATOM
      1 C          -0.8237   -1.5455    2.2598 C.ar    1  LIG1       -0.0093
      2 C          -0.8790   -1.7635    0.9164 C.ar    1  LIG1        0.0298
      3 C          -0.7716   -0.5342    0.1793 C.ar    1  LIG1        0.0802
      4 C          -0.6279    0.5739    0.9843 C.ar    1  LIG1        0.0454
      5 S          -0.6330    0.1195    2.6473 S.2     1  LIG1       -0.0937
      6 H          -0.8818   -2.2828    3.0471 H       1  LIG1        0.0705
      7 S          -1.0946   -3.3680    0.2084 S.3     1  LIG1       -0.1408
      8 H          -0.9335   -2.9867   -1.0698 H       1  LIG1        0.1072
      9 N          -0.9216   -0.4746   -2.3979 N.1     1  LIG1       -0.1908
     10 C          -0.8458   -0.4720   -1.2432 C.1     1  LIG1        0.1014
     11 C          -0.4830    1.9661    0.5646 C.ar    1  LIG1        0.0422
     12 C           0.5599    2.5295   -0.1231 C.ar    1  LIG1        0.0381
     13 C           0.3381    3.9257   -0.3765 C.ar    1  LIG1        0.0808
     14 C          -0.8501    4.3957    0.1355 C.ar    1  LIG1        0.0460
     15 S          -1.7184    3.1351    0.9227 S.2     1  LIG1       -0.0847
     16 S           2.0004    1.6283   -0.5909 S.3     1  LIG1       -0.1402
     17 H           2.5973    2.6492   -1.2284 H       1  LIG1        0.1072
     18 N           2.0176    5.3431   -1.7321 N.1     1  LIG1       -0.1908
     19 C           1.2505    4.7332   -1.1170 C.1     1  LIG1        0.1014
     20 C          -1.3726    5.7584    0.0627 C.ar    1  LIG1        0.0422
     21 C          -0.8541    6.8859    0.6437 C.ar    1  LIG1        0.0381
     22 C          -1.6329    8.0516    0.3304 C.ar    1  LIG1        0.0808
     23 C          -2.7286    7.7856   -0.4594 C.ar    1  LIG1        0.0460
     24 S          -2.8172    6.1086   -0.8387 S.2     1  LIG1       -0.0847
     25 S           0.5728    6.8669    1.6775 S.3     1  LIG1       -0.1402
     26 H           0.6123    8.1947    1.8785 H       1  LIG1        0.1072
     27 N          -0.9330   10.3990    1.1463 N.1     1  LIG1       -0.1908
     28 C          -1.2751    9.3596    0.7702 C.1     1  LIG1        0.1014
     29 C          -3.7255    8.7339   -0.9497 C.ar    1  LIG1        0.0416
     30 C          -4.6112    9.4757   -0.2128 C.ar    1  LIG1        0.0375
     31 C          -5.4341   10.3046   -1.0533 C.ar    1  LIG1        0.0725
     32 C          -5.1543   10.1602   -2.3843 C.ar    1  LIG1       -0.0052
     33 S          -3.9016    9.0376   -2.6564 S.2     1  LIG1       -0.0937
     34 H          -5.6346   10.6720   -3.2056 H       1  LIG1        0.0707
     35 S          -4.7456    9.3615    1.5403 S.3     1  LIG1       -0.1403
     36 H          -5.6883   10.3104    1.6662 H       1  LIG1        0.1072
     37 N          -7.2546   11.8664   -0.0957 N.1     1  LIG1       -0.1908
     38 C          -6.4435   11.1753   -0.5468 C.1     1  LIG1        0.1008
@<TRIPOS>BOND
     1    34    32    1
     2    33    32   ar
     3    33    29   ar
     4     9    10    3
     5    32    31   ar
     6    18    19    3
     7    10     3    1
     8    17    16    1
     9    19    13    1
    10     8     7    1
    11    31    38    1
    12    31    30   ar
    13    29    23    1
    14    29    30   ar
    15    24    23   ar
    16    24    20   ar
    17    16    12    1
    18    38    37    3
    19    23    22   ar
    20    13    12   ar
    21    13    14   ar
    22    30    35    1
    23    12    11   ar
    24    20    14    1
    25    20    21   ar
    26    14    15   ar
    27     3     2   ar
    28     3     4   ar
    29     7     2    1
    30    22    21   ar
    31    22    28    1
    32    11    15   ar
    33    11     4    1
    34    21    25    1
    35    28    27    3
    36     2     1   ar
    37     4     5   ar
    38    35    36    1
    39    25    26    1
    40     1     5   ar
    41     1     6    1
