@<TRIPOS>MOLECULE
mol_data/opt/cam/geoms/mol2/5gd5gd-.out
 20 21 0 0 0
SMALL
GASTEIGER

@<TRIPOS>ATOM
      1 C          -1.9459   -1.7125    0.8158 C.ar    1  LIG1       -0.0093
      2 C          -0.7631   -1.8162    0.1490 C.ar    1  LIG1        0.0298
      3 C          -0.2701   -0.5268   -0.2532 C.ar    1  LIG1        0.0802
      4 C          -1.0867    0.5141    0.1297 C.ar    1  LIG1        0.0454
      5 S          -2.4629   -0.0800    0.9825 S.2     1  LIG1       -0.0937
      6 H          -2.5435   -2.5159    1.2212 H       1  LIG1        0.0705
      7 S           0.0335   -3.3618   -0.1658 S.3     1  LIG1       -0.1408
      8 H           1.0462   -2.8587   -0.8916 H       1  LIG1        0.1072
      9 N           1.8870   -0.2838   -1.6512 N.1     1  LIG1       -0.1908
     10 C           0.9210   -0.3585   -1.0183 C.1     1  LIG1        0.1014
     11 C          -0.8860    1.9412   -0.1076 C.ar    1  LIG1        0.0416
     12 C           0.1171    2.7408    0.3734 C.ar    1  LIG1        0.0375
     13 C          -0.0195    4.0979   -0.0860 C.ar    1  LIG1        0.0725
     14 C          -1.1138    4.2843   -0.8848 C.ar    1  LIG1       -0.0052
     15 S          -1.9936    2.8417   -1.1073 S.2     1  LIG1       -0.0937
     16 H          -1.4278    5.2093   -1.3462 H       1  LIG1        0.0707
     17 S           1.3727    2.1625    1.4667 S.3     1  LIG1       -0.1403
     18 H           2.0357    3.3289    1.5389 H       1  LIG1        0.1072
     19 N           1.6404    5.9610    0.5806 N.1     1  LIG1       -0.1908
     20 C           0.8860    5.1409    0.2683 C.1     1  LIG1        0.1008
@<TRIPOS>BOND
     1     9    10    3
     2    16    14    1
     3    15    14   ar
     4    15    11   ar
     5    10     3    1
     6     8     7    1
     7    14    13   ar
     8     3     4   ar
     9     3     2   ar
    10     7     2    1
    11    11     4    1
    12    11    12   ar
    13    13    20    1
    14    13    12   ar
    15     4     5   ar
    16     2     1   ar
    17    20    19    3
    18    12    17    1
    19     1     5   ar
    20     1     6    1
    21    17    18    1
