@<TRIPOS>MOLECULE
mol_data/opt/cam/geoms/mol2/5gd5gd5gd-.out
 29 31 0 0 0
SMALL
GASTEIGER

@<TRIPOS>ATOM
      1 C          -1.5658   -1.6641    1.5996 C.ar    1  LIG1       -0.0093
      2 C          -0.8903   -1.8277    0.4283 C.ar    1  LIG1        0.0298
      3 C          -0.5085   -0.5638   -0.1397 C.ar    1  LIG1        0.0802
      4 C          -0.8961    0.5164    0.6217 C.ar    1  LIG1        0.0454
      5 S          -1.7363   -0.0081    2.0328 S.2     1  LIG1       -0.0937
      6 H          -1.9722   -2.4364    2.2363 H       1  LIG1        0.0705
      7 S          -0.5677   -3.4116   -0.2857 S.3     1  LIG1       -0.1408
      8 H           0.1548   -2.9590   -1.3241 H       1  LIG1        0.1072
      9 N           0.7078   -0.4074   -2.4121 N.1     1  LIG1       -0.1908
     10 C           0.1687   -0.4467   -1.3889 C.1     1  LIG1        0.1014
     11 C          -0.6632    1.9317    0.3427 C.ar    1  LIG1        0.0422
     12 C           0.5366    2.5923    0.3077 C.ar    1  LIG1        0.0381
     13 C           0.3716    3.9802   -0.0244 C.ar    1  LIG1        0.0808
     14 C          -0.9411    4.3482   -0.2150 C.ar    1  LIG1        0.0460
     15 S          -1.9906    3.0000   -0.0018 S.2     1  LIG1       -0.0847
     16 S           2.0742    1.8108    0.6702 S.3     1  LIG1       -0.1402
     17 H           2.8354    2.8909    0.4271 H       1  LIG1        0.1072
     18 N           2.3997    5.5555   -0.2927 N.1     1  LIG1       -0.1908
     19 C           1.4714    4.8749   -0.1743 C.1     1  LIG1        0.1014
     20 C          -1.4554    5.6735   -0.5507 C.ar    1  LIG1        0.0416
     21 C          -1.3982    6.8127    0.2084 C.ar    1  LIG1        0.0375
     22 C          -2.0097    7.9282   -0.4643 C.ar    1  LIG1        0.0725
     23 C          -2.5117    7.6008   -1.6937 C.ar    1  LIG1       -0.0052
     24 S          -2.2578    5.9585   -2.0709 S.2     1  LIG1       -0.0937
     25 H          -3.0139    8.2624   -2.3845 H       1  LIG1        0.0707
     26 S          -0.7106    6.8607    1.8301 S.3     1  LIG1       -0.1403
     27 H          -0.8841    8.1806    2.0114 H       1  LIG1        0.1072
     28 N          -2.1427   10.2792    0.5967 N.1     1  LIG1       -0.1908
     29 C          -2.0926    9.2345    0.1015 C.1     1  LIG1        0.1008
@<TRIPOS>BOND
     1     9    10    3
     2    25    23    1
     3    24    23   ar
     4    24    20   ar
     5    23    22   ar
     6    10     3    1
     7     8     7    1
     8    20    14    1
     9    20    21   ar
    10    22    29    1
    11    22    21   ar
    12    18    19    3
    13     7     2    1
    14    14    13   ar
    15    14    15   ar
    16    19    13    1
    17     3     2   ar
    18     3     4   ar
    19    13    12   ar
    20    15    11   ar
    21    29    28    3
    22    21    26    1
    23    12    11   ar
    24    12    16    1
    25    11     4    1
    26    17    16    1
    27     2     1   ar
    28     4     5   ar
    29     1     5   ar
    30     1     6    1
    31    26    27    1
