@<TRIPOS>MOLECULE
mol_data/opt/cam/geoms/mol2/5gd5gd5gd.out
 29 31 0 0 0
SMALL
GASTEIGER

@<TRIPOS>ATOM
      1 C          -1.7952   -1.9151    0.5460 C.ar    1  LIG1       -0.0093
      2 C          -0.7620   -1.8097   -0.3348 C.ar    1  LIG1        0.0298
      3 C          -0.3159   -0.4488   -0.4638 C.ar    1  LIG1        0.0802
      4 C          -1.0156    0.4324    0.3307 C.ar    1  LIG1        0.0454
      5 S          -2.2245   -0.3993    1.2374 S.2     1  LIG1       -0.0937
      6 H          -2.3293   -2.8109    0.8274 H       1  LIG1        0.0705
      7 S          -0.0841   -3.1962   -1.1949 S.3     1  LIG1       -0.1408
      8 H           0.7831   -2.4938   -1.9433 H       1  LIG1        0.1072
      9 N           1.5429    0.2050   -2.1320 N.1     1  LIG1       -0.1908
     10 C           0.7126   -0.0562   -1.3694 C.1     1  LIG1        0.1014
     11 C          -0.8247    1.8751    0.4501 C.ar    1  LIG1        0.0422
     12 C           0.2807    2.5432    0.9085 C.ar    1  LIG1        0.0381
     13 C           0.0882    3.9669    0.8910 C.ar    1  LIG1        0.0808
     14 C          -1.1478    4.3505    0.4213 C.ar    1  LIG1        0.0460
     15 S          -2.0896    2.9755   -0.0113 S.2     1  LIG1       -0.0847
     16 S           1.7197    1.7240    1.5120 S.3     1  LIG1       -0.1402
     17 H           2.3991    2.8449    1.8067 H       1  LIG1        0.1072
     18 N           1.8836    5.5800    1.8081 N.1     1  LIG1       -0.1908
     19 C           1.0644    4.8829    1.3817 C.1     1  LIG1        0.1014
     20 C          -1.6652    5.7076    0.2733 C.ar    1  LIG1        0.0416
     21 C          -1.1843    6.7091   -0.5296 C.ar    1  LIG1        0.0375
     22 C          -1.9645    7.9115   -0.3984 C.ar    1  LIG1        0.0725
     23 C          -3.0040    7.7823    0.4807 C.ar    1  LIG1       -0.0052
     24 S          -3.0653    6.2261    1.1728 S.2     1  LIG1       -0.0937
     25 H          -3.7262    8.5412    0.7448 H       1  LIG1        0.0707
     26 S           0.1807    6.5030   -1.6237 S.3     1  LIG1       -0.1403
     27 H           0.1791    7.7669   -2.0792 H       1  LIG1        0.1072
     28 N          -1.4348   10.0600   -1.7304 N.1     1  LIG1       -0.1908
     29 C          -1.6882    9.1085   -1.1227 C.1     1  LIG1        0.1008
@<TRIPOS>BOND
     1     9    10    3
     2    27    26    1
     3     8     7    1
     4    28    29    3
     5    26    21    1
     6    10     3    1
     7     7     2    1
     8    29    22    1
     9    21    22   ar
    10    21    20   ar
    11     3     2   ar
    12     3     4   ar
    13    22    23   ar
    14     2     1   ar
    15    15    14   ar
    16    15    11   ar
    17    20    14    1
    18    20    24   ar
    19     4    11    1
    20     4     5   ar
    21    14    13   ar
    22    11    12   ar
    23    23    25    1
    24    23    24   ar
    25     1     6    1
    26     1     5   ar
    27    13    12   ar
    28    13    19    1
    29    12    16    1
    30    19    18    3
    31    16    17    1
