@<TRIPOS>MOLECULE
mol_data/opt/cam/geoms/mol2/5gd5gd.out
 20 21 0 0 0
SMALL
GASTEIGER

@<TRIPOS>ATOM
      1 C          -1.9517   -1.7076    0.8279 C.ar    1  LIG1       -0.0093
      2 C          -0.7645   -1.8153    0.1695 C.ar    1  LIG1        0.0298
      3 C          -0.2687   -0.5282   -0.2368 C.ar    1  LIG1        0.0802
      4 C          -1.0876    0.5149    0.1348 C.ar    1  LIG1        0.0454
      5 S          -2.4696   -0.0741    0.9818 S.2     1  LIG1       -0.0937
      6 H          -2.5521   -2.5086    1.2339 H       1  LIG1        0.0705
      7 S           0.0340   -3.3627   -0.1312 S.3     1  LIG1       -0.1408
      8 H           1.0515   -2.8639   -0.8531 H       1  LIG1        0.1072
      9 N           1.8976   -0.2934   -1.6218 N.1     1  LIG1       -0.1908
     10 C           0.9274   -0.3644   -0.9950 C.1     1  LIG1        0.1014
     11 C          -0.8853    1.9407   -0.1093 C.ar    1  LIG1        0.0416
     12 C           0.1147    2.7428    0.3737 C.ar    1  LIG1        0.0375
     13 C          -0.0186    4.0973   -0.0943 C.ar    1  LIG1        0.0725
     14 C          -1.1076    4.2793   -0.9014 C.ar    1  LIG1       -0.0052
     15 S          -1.9861    2.8355   -1.1215 S.2     1  LIG1       -0.0937
     16 H          -1.4184    5.2017   -1.3701 H       1  LIG1        0.0707
     17 S           1.3631    2.1707    1.4786 S.3     1  LIG1       -0.1403
     18 H           2.0257    3.3374    1.5485 H       1  LIG1        0.1072
     19 N           1.6371    5.9641    0.5727 N.1     1  LIG1       -0.1908
     20 C           0.8847    5.1423    0.2601 C.1     1  LIG1        0.1008
@<TRIPOS>BOND
     1     9    10    3
     2    16    14    1
     3    15    14   ar
     4    15    11   ar
     5    10     3    1
     6    14    13   ar
     7     8     7    1
     8     3     4   ar
     9     3     2   ar
    10     7     2    1
    11    11     4    1
    12    11    12   ar
    13    13    20    1
    14    13    12   ar
    15     4     5   ar
    16     2     1   ar
    17    20    19    3
    18    12    17    1
    19     1     5   ar
    20     1     6    1
    21    17    18    1
