@<TRIPOS>MOLECULE
mol_data/opt/cam/geoms/mol2/5gd5gd-5gd-5gd-.out
 38 41 0 0 0
SMALL
GASTEIGER

@<TRIPOS>ATOM
      1 C          -1.8181   -2.0114   -0.2046 C.ar    1  LIG1       -0.0093
      2 C          -0.6003   -1.8979    0.3943 C.ar    1  LIG1        0.0298
      3 C          -0.1521   -0.5319    0.4226 C.ar    1  LIG1        0.0802
      4 C          -1.0370    0.3449   -0.1652 C.ar    1  LIG1        0.0454
      5 S          -2.4226   -0.4971   -0.7535 S.2     1  LIG1       -0.0937
      6 H          -2.3948   -2.9125   -0.3539 H       1  LIG1        0.0705
      7 S           0.2868   -3.2814    1.0429 S.3     1  LIG1       -0.1408
      8 H           1.2942   -2.5711    1.5778 H       1  LIG1        0.1072
      9 N           2.0527    0.1378    1.5871 N.1     1  LIG1       -0.1908
     10 C           1.0634   -0.1308    1.0502 C.1     1  LIG1        0.1014
     11 C          -0.8984    1.7909   -0.3133 C.ar    1  LIG1        0.0422
     12 C           0.0510    2.4776   -1.0244 C.ar    1  LIG1        0.0381
     13 C          -0.1470    3.8985   -0.9443 C.ar    1  LIG1        0.0808
     14 C          -1.2317    4.2613   -0.1777 C.ar    1  LIG1        0.0460
     15 S          -2.0217    2.8699    0.4597 S.2     1  LIG1       -0.0847
     16 S           1.3031    1.6825   -1.9756 S.3     1  LIG1       -0.1402
     17 H           1.8793    2.8147   -2.4129 H       1  LIG1        0.1072
     18 N           1.3466    5.5393   -2.2645 N.1     1  LIG1       -0.1908
     19 C           0.6660    4.8299   -1.6542 C.1     1  LIG1        0.1014
     20 C          -1.7140    5.6084    0.1097 C.ar    1  LIG1        0.0422
     21 C          -1.0566    6.6172    0.7660 C.ar    1  LIG1        0.0381
     22 C          -1.8687    7.7978    0.8730 C.ar    1  LIG1        0.0808
     23 C          -3.1138    7.6658    0.3009 C.ar    1  LIG1        0.0460
     24 S          -3.3089    6.0973   -0.3826 S.2     1  LIG1       -0.0847
     25 S           0.5537    6.4322    1.4553 S.3     1  LIG1       -0.1402
     26 H           0.6317    7.6787    1.9504 H       1  LIG1        0.1072
     27 N          -1.0527    9.8815    2.1609 N.1     1  LIG1       -0.1908
     28 C          -1.4416    8.9661    1.5696 C.1     1  LIG1        0.1014
     29 C          -4.1763    8.6645    0.2327 C.ar    1  LIG1        0.0416
     30 C          -4.1483    9.8818   -0.3969 C.ar    1  LIG1        0.0375
     31 C          -5.3922   10.5879   -0.2359 C.ar    1  LIG1        0.0725
     32 C          -6.3143    9.8890    0.4929 C.ar    1  LIG1       -0.0052
     33 S          -5.7126    8.3790    1.0051 S.2     1  LIG1       -0.0937
     34 H          -7.3150   10.2077    0.7463 H       1  LIG1        0.0707
     35 S          -2.7737   10.4555   -1.3369 S.3     1  LIG1       -0.1403
     36 H          -3.3015   11.6565   -1.6269 H       1  LIG1        0.1072
     37 N          -5.8018   12.9231   -1.2604 N.1     1  LIG1       -0.1908
     38 C          -5.6387   11.8780   -0.7915 C.1     1  LIG1        0.1008
@<TRIPOS>BOND
     1    17    16    1
     2    18    19    3
     3    16    12    1
     4    19    13    1
     5    36    35    1
     6    35    30    1
     7    37    38    3
     8    12    13   ar
     9    12    11   ar
    10    13    14   ar
    11    38    31    1
    12     5     1   ar
    13     5     4   ar
    14    30    31   ar
    15    30    29   ar
    16    24    20   ar
    17    24    23   ar
    18     6     1    1
    19    11     4    1
    20    11    15   ar
    21    31    32   ar
    22     1     2   ar
    23    14    20    1
    24    14    15   ar
    25     4     3   ar
    26    20    21   ar
    27    29    23    1
    28    29    33   ar
    29    23    22   ar
    30     2     3   ar
    31     2     7    1
    32     3    10    1
    33    32    34    1
    34    32    33   ar
    35    21    22   ar
    36    21    25    1
    37    22    28    1
    38     7     8    1
    39    10     9    3
    40    25    26    1
    41    28    27    3
