@<TRIPOS>MOLECULE
mol_data/opt/cam/geoms/mol2/5ge.out
 12 12 0 0 0
SMALL
GASTEIGER

@<TRIPOS>ATOM
      1 C          -2.1406   -1.6775    0.0002 C.ar    1  LIG1       -0.0099
      2 C          -0.7804   -1.6724   -0.0003 C.ar    1  LIG1        0.0272
      3 C          -0.2417   -0.3321   -0.0002 C.ar    1  LIG1        0.0448
      4 C          -1.2290    0.6155    0.0003 C.ar    1  LIG1       -0.0078
      5 S          -2.7934   -0.0805    0.0007 S.2     1  LIG1       -0.1027
      6 H          -2.7974   -2.5348    0.0002 H       1  LIG1        0.0705
      7 H          -1.0956    1.6870    0.0005 H       1  LIG1        0.0706
      8 S           0.1944   -3.1475   -0.0009 S.3     1  LIG1       -0.1409
      9 H           1.3808   -2.5159   -0.0013 H       1  LIG1        0.1072
     10 C           1.1512   -0.0357   -0.0007 C.1     1  LIG1       -0.0680
     11 C           2.3357    0.1837   -0.0010 C.1     1  LIG1       -0.1139
     12 H           3.3801    0.3964   -0.0017 H       1  LIG1        0.1232
@<TRIPOS>BOND
     1    12    11    1
     2     9     8    1
     3    11    10    3
     4     8     2    1
     5    10     3    1
     6     2     3   ar
     7     2     1   ar
     8     3     4   ar
     9     1     6    1
    10     1     5   ar
    11     4     7    1
    12     4     5   ar
