@<TRIPOS>MOLECULE
mol_data/opt/cam/geoms/mol2/5ge5ge5ge-5ge.out
 42 45 0 0 0
SMALL
GASTEIGER

@<TRIPOS>ATOM
      1 C          -1.3182   -1.3322    2.4456 C.ar    1  LIG1       -0.0093
      2 C          -0.9358   -1.6547    1.1811 C.ar    1  LIG1        0.0278
      3 C          -0.5911   -0.4919    0.4012 C.ar    1  LIG1        0.0531
      4 C          -0.7140    0.6787    1.1177 C.ar    1  LIG1        0.0434
      5 S          -1.2551    0.3640    2.7313 S.2     1  LIG1       -0.0937
      6 H          -1.6328   -2.0049    3.2300 H       1  LIG1        0.0705
      7 S          -0.8917   -3.3167    0.5802 S.3     1  LIG1       -0.1409
      8 H          -0.4722   -2.9941   -0.6553 H       1  LIG1        0.1072
      9 C          -0.2157   -0.5545   -0.9691 C.1     1  LIG1       -0.0674
     10 C           0.0942   -0.6433   -2.1296 C.1     1  LIG1       -0.1138
     11 H           0.3774   -0.6931   -3.1560 H       1  LIG1        0.1232
     12 C          -0.4550    2.0430    0.6731 C.ar    1  LIG1        0.0421
     13 C           0.6950    2.5809    0.1581 C.ar    1  LIG1        0.0361
     14 C           0.5664    3.9858   -0.1364 C.ar    1  LIG1        0.0537
     15 C          -0.6736    4.4882    0.1881 C.ar    1  LIG1        0.0440
     16 S          -1.7017    3.2490    0.8166 S.2     1  LIG1       -0.0848
     17 S           2.1748    1.6582   -0.1170 S.3     1  LIG1       -0.1403
     18 H           2.9905    2.7240   -0.0412 H       1  LIG1        0.1072
     19 C           1.6084    4.7599   -0.7180 C.1     1  LIG1       -0.0674
     20 C           2.5056    5.3966   -1.2072 C.1     1  LIG1       -0.1138
     21 H           3.2866    5.9786   -1.6405 H       1  LIG1        0.1232
     22 C          -1.1629    5.8542    0.0449 C.ar    1  LIG1        0.0421
     23 C          -0.6561    7.0137    0.5702 C.ar    1  LIG1        0.0361
     24 C          -1.4483    8.1688    0.2302 C.ar    1  LIG1        0.0537
     25 C          -2.5549    7.8540   -0.5255 C.ar    1  LIG1        0.0440
     26 S          -2.6200    6.1590   -0.8574 S.2     1  LIG1       -0.0848
     27 S           0.8066    7.0916    1.5558 S.3     1  LIG1       -0.1403
     28 H           0.4495    8.2145    2.2030 H       1  LIG1        0.1072
     29 C          -1.1063    9.4925    0.6229 C.1     1  LIG1       -0.0674
     30 C          -0.7996   10.6038    0.9703 C.1     1  LIG1       -0.1138
     31 H          -0.5458   11.5957    1.2665 H       1  LIG1        0.1232
     32 C          -3.5846    8.7486   -1.0412 C.ar    1  LIG1        0.0415
     33 C          -4.4129    9.5991   -0.3563 C.ar    1  LIG1        0.0355
     34 C          -5.3377   10.2855   -1.2264 C.ar    1  LIG1        0.0454
     35 C          -5.1824    9.9230   -2.5355 C.ar    1  LIG1       -0.0072
     36 S          -3.9252    8.7851   -2.7515 S.2     1  LIG1       -0.0937
     37 H          -5.7529   10.2876   -3.3770 H       1  LIG1        0.0706
     38 S          -4.3714    9.8199    1.3945 S.3     1  LIG1       -0.1403
     39 H          -5.6442   10.2432    1.4864 H       1  LIG1        0.1072
     40 C          -6.3210   11.2100   -0.7709 C.1     1  LIG1       -0.0680
     41 C          -7.1522   11.9816   -0.3664 C.1     1  LIG1       -0.1139
     42 H          -7.8872   12.6720   -0.0209 H       1  LIG1        0.1232
@<TRIPOS>BOND
     1    37    35    1
     2    11    10    1
     3    36    35   ar
     4    36    32   ar
     5    35    34   ar
     6    10     9    3
     7    21    20    1
     8    34    40    1
     9    34    33   ar
    10    20    19    3
    11    32    25    1
    12    32    33   ar
    13     9     3    1
    14    26    25   ar
    15    26    22   ar
    16    40    41    3
    17    19    14    1
    18     8     7    1
    19    25    24   ar
    20    41    42    1
    21    33    38    1
    22    14    13   ar
    23    14    15   ar
    24    17    18    1
    25    17    13    1
    26    22    15    1
    27    22    23   ar
    28    13    12   ar
    29    15    16   ar
    30    24    23   ar
    31    24    29    1
    32     3     4   ar
    33     3     2   ar
    34    23    27    1
    35     7     2    1
    36    29    30    3
    37    12    16   ar
    38    12     4    1
    39    30    31    1
    40     4     5   ar
    41     2     1   ar
    42    38    39    1
    43    27    28    1
    44     1     5   ar
    45     1     6    1
