@<TRIPOS>MOLECULE
mol_data/opt/cam/geoms/mol2/5ge5ge.out
 22 23 0 0 0
SMALL
GASTEIGER

@<TRIPOS>ATOM
      1 C          -2.0508   -1.6485    0.8004 C.ar    1  LIG1       -0.0093
      2 C          -0.7862   -1.8043    0.3256 C.ar    1  LIG1        0.0278
      3 C          -0.1988   -0.5531   -0.0861 C.ar    1  LIG1        0.0531
      4 C          -1.0457    0.5162    0.1079 C.ar    1  LIG1        0.0434
      5 S          -2.5528   -0.0019    0.7831 S.2     1  LIG1       -0.0937
      6 H          -2.7173   -2.4174    1.1628 H       1  LIG1        0.0705
      7 S           0.0199   -3.3744    0.2236 S.3     1  LIG1       -0.1409
      8 H           1.1417   -2.9042   -0.3483 H       1  LIG1        0.1072
      9 C           1.0931   -0.4536   -0.6727 C.1     1  LIG1       -0.0674
     10 C           2.1887   -0.4080   -1.1708 C.1     1  LIG1       -0.1138
     11 H           3.1585   -0.3374   -1.6075 H       1  LIG1        0.1232
     12 C          -0.8066    1.9253   -0.1822 C.ar    1  LIG1        0.0414
     13 C           0.1837    2.7481    0.2869 C.ar    1  LIG1        0.0355
     14 C           0.0560    4.0993   -0.2049 C.ar    1  LIG1        0.0454
     15 C          -1.0310    4.2526   -1.0201 C.ar    1  LIG1       -0.0072
     16 S          -1.8970    2.7939   -1.2307 S.2     1  LIG1       -0.0937
     17 H          -1.3477    5.1633   -1.5066 H       1  LIG1        0.0706
     18 S           1.4611    2.2227    1.3857 S.3     1  LIG1       -0.1403
     19 H           1.7430    3.4593    1.8316 H       1  LIG1        0.1072
     20 C           0.9411    5.1595    0.1437 C.1     1  LIG1       -0.0680
     21 C           1.6950    6.0449    0.4569 C.1     1  LIG1       -0.1139
     22 H           2.3595    6.8352    0.7212 H       1  LIG1        0.1232
@<TRIPOS>BOND
     1    11    10    1
     2    17    15    1
     3    16    15   ar
     4    16    12   ar
     5    10     9    3
     6    15    14   ar
     7     9     3    1
     8     8     7    1
     9    14    20    1
    10    14    13   ar
    11    12     4    1
    12    12    13   ar
    13     3     4   ar
    14     3     2   ar
    15     4     5   ar
    16    20    21    3
    17     7     2    1
    18    13    18    1
    19     2     1   ar
    20    21    22    1
    21     5     1   ar
    22     1     6    1
    23    18    19    1
