@<TRIPOS>MOLECULE
mol_data/opt/cam/geoms/mol2/5ge5ge5ge-5ge-.out
 42 45 0 0 0
SMALL
GASTEIGER

@<TRIPOS>ATOM
      1 C          -0.8748   -1.6219    2.0892 C.ar    1  LIG1       -0.0093
      2 C          -0.6066   -1.7952    0.7674 C.ar    1  LIG1        0.0278
      3 C          -0.4122   -0.5423    0.0804 C.ar    1  LIG1        0.0531
      4 C          -0.5280    0.5433    0.9211 C.ar    1  LIG1        0.0434
      5 S          -0.8805    0.0396    2.5391 S.2     1  LIG1       -0.0937
      6 H          -1.0677   -2.3864    2.8274 H       1  LIG1        0.0705
      7 S          -0.5276   -3.3852   -0.0014 S.3     1  LIG1       -0.1409
      8 H          -0.2644   -2.9176   -1.2337 H       1  LIG1        0.1072
      9 C          -0.1777   -0.4479   -1.3191 C.1     1  LIG1       -0.0674
     10 C           0.0148   -0.4038   -2.5073 C.1     1  LIG1       -0.1138
     11 H           0.1926   -0.3353   -3.5561 H       1  LIG1        0.1232
     12 C          -0.3954    1.9583    0.5954 C.ar    1  LIG1        0.0421
     13 C           0.6625    2.6201    0.0300 C.ar    1  LIG1        0.0361
     14 C           0.4236    4.0350   -0.1051 C.ar    1  LIG1        0.0537
     15 C          -0.8033    4.4189    0.3876 C.ar    1  LIG1        0.0440
     16 S          -1.6887    3.0578    0.9813 S.2     1  LIG1       -0.0848
     17 S           2.1573    1.8310   -0.4793 S.3     1  LIG1       -0.1403
     18 H           2.9104    2.9404   -0.3840 H       1  LIG1        0.1072
     19 C           1.3535    4.9297   -0.7033 C.1     1  LIG1       -0.0674
     20 C           2.1566    5.6697   -1.2103 C.1     1  LIG1       -0.1138
     21 H           2.8519    6.3430   -1.6569 H       1  LIG1        0.1232
     22 C          -1.3828    5.7555    0.4350 C.ar    1  LIG1        0.0421
     23 C          -0.8905    6.8917    1.0219 C.ar    1  LIG1        0.0361
     24 C          -1.7937    8.0095    0.9083 C.ar    1  LIG1        0.0537
     25 C          -2.9509    7.6956    0.2314 C.ar    1  LIG1        0.0440
     26 S          -2.9401    6.0464   -0.2862 S.2     1  LIG1       -0.0848
     27 S           0.6589    6.9719    1.8638 S.3     1  LIG1       -0.1403
     28 H           0.3102    8.0099    2.6441 H       1  LIG1        0.1072
     29 C          -1.5457    9.2745    1.5097 C.1     1  LIG1       -0.0674
     30 C          -1.3191   10.3314    2.0402 C.1     1  LIG1       -0.1138
     31 H          -1.1336   11.2798    2.4902 H       1  LIG1        0.1232
     32 C          -4.0875    8.5561   -0.0709 C.ar    1  LIG1        0.0415
     33 C          -4.1151    9.7547   -0.7361 C.ar    1  LIG1        0.0355
     34 C          -5.4541   10.2758   -0.8742 C.ar    1  LIG1        0.0454
     35 C          -6.3912    9.4496   -0.3185 C.ar    1  LIG1       -0.0072
     36 S          -5.6949    8.0605    0.3932 S.2     1  LIG1       -0.0937
     37 H          -7.4589    9.6106   -0.2951 H       1  LIG1        0.0706
     38 S          -2.6828   10.5636   -1.3751 S.3     1  LIG1       -0.1403
     39 H          -3.3580   11.2825   -2.2890 H       1  LIG1        0.1072
     40 C          -5.7682   11.4948   -1.5408 C.1     1  LIG1       -0.0680
     41 C          -6.0158   12.5232   -2.1162 C.1     1  LIG1       -0.1139
     42 H          -6.2465   13.4355   -2.6169 H       1  LIG1        0.1232
@<TRIPOS>BOND
     1    11    10    1
     2    42    41    1
     3    10     9    3
     4    39    38    1
     5    41    40    3
     6    21    20    1
     7    40    34    1
     8    38    33    1
     9     9     3    1
    10     8     7    1
    11    20    19    3
    12    34    33   ar
    13    34    35   ar
    14    33    32   ar
    15    19    14    1
    16    17    18    1
    17    17    13    1
    18    35    37    1
    19    35    36   ar
    20    26    25   ar
    21    26    22   ar
    22    14    13   ar
    23    14    15   ar
    24    32    25    1
    25    32    36   ar
    26     7     2    1
    27    13    12   ar
    28     3     2   ar
    29     3     4   ar
    30    25    24   ar
    31    15    22    1
    32    15    16   ar
    33    22    23   ar
    34    12     4    1
    35    12    16   ar
    36     2     1   ar
    37    24    23   ar
    38    24    29    1
    39     4     5   ar
    40    23    27    1
    41    29    30    3
    42    27    28    1
    43    30    31    1
    44     1     5   ar
    45     1     6    1
