@<TRIPOS>MOLECULE
mol_data/opt/cam/geoms/mol2/5ge5ge-5ge.out
 32 34 0 0 0
SMALL
GASTEIGER

@<TRIPOS>ATOM
      1 C          -1.8167   -1.5352    1.6090 C.ar    1  LIG1       -0.0093
      2 C          -0.8768   -1.7876    0.6593 C.ar    1  LIG1        0.0278
      3 C          -0.3358   -0.5778    0.0909 C.ar    1  LIG1        0.0531
      4 C          -0.8830    0.5572    0.6485 C.ar    1  LIG1        0.0434
      5 S          -2.0572    0.1515    1.8537 S.2     1  LIG1       -0.0937
      6 H          -2.3818   -2.2545    2.1835 H       1  LIG1        0.0705
      7 S          -0.4019   -3.4222    0.1821 S.3     1  LIG1       -0.1409
      8 H           0.4866   -3.0305   -0.7471 H       1  LIG1        0.1072
      9 C           0.6191   -0.5701   -0.9631 C.1     1  LIG1       -0.0674
     10 C           1.4242   -0.6000   -1.8585 C.1     1  LIG1       -0.1138
     11 H           2.1416   -0.5971   -2.6468 H       1  LIG1        0.1232
     12 C          -0.5898    1.9510    0.3366 C.ar    1  LIG1        0.0421
     13 C           0.6083    2.6140    0.3801 C.ar    1  LIG1        0.0361
     14 C           0.4847    4.0064    0.0287 C.ar    1  LIG1        0.0537
     15 C          -0.8124    4.3745   -0.2486 C.ar    1  LIG1        0.0440
     16 S          -1.8827    3.0234   -0.1203 S.2     1  LIG1       -0.0848
     17 S           2.1391    1.8507    0.8171 S.3     1  LIG1       -0.1403
     18 H           2.7218    2.9897    1.2295 H       1  LIG1        0.1072
     19 C           1.5928    4.8959   -0.0387 C.1     1  LIG1       -0.0674
     20 C           2.5447    5.6317   -0.0854 C.1     1  LIG1       -0.1138
     21 H           3.3739    6.2997   -0.1337 H       1  LIG1        0.1232
     22 C          -1.3215    5.6885   -0.6230 C.ar    1  LIG1        0.0415
     23 C          -1.2288    6.8770    0.0535 C.ar    1  LIG1        0.0355
     24 C          -1.9097    7.9523   -0.6273 C.ar    1  LIG1        0.0454
     25 C          -2.5007    7.5374   -1.7883 C.ar    1  LIG1       -0.0072
     26 S          -2.2351    5.8771   -2.0969 S.2     1  LIG1       -0.0937
     27 H          -3.0722    8.1458   -2.4736 H       1  LIG1        0.0706
     28 S          -0.3882    7.0731    1.5935 S.3     1  LIG1       -0.1403
     29 H          -1.1033    8.1447    1.9784 H       1  LIG1        0.1072
     30 C          -1.9860    9.2855   -0.1314 C.1     1  LIG1       -0.0680
     31 C          -2.0487   10.4049    0.3077 C.1     1  LIG1       -0.1139
     32 H          -2.1041   11.4011    0.6830 H       1  LIG1        0.1232
@<TRIPOS>BOND
     1    11    10    1
     2    27    25    1
     3    26    25   ar
     4    26    22   ar
     5    10     9    3
     6    25    24   ar
     7     9     3    1
     8     8     7    1
     9    24    30    1
    10    24    23   ar
    11    22    15    1
    12    22    23   ar
    13    15    16   ar
    14    15    14   ar
    15    21    20    1
    16    30    31    3
    17    16    12   ar
    18    20    19    3
    19    19    14    1
    20    14    13   ar
    21    23    28    1
    22     3     4   ar
    23     3     2   ar
    24     7     2    1
    25    31    32    1
    26    12    13   ar
    27    12     4    1
    28    13    17    1
    29     4     5   ar
    30     2     1   ar
    31    17    18    1
    32    28    29    1
    33     1     5   ar
    34     1     6    1
