@<TRIPOS>MOLECULE
mol_data/opt/cam/geoms/mol2/5ge5ge-.out
 22 23 0 0 0
SMALL
GASTEIGER

@<TRIPOS>ATOM
      1 C          -2.0454   -1.6464    0.8142 C.ar    1  LIG1       -0.0093
      2 C          -0.7835   -1.8034    0.3330 C.ar    1  LIG1        0.0278
      3 C          -0.1987   -0.5535   -0.0863 C.ar    1  LIG1        0.0531
      4 C          -1.0448    0.5162    0.1086 C.ar    1  LIG1        0.0434
      5 S          -2.5480    0.0000    0.7940 S.2     1  LIG1       -0.0937
      6 H          -2.7096   -2.4142    1.1830 H       1  LIG1        0.0705
      7 S           0.0225   -3.3737    0.2317 S.3     1  LIG1       -0.1409
      8 H           1.1416   -2.9050   -0.3467 H       1  LIG1        0.1072
      9 C           1.0899   -0.4557   -0.6805 C.1     1  LIG1       -0.0674
     10 C           2.1828   -0.4115   -1.1847 C.1     1  LIG1       -0.1138
     11 H           3.1501   -0.3422   -1.6271 H       1  LIG1        0.1232
     12 C          -0.8077    1.9243   -0.1877 C.ar    1  LIG1        0.0414
     13 C           0.1847    2.7491    0.2733 C.ar    1  LIG1        0.0355
     14 C           0.0541    4.0985   -0.2226 C.ar    1  LIG1        0.0454
     15 C          -1.0372    4.2486   -1.0326 C.ar    1  LIG1       -0.0072
     16 S          -1.9039    2.7890   -1.2335 S.2     1  LIG1       -0.0937
     17 H          -1.3568    5.1575   -1.5206 H       1  LIG1        0.0706
     18 S           1.4681    2.2279    1.3673 S.3     1  LIG1       -0.1403
     19 H           1.7525    3.4663    1.8067 H       1  LIG1        0.1072
     20 C           0.9407    5.1602    0.1176 C.1     1  LIG1       -0.0680
     21 C           1.6959    6.0469    0.4235 C.1     1  LIG1       -0.1139
     22 H           2.3616    6.8384    0.6815 H       1  LIG1        0.1232
@<TRIPOS>BOND
     1    11    10    1
     2    17    15    1
     3    16    15   ar
     4    16    12   ar
     5    10     9    3
     6    15    14   ar
     7     9     3    1
     8     8     7    1
     9    14    20    1
    10    14    13   ar
    11    12     4    1
    12    12    13   ar
    13     3     4   ar
    14     3     2   ar
    15     4     5   ar
    16    20    21    3
    17     7     2    1
    18    13    18    1
    19     2     1   ar
    20    21    22    1
    21     5     1   ar
    22     1     6    1
    23    18    19    1
