@<TRIPOS>MOLECULE
mol_data/opt/cam/geoms/mol2/5ge5ge-5ge5ge.out
 42 45 0 0 0
SMALL
GASTEIGER

@<TRIPOS>ATOM
      1 C          -1.2620   -1.3414    2.4395 C.ar    1  LIG1       -0.0093
      2 C          -0.8918   -1.6568    1.1696 C.ar    1  LIG1        0.0278
      3 C          -0.5609   -0.4891    0.3910 C.ar    1  LIG1        0.0531
      4 C          -0.6813    0.6778    1.1138 C.ar    1  LIG1        0.0434
      5 S          -1.2033    0.3539    2.7318 S.2     1  LIG1       -0.0937
      6 H          -1.5649   -2.0188    3.2243 H       1  LIG1        0.0705
      7 S          -0.8468   -3.3160    0.5611 S.3     1  LIG1       -0.1409
      8 H          -0.4417   -2.9863   -0.6773 H       1  LIG1        0.1072
      9 C          -0.2001   -0.5442   -0.9836 C.1     1  LIG1       -0.0674
     10 C           0.0976   -0.6267   -2.1478 C.1     1  LIG1       -0.1138
     11 H           0.3700   -0.6709   -3.1774 H       1  LIG1        0.1232
     12 C          -0.4334    2.0452    0.6722 C.ar    1  LIG1        0.0421
     13 C           0.7085    2.5905    0.1470 C.ar    1  LIG1        0.0361
     14 C           0.5704    3.9960   -0.1400 C.ar    1  LIG1        0.0537
     15 C          -0.6683    4.4914    0.2000 C.ar    1  LIG1        0.0440
     16 S          -1.6840    3.2448    0.8342 S.2     1  LIG1       -0.0848
     17 S           2.1894    1.6757   -0.1479 S.3     1  LIG1       -0.1403
     18 H           3.0010    2.7449   -0.0768 H       1  LIG1        0.1072
     19 C           1.6025    4.7773   -0.7296 C.1     1  LIG1       -0.0674
     20 C           2.4915    5.4201   -1.2258 C.1     1  LIG1       -0.1138
     21 H           3.2651    6.0073   -1.6652 H       1  LIG1        0.1232
     22 C          -1.1653    5.8558    0.0679 C.ar    1  LIG1        0.0421
     23 C          -0.6580    7.0153    0.5927 C.ar    1  LIG1        0.0361
     24 C          -1.4591    8.1682    0.2662 C.ar    1  LIG1        0.0537
     25 C          -2.5725    7.8516   -0.4788 C.ar    1  LIG1        0.0440
     26 S          -2.6334    6.1577   -0.8172 S.2     1  LIG1       -0.0848
     27 S           0.8148    7.0957    1.5629 S.3     1  LIG1       -0.1403
     28 H           0.4598    8.2144    2.2184 H       1  LIG1        0.1072
     29 C          -1.1189    9.4918    0.6609 C.1     1  LIG1       -0.0674
     30 C          -0.8134   10.6029    1.0097 C.1     1  LIG1       -0.1138
     31 H          -0.5609   11.5948    1.3075 H       1  LIG1        0.1232
     32 C          -3.6117    8.7436   -0.9794 C.ar    1  LIG1        0.0415
     33 C          -4.4362    9.5876   -0.2820 C.ar    1  LIG1        0.0355
     34 C          -5.3736   10.2734   -1.1391 C.ar    1  LIG1        0.0454
     35 C          -5.2310    9.9170   -2.4513 C.ar    1  LIG1       -0.0072
     36 S          -3.9711    8.7856   -2.6857 S.2     1  LIG1       -0.0937
     37 H          -5.8123   10.2825   -3.2850 H       1  LIG1        0.0706
     38 S          -4.3766    9.8014    1.4692 S.3     1  LIG1       -0.1403
     39 H          -5.6504   10.2179    1.5767 H       1  LIG1        0.1072
     40 C          -6.3559   11.1915   -0.6690 C.1     1  LIG1       -0.0680
     41 C          -7.1861   11.9577   -0.2523 C.1     1  LIG1       -0.1139
     42 H          -7.9204   12.6433    0.1042 H       1  LIG1        0.1232
@<TRIPOS>BOND
     1    37    35    1
     2    11    10    1
     3    36    35   ar
     4    36    32   ar
     5    35    34   ar
     6    10     9    3
     7    21    20    1
     8    20    19    3
     9    34    40    1
    10    34    33   ar
    11     9     3    1
    12    32    25    1
    13    32    33   ar
    14    26    25   ar
    15    26    22   ar
    16    19    14    1
    17     8     7    1
    18    40    41    3
    19    25    24   ar
    20    33    38    1
    21    41    42    1
    22    17    18    1
    23    17    13    1
    24    14    13   ar
    25    14    15   ar
    26    22    15    1
    27    22    23   ar
    28    13    12   ar
    29    15    16   ar
    30    24    23   ar
    31    24    29    1
    32     3     4   ar
    33     3     2   ar
    34     7     2    1
    35    23    27    1
    36    29    30    3
    37    12    16   ar
    38    12     4    1
    39    30    31    1
    40     4     5   ar
    41     2     1   ar
    42    38    39    1
    43    27    28    1
    44     1     5   ar
    45     1     6    1
