@<TRIPOS>MOLECULE
mol_data/opt/cam/geoms/mol2/5ge5ge-5ge-5ge.out
 42 45 0 0 0
SMALL
GASTEIGER

@<TRIPOS>ATOM
      1 C          -1.2386   -1.3371    2.4431 C.ar    1  LIG1       -0.0093
      2 C          -0.8766   -1.6542    1.1713 C.ar    1  LIG1        0.0278
      3 C          -0.5521   -0.4873    0.3886 C.ar    1  LIG1        0.0531
      4 C          -0.6689    0.6806    1.1104 C.ar    1  LIG1        0.0434
      5 S          -1.1800    0.3587    2.7323 S.2     1  LIG1       -0.0937
      6 H          -1.5357   -2.0136    3.2310 H       1  LIG1        0.0705
      7 S          -0.8337   -3.3143    0.5651 S.3     1  LIG1       -0.1409
      8 H          -0.4378   -2.9861   -0.6766 H       1  LIG1        0.1072
      9 C          -0.2005   -0.5442   -0.9883 C.1     1  LIG1       -0.0674
     10 C           0.0896   -0.6283   -2.1542 C.1     1  LIG1       -0.1138
     11 H           0.3551   -0.6738   -3.1856 H       1  LIG1        0.1232
     12 C          -0.4255    2.0475    0.6650 C.ar    1  LIG1        0.0421
     13 C           0.7124    2.5932    0.1314 C.ar    1  LIG1        0.0361
     14 C           0.5708    3.9981   -0.1570 C.ar    1  LIG1        0.0537
     15 C          -0.6661    4.4927    0.1905 C.ar    1  LIG1        0.0440
     16 S          -1.6762    3.2461    0.8335 S.2     1  LIG1       -0.0848
     17 S           2.1923    1.6796   -0.1720 S.3     1  LIG1       -0.1403
     18 H           3.0032    2.7498   -0.1076 H       1  LIG1        0.1072
     19 C           1.5981    4.7796   -0.7546 C.1     1  LIG1       -0.0674
     20 C           2.4831    5.4227   -1.2577 C.1     1  LIG1       -0.1138
     21 H           3.2530    6.0101   -1.7031 H       1  LIG1        0.1232
     22 C          -1.1655    5.8563    0.0596 C.ar    1  LIG1        0.0421
     23 C          -0.6560    7.0173    0.5791 C.ar    1  LIG1        0.0361
     24 C          -1.4605    8.1687    0.2561 C.ar    1  LIG1        0.0537
     25 C          -2.5784    7.8497   -0.4809 C.ar    1  LIG1        0.0440
     26 S          -2.6399    6.1552   -0.8162 S.2     1  LIG1       -0.0848
     27 S           0.8232    7.1008    1.5392 S.3     1  LIG1       -0.1403
     28 H           0.4713    8.2200    2.1956 H       1  LIG1        0.1072
     29 C          -1.1191    9.4933    0.6464 C.1     1  LIG1       -0.0674
     30 C          -0.8126   10.6054    0.9914 C.1     1  LIG1       -0.1138
     31 H          -0.5592   11.5980    1.2859 H       1  LIG1        0.1232
     32 C          -3.6219    8.7399   -0.9761 C.ar    1  LIG1        0.0415
     33 C          -4.4428    9.5839   -0.2745 C.ar    1  LIG1        0.0355
     34 C          -5.3866   10.2674   -1.1264 C.ar    1  LIG1        0.0454
     35 C          -5.2522    9.9092   -2.4390 C.ar    1  LIG1       -0.0072
     36 S          -3.9926    8.7789   -2.6800 S.2     1  LIG1       -0.0937
     37 H          -5.8394   10.2728   -3.2694 H       1  LIG1        0.0706
     38 S          -4.3720    9.8003    1.4759 S.3     1  LIG1       -0.1403
     39 H          -5.6453   10.2162    1.5912 H       1  LIG1        0.1072
     40 C          -6.3669   11.1851   -0.6512 C.1     1  LIG1       -0.0680
     41 C          -7.1952   11.9509   -0.2302 C.1     1  LIG1       -0.1139
     42 H          -7.9279   12.6363    0.1300 H       1  LIG1        0.1232
@<TRIPOS>BOND
     1    37    35    1
     2    11    10    1
     3    36    35   ar
     4    36    32   ar
     5    35    34   ar
     6    10     9    3
     7    21    20    1
     8    20    19    3
     9    34    40    1
    10    34    33   ar
    11     9     3    1
    12    32    25    1
    13    32    33   ar
    14    26    25   ar
    15    26    22   ar
    16    19    14    1
    17     8     7    1
    18    40    41    3
    19    25    24   ar
    20    33    38    1
    21    41    42    1
    22    17    18    1
    23    17    13    1
    24    14    13   ar
    25    14    15   ar
    26    22    15    1
    27    22    23   ar
    28    13    12   ar
    29    15    16   ar
    30    24    23   ar
    31    24    29    1
    32     3     4   ar
    33     3     2   ar
    34     7     2    1
    35    23    27    1
    36    29    30    3
    37    12    16   ar
    38    12     4    1
    39    30    31    1
    40     4     5   ar
    41     2     1   ar
    42    38    39    1
    43    27    28    1
    44     1     5   ar
    45     1     6    1
