@<TRIPOS>MOLECULE
mol_data/opt/cam/geoms/mol2/5ge5ge5ge5ge-.out
 42 45 0 0 0
SMALL
GASTEIGER

@<TRIPOS>ATOM
      1 C          -1.9828   -1.8456    0.4164 C.ar    1  LIG1       -0.0093
      2 C          -0.7466   -1.8682   -0.1493 C.ar    1  LIG1        0.0278
      3 C          -0.1691   -0.5509   -0.2546 C.ar    1  LIG1        0.0531
      4 C          -0.9939    0.4283    0.2551 C.ar    1  LIG1        0.0434
      5 S          -2.4704   -0.2526    0.8502 S.2     1  LIG1       -0.0937
      6 H          -2.6360   -2.6850    0.6050 H       1  LIG1        0.0705
      7 S           0.0347   -3.3543   -0.7027 S.3     1  LIG1       -0.1409
      8 H           1.1558   -2.7539   -1.1376 H       1  LIG1        0.1072
      9 C           1.0898   -0.2978   -0.8657 C.1     1  LIG1       -0.0674
     10 C           2.1573   -0.1183   -1.3938 C.1     1  LIG1       -0.1138
     11 H           3.1013    0.0706   -1.8512 H       1  LIG1        0.1232
     12 C          -0.7584    1.8650    0.3265 C.ar    1  LIG1        0.0421
     13 C           0.2735    2.5451    0.9183 C.ar    1  LIG1        0.0361
     14 C           0.1202    3.9755    0.8250 C.ar    1  LIG1        0.0537
     15 C          -1.0253    4.3480    0.1576 C.ar    1  LIG1        0.0440
     16 S          -1.9129    2.9631   -0.3743 S.2     1  LIG1       -0.0848
     17 S           1.6214    1.7600    1.7442 S.3     1  LIG1       -0.1403
     18 H           1.9176    2.8232    2.5121 H       1  LIG1        0.1072
     19 C           1.0153    4.8960    1.4371 C.1     1  LIG1       -0.0674
     20 C           1.7790    5.6553    1.9759 C.1     1  LIG1       -0.1138
     21 H           2.4473    6.3480    2.4339 H       1  LIG1        0.1232
     22 C          -1.5182    5.6905   -0.1203 C.ar    1  LIG1        0.0421
     23 C          -0.8949    6.7287   -0.7626 C.ar    1  LIG1        0.0361
     24 C          -1.7445    7.8857   -0.8974 C.ar    1  LIG1        0.0537
     25 C          -2.9937    7.6996   -0.3490 C.ar    1  LIG1        0.0440
     26 S          -3.1376    6.1250    0.3491 S.2     1  LIG1       -0.0848
     27 S           0.7494    6.6486   -1.3983 S.3     1  LIG1       -0.1403
     28 H           0.5649    7.6221   -2.3072 H       1  LIG1        0.1072
     29 C          -1.3553    9.0596   -1.6001 C.1     1  LIG1       -0.0674
     30 C          -1.0075   10.0368   -2.2118 C.1     1  LIG1       -0.1138
     31 H          -0.7166   10.9170   -2.7379 H       1  LIG1        0.1232
     32 C          -4.1122    8.6324   -0.2998 C.ar    1  LIG1        0.0415
     33 C          -4.1602    9.9037    0.2118 C.ar    1  LIG1        0.0355
     34 C          -5.4776   10.4857    0.1146 C.ar    1  LIG1        0.0454
     35 C          -6.3800    9.6321   -0.4567 C.ar    1  LIG1       -0.0072
     36 S          -5.6731    8.1423   -0.9062 S.2     1  LIG1       -0.0937
     37 H          -7.4269    9.8274   -0.6362 H       1  LIG1        0.0706
     38 S          -2.7784   10.7333    0.9308 S.3     1  LIG1       -0.1403
     39 H          -3.5238   11.5681    1.6760 H       1  LIG1        0.1072
     40 C          -5.8088   11.7875    0.5886 C.1     1  LIG1       -0.0680
     41 C          -6.0728   12.8867    1.0034 C.1     1  LIG1       -0.1139
     42 H          -6.3167   13.8611    1.3601 H       1  LIG1        0.1232
@<TRIPOS>BOND
     1    31    30    1
     2    28    27    1
     3    30    29    3
     4    11    10    1
     5    29    24    1
     6    27    23    1
     7    10     9    3
     8     8     7    1
     9    36    35   ar
    10    36    32   ar
    11    24    23   ar
    12    24    25   ar
    13     9     3    1
    14    23    22   ar
    15     7     2    1
    16    37    35    1
    17    35    34   ar
    18    16    15   ar
    19    16    12   ar
    20    25    32    1
    21    25    26   ar
    22    32    33   ar
    23     3     2   ar
    24     3     4   ar
    25     2     1   ar
    26    22    15    1
    27    22    26   ar
    28    34    33   ar
    29    34    40    1
    30    15    14   ar
    31    33    38    1
    32     4    12    1
    33     4     5   ar
    34    12    13   ar
    35     1     6    1
    36     1     5   ar
    37    40    41    3
    38    14    13   ar
    39    14    19    1
    40    13    17    1
    41    38    39    1
    42    41    42    1
    43    19    20    3
    44    17    18    1
    45    20    21    1
