@<TRIPOS>MOLECULE
mol_data/opt/cam/geoms/mol2/5ge5ge-5ge-5ge-.out
 42 45 0 0 0
SMALL
GASTEIGER

@<TRIPOS>ATOM
      1 C          -2.0464   -1.8535   -0.1331 C.ar    1  LIG1       -0.0093
      2 C          -0.7825   -1.8638    0.3679 C.ar    1  LIG1        0.0278
      3 C          -0.1925   -0.5480    0.3909 C.ar    1  LIG1        0.0531
      4 C          -1.0371    0.4170   -0.1134 C.ar    1  LIG1        0.0434
      5 S          -2.5465   -0.2750   -0.6038 S.2     1  LIG1       -0.0937
      6 H          -2.7136   -2.6944   -0.2541 H       1  LIG1        0.0705
      7 S           0.0179   -3.3332    0.9385 S.3     1  LIG1       -0.1409
      8 H           1.1643   -2.7254    1.2887 H       1  LIG1        0.1072
      9 C           1.0981   -0.2811    0.9250 C.1     1  LIG1       -0.0674
     10 C           2.1929   -0.0896    1.3891 C.1     1  LIG1       -0.1138
     11 H           3.1608    0.1095    1.7889 H       1  LIG1        0.1232
     12 C          -0.7972    1.8480   -0.2535 C.ar    1  LIG1        0.0421
     13 C           0.2063    2.4962   -0.9245 C.ar    1  LIG1        0.0361
     14 C           0.0665    3.9303   -0.8800 C.ar    1  LIG1        0.0537
     15 C          -1.0403    4.3377   -0.1692 C.ar    1  LIG1        0.0440
     16 S          -1.9070    2.9817    0.4626 S.2     1  LIG1       -0.0848
     17 S           1.5046    1.6686   -1.7877 S.3     1  LIG1       -0.1403
     18 H           1.7670    2.6988   -2.6108 H       1  LIG1        0.1072
     19 C           0.9337    4.8189   -1.5738 C.1     1  LIG1       -0.0674
     20 C           1.6725    5.5504   -2.1814 C.1     1  LIG1       -0.1138
     21 H           2.3199    6.2192   -2.7009 H       1  LIG1        0.1232
     22 C          -1.5102    5.6939    0.0808 C.ar    1  LIG1        0.0421
     23 C          -0.8482    6.7515    0.6483 C.ar    1  LIG1        0.0361
     24 C          -1.6829    7.9195    0.7812 C.ar    1  LIG1        0.0537
     25 C          -2.9601    7.7219    0.3063 C.ar    1  LIG1        0.0440
     26 S          -3.1494    6.1224   -0.3205 S.2     1  LIG1       -0.0848
     27 S           0.8265    6.6835    1.2005 S.3     1  LIG1       -0.1403
     28 H           0.6953    7.6935    2.0783 H       1  LIG1        0.1072
     29 C          -1.2507    9.1169    1.4159 C.1     1  LIG1       -0.0674
     30 C          -0.8657   10.1145    1.9697 C.1     1  LIG1       -0.1138
     31 H          -0.5427   11.0124    2.4448 H       1  LIG1        0.1232
     32 C          -4.0742    8.6608    0.2784 C.ar    1  LIG1        0.0415
     33 C          -4.1415    9.9114   -0.2799 C.ar    1  LIG1        0.0355
     34 C          -5.4487   10.5071   -0.1374 C.ar    1  LIG1        0.0454
     35 C          -6.3249    9.6836    0.5134 C.ar    1  LIG1       -0.0072
     36 S          -5.6042    8.2070    0.9839 S.2     1  LIG1       -0.0937
     37 H          -7.3599    9.8940    0.7393 H       1  LIG1        0.0706
     38 S          -2.7945   10.7014   -1.1021 S.3     1  LIG1       -0.1403
     39 H          -3.5730   11.5126   -1.8394 H       1  LIG1        0.1072
     40 C          -5.7967   11.7919   -0.6445 C.1     1  LIG1       -0.0680
     41 C          -6.0756   12.8760   -1.0882 C.1     1  LIG1       -0.1139
     42 H          -6.3322   13.8376   -1.4700 H       1  LIG1        0.1232
@<TRIPOS>BOND
     1    21    20    1
     2    18    17    1
     3    20    19    3
     4    39    38    1
     5    17    13    1
     6    19    14    1
     7    42    41    1
     8    38    33    1
     9    41    40    3
    10    13    14   ar
    11    13    12   ar
    12    14    15   ar
    13    40    34    1
    14     5     1   ar
    15     5     4   ar
    16    26    22   ar
    17    26    25   ar
    18    33    34   ar
    19    33    32   ar
    20     6     1    1
    21    12     4    1
    22    12    16   ar
    23    15    22    1
    24    15    16   ar
    25    34    35   ar
    26     1     2   ar
    27     4     3   ar
    28    22    23   ar
    29    32    25    1
    30    32    36   ar
    31    25    24   ar
    32     2     3   ar
    33     2     7    1
    34     3     9    1
    35    35    37    1
    36    35    36   ar
    37    23    24   ar
    38    23    27    1
    39    24    29    1
    40     9    10    3
    41     7     8    1
    42    27    28    1
    43    10    11    1
    44    29    30    3
    45    30    31    1
