@<TRIPOS>MOLECULE
mol_data/opt/cam/geoms/mol2/5ge5ge5ge5ge.out
 42 45 0 0 0
SMALL
GASTEIGER

@<TRIPOS>ATOM
      1 C          -2.0179   -1.8466    0.3576 C.ar    1  LIG1       -0.0093
      2 C          -0.7722   -1.8700   -0.1869 C.ar    1  LIG1        0.0278
      3 C          -0.1876   -0.5543   -0.2719 C.ar    1  LIG1        0.0531
      4 C          -1.0171    0.4243    0.2310 C.ar    1  LIG1        0.0434
      5 S          -2.5061   -0.2550    0.7958 S.2     1  LIG1       -0.0937
      6 H          -2.6777   -2.6846    0.5282 H       1  LIG1        0.0705
      7 S           0.0123   -3.3550   -0.7388 S.3     1  LIG1       -0.1409
      8 H           1.1438   -2.7561   -1.1481 H       1  LIG1        0.1072
      9 C           1.0826   -0.3018   -0.8592 C.1     1  LIG1       -0.0674
     10 C           2.1598   -0.1228   -1.3674 C.1     1  LIG1       -0.1138
     11 H           3.1124    0.0657   -1.8071 H       1  LIG1        0.1232
     12 C          -0.7771    1.8595    0.3176 C.ar    1  LIG1        0.0421
     13 C           0.2475    2.5307    0.9318 C.ar    1  LIG1        0.0361
     14 C           0.1015    3.9624    0.8472 C.ar    1  LIG1        0.0537
     15 C          -1.0313    4.3448    0.1639 C.ar    1  LIG1        0.0440
     16 S          -1.9153    2.9677   -0.3940 S.2     1  LIG1       -0.0848
     17 S           1.5784    1.7336    1.7738 S.3     1  LIG1       -0.1403
     18 H           1.8658    2.7895    2.5549 H       1  LIG1        0.1072
     19 C           0.9896    4.8743    1.4817 C.1     1  LIG1       -0.0674
     20 C           1.7471    5.6261    2.0396 C.1     1  LIG1       -0.1138
     21 H           2.4098    6.3127    2.5144 H       1  LIG1        0.1232
     22 C          -1.5143    5.6914   -0.1116 C.ar    1  LIG1        0.0421
     23 C          -0.8763    6.7323   -0.7347 C.ar    1  LIG1        0.0361
     24 C          -1.7192    7.8936   -0.8745 C.ar    1  LIG1        0.0537
     25 C          -2.9783    7.7079   -0.3491 C.ar    1  LIG1        0.0440
     26 S          -3.1399    6.1283    0.3336 S.2     1  LIG1       -0.0848
     27 S           0.7783    6.6511   -1.3430 S.3     1  LIG1       -0.1403
     28 H           0.6125    7.6322   -2.2475 H       1  LIG1        0.1072
     29 C          -1.3138    9.0715   -1.5612 C.1     1  LIG1       -0.0674
     30 C          -0.9520   10.0520   -2.1593 C.1     1  LIG1       -0.1138
     31 H          -0.6486   10.9348   -2.6739 H       1  LIG1        0.1232
     32 C          -4.0940    8.6445   -0.3114 C.ar    1  LIG1        0.0415
     33 C          -4.1461    9.9119    0.2093 C.ar    1  LIG1        0.0355
     34 C          -5.4596   10.4995    0.0944 C.ar    1  LIG1        0.0454
     35 C          -6.3553    9.6537   -0.4986 C.ar    1  LIG1       -0.0072
     36 S          -5.6463    8.1648   -0.9476 S.2     1  LIG1       -0.0937
     37 H          -7.3984    9.8543   -0.6941 H       1  LIG1        0.0706
     38 S          -2.7739   10.7309    0.9580 S.3     1  LIG1       -0.1403
     39 H          -3.5288   11.5628    1.6968 H       1  LIG1        0.1072
     40 C          -5.7942   11.7988    0.5729 C.1     1  LIG1       -0.0680
     41 C          -6.0612   12.8957    0.9918 C.1     1  LIG1       -0.1139
     42 H          -6.3075   13.8682    1.3520 H       1  LIG1        0.1232
@<TRIPOS>BOND
     1    31    30    1
     2    28    27    1
     3    30    29    3
     4    11    10    1
     5    29    24    1
     6    10     9    3
     7    27    23    1
     8     8     7    1
     9    36    35   ar
    10    36    32   ar
    11    24    23   ar
    12    24    25   ar
    13     9     3    1
    14     7     2    1
    15    23    22   ar
    16    37    35    1
    17    35    34   ar
    18    16    15   ar
    19    16    12   ar
    20    25    32    1
    21    25    26   ar
    22    32    33   ar
    23     3     2   ar
    24     3     4   ar
    25     2     1   ar
    26    22    15    1
    27    22    26   ar
    28    34    33   ar
    29    34    40    1
    30    15    14   ar
    31    33    38    1
    32     4    12    1
    33     4     5   ar
    34    12    13   ar
    35     1     6    1
    36     1     5   ar
    37    40    41    3
    38    14    13   ar
    39    14    19    1
    40    13    17    1
    41    38    39    1
    42    41    42    1
    43    19    20    3
    44    17    18    1
    45    20    21    1
