@<TRIPOS>MOLECULE
mol_data/opt/cam/geoms/mol2/5ge5ge-5ge5ge-.out
 42 45 0 0 0
SMALL
GASTEIGER

@<TRIPOS>ATOM
      1 C          -1.2649   -1.3424    2.4322 C.ar    1  LIG1       -0.0093
      2 C          -0.9035   -1.6588    1.1600 C.ar    1  LIG1        0.0278
      3 C          -0.5742   -0.4918    0.3795 C.ar    1  LIG1        0.0531
      4 C          -0.6869    0.6753    1.1032 C.ar    1  LIG1        0.0434
      5 S          -1.1999    0.3526    2.7244 S.2     1  LIG1       -0.0937
      6 H          -1.5649   -2.0192    3.2189 H       1  LIG1        0.0705
      7 S          -0.8667   -3.3180    0.5511 S.3     1  LIG1       -0.1409
      8 H          -0.4691   -2.9892   -0.6899 H       1  LIG1        0.1072
      9 C          -0.2222   -0.5477   -0.9973 C.1     1  LIG1       -0.0674
     10 C           0.0680   -0.6309   -2.1633 C.1     1  LIG1       -0.1138
     11 H           0.3338   -0.6757   -3.1946 H       1  LIG1        0.1232
     12 C          -0.4380    2.0421    0.6602 C.ar    1  LIG1        0.0421
     13 C           0.7021    2.5843    0.1280 C.ar    1  LIG1        0.0361
     14 C           0.5661    3.9902   -0.1580 C.ar    1  LIG1        0.0537
     15 C          -0.6691    4.4889    0.1898 C.ar    1  LIG1        0.0440
     16 S          -1.6842    3.2451    0.8303 S.2     1  LIG1       -0.0848
     17 S           2.1787    1.6655   -0.1763 S.3     1  LIG1       -0.1403
     18 H           2.9936    2.7325   -0.1098 H       1  LIG1        0.1072
     19 C           1.5967    4.7688   -0.7538 C.1     1  LIG1       -0.0674
     20 C           2.4843    5.4093   -1.2555 C.1     1  LIG1       -0.1138
     21 H           3.2568    5.9945   -1.6993 H       1  LIG1        0.1232
     22 C          -1.1631    5.8547    0.0611 C.ar    1  LIG1        0.0421
     23 C          -0.6494    7.0128    0.5828 C.ar    1  LIG1        0.0361
     24 C          -1.4493    8.1679    0.2614 C.ar    1  LIG1        0.0537
     25 C          -2.5682    7.8544   -0.4766 C.ar    1  LIG1        0.0440
     26 S          -2.6360    6.1607   -0.8148 S.2     1  LIG1       -0.0848
     27 S           0.8297    7.0890    1.5436 S.3     1  LIG1       -0.1403
     28 H           0.4818    8.2084    2.2017 H       1  LIG1        0.1072
     29 C          -1.1031    9.4905    0.6542 C.1     1  LIG1       -0.0674
     30 C          -0.7924   10.6008    1.0011 C.1     1  LIG1       -0.1138
     31 H          -0.5353   11.5919    1.2972 H       1  LIG1        0.1232
     32 C          -3.6081    8.7494   -0.9707 C.ar    1  LIG1        0.0415
     33 C          -4.4260    9.5954   -0.2680 C.ar    1  LIG1        0.0355
     34 C          -5.3668   10.2839   -1.1191 C.ar    1  LIG1        0.0454
     35 C          -5.2333    9.9274   -2.4323 C.ar    1  LIG1       -0.0072
     36 S          -3.9779    8.7928   -2.6747 S.2     1  LIG1       -0.0937
     37 H          -5.8187   10.2947   -3.2623 H       1  LIG1        0.0706
     38 S          -4.3551    9.8086    1.4828 S.3     1  LIG1       -0.1403
     39 H          -5.6268   10.2291    1.5983 H       1  LIG1        0.1072
     40 C          -6.3437   11.2046   -0.6428 C.1     1  LIG1       -0.0680
     41 C          -7.1693   11.9729   -0.2208 C.1     1  LIG1       -0.1139
     42 H          -7.8995   12.6604    0.1403 H       1  LIG1        0.1232
@<TRIPOS>BOND
     1    37    35    1
     2    11    10    1
     3    36    35   ar
     4    36    32   ar
     5    35    34   ar
     6    10     9    3
     7    21    20    1
     8    20    19    3
     9    34    40    1
    10    34    33   ar
    11     9     3    1
    12    32    25    1
    13    32    33   ar
    14    26    25   ar
    15    26    22   ar
    16    19    14    1
    17     8     7    1
    18    40    41    3
    19    25    24   ar
    20    33    38    1
    21    41    42    1
    22    17    18    1
    23    17    13    1
    24    14    13   ar
    25    14    15   ar
    26    22    15    1
    27    22    23   ar
    28    13    12   ar
    29    15    16   ar
    30    24    23   ar
    31    24    29    1
    32     3     4   ar
    33     3     2   ar
    34     7     2    1
    35    23    27    1
    36    29    30    3
    37    12    16   ar
    38    12     4    1
    39    30    31    1
    40     4     5   ar
    41     2     1   ar
    42    38    39    1
    43    27    28    1
    44     1     5   ar
    45     1     6    1
