@<TRIPOS>MOLECULE
mol_data/opt/cam/geoms/mol2/5ge5ge-5ge-.out
 32 34 0 0 0
SMALL
GASTEIGER

@<TRIPOS>ATOM
      1 C          -1.9339   -1.8340   -0.5681 C.ar    1  LIG1       -0.0093
      2 C          -0.8380   -1.8176    0.2365 C.ar    1  LIG1        0.0278
      3 C          -0.2873   -0.4928    0.3836 C.ar    1  LIG1        0.0531
      4 C          -0.9869    0.4515   -0.3356 C.ar    1  LIG1        0.0434
      5 S          -2.3144   -0.2707   -1.1803 S.2     1  LIG1       -0.0937
      6 H          -2.5407   -2.6863   -0.8368 H       1  LIG1        0.0705
      7 S          -0.1883   -3.2668    1.0131 S.3     1  LIG1       -0.1409
      8 H           0.7885   -2.6266    1.6784 H       1  LIG1        0.1072
      9 C           0.8224   -0.1981    1.2228 C.1     1  LIG1       -0.0674
     10 C           1.7606    0.0171    1.9467 C.1     1  LIG1       -0.1138
     11 H           2.5931    0.2368    2.5751 H       1  LIG1        0.1232
     12 C          -0.7337    1.8835   -0.4372 C.ar    1  LIG1        0.0421
     13 C           0.3991    2.5346   -0.8498 C.ar    1  LIG1        0.0361
     14 C           0.2398    3.9673   -0.8663 C.ar    1  LIG1        0.0537
     15 C          -1.0124    4.3710   -0.4601 C.ar    1  LIG1        0.0440
     16 S          -1.9961    3.0137   -0.0387 S.2     1  LIG1       -0.0848
     17 S           1.8780    1.7105   -1.3492 S.3     1  LIG1       -0.1403
     18 H           2.3338    2.7361   -2.0896 H       1  LIG1        0.1072
     19 C           1.2454    4.8571   -1.3360 C.1     1  LIG1       -0.0674
     20 C           2.1074    5.5882   -1.7513 C.1     1  LIG1       -0.1138
     21 H           2.8607    6.2556   -2.1025 H       1  LIG1        0.1232
     22 C          -1.5399    5.7256   -0.3565 C.ar    1  LIG1        0.0415
     23 C          -1.0511    6.7957    0.3476 C.ar    1  LIG1        0.0355
     24 C          -1.8943    7.9617    0.2312 C.ar    1  LIG1        0.0454
     25 C          -2.9943    7.7297   -0.5469 C.ar    1  LIG1       -0.0072
     26 S          -3.0287    6.1375   -1.1678 S.2     1  LIG1       -0.0937
     27 H          -3.7769    8.4357   -0.7828 H       1  LIG1        0.0706
     28 S           0.4288    6.7542    1.3082 S.3     1  LIG1       -0.1403
     29 H           0.0737    7.7762    2.1064 H       1  LIG1        0.1072
     30 C          -1.6292    9.2026    0.8783 C.1     1  LIG1       -0.0680
     31 C          -1.3939   10.2412    1.4405 C.1     1  LIG1       -0.1139
     32 H          -1.1922   11.1677    1.9274 H       1  LIG1        0.1232
@<TRIPOS>BOND
     1    21    20    1
     2    18    17    1
     3    20    19    3
     4    17    13    1
     5    19    14    1
     6     5     1   ar
     7     5     4   ar
     8    26    25   ar
     9    26    22   ar
    10    14    13   ar
    11    14    15   ar
    12    13    12   ar
    13     6     1    1
    14    27    25    1
    15     1     2   ar
    16    25    24   ar
    17    15    22    1
    18    15    16   ar
    19    12     4    1
    20    12    16   ar
    21    22    23   ar
    22     4     3   ar
    23    24    23   ar
    24    24    30    1
    25     2     3   ar
    26     2     7    1
    27    23    28    1
    28     3     9    1
    29    30    31    3
    30     7     8    1
    31     9    10    3
    32    28    29    1
    33    31    32    1
    34    10    11    1
