@<TRIPOS>MOLECULE
mol_data/opt/cam/geoms/mol2/5ge5ge5ge-.out
 32 34 0 0 0
SMALL
GASTEIGER

@<TRIPOS>ATOM
      1 C          -1.8676   -1.5381    1.5539 C.ar    1  LIG1       -0.0093
      2 C          -0.9121   -1.7893    0.6195 C.ar    1  LIG1        0.0278
      3 C          -0.3557   -0.5787    0.0679 C.ar    1  LIG1        0.0531
      4 C          -0.9076    0.5555    0.6225 C.ar    1  LIG1        0.0434
      5 S          -2.1048    0.1482    1.8043 S.2     1  LIG1       -0.0937
      6 H          -2.4461   -2.2582    2.1138 H       1  LIG1        0.0705
      7 S          -0.4361   -3.4232    0.1411 S.3     1  LIG1       -0.1409
      8 H           0.4702   -3.0301   -0.7702 H       1  LIG1        0.1072
      9 C           0.6178   -0.5691   -0.9689 C.1     1  LIG1       -0.0674
     10 C           1.4385   -0.5975   -1.8500 C.1     1  LIG1       -0.1138
     11 H           2.1698   -0.5932   -2.6255 H       1  LIG1        0.1232
     12 C          -0.6027    1.9498    0.3242 C.ar    1  LIG1        0.0421
     13 C           0.5973    2.6070    0.3928 C.ar    1  LIG1        0.0361
     14 C           0.4863    4.0021    0.0476 C.ar    1  LIG1        0.0537
     15 C          -0.8041    4.3777   -0.2505 C.ar    1  LIG1        0.0440
     16 S          -1.8825    3.0307   -0.1491 S.2     1  LIG1       -0.0848
     17 S           2.1168    1.8341    0.8522 S.3     1  LIG1       -0.1403
     18 H           2.6972    2.9681    1.2816 H       1  LIG1        0.1072
     19 C           1.5994    4.8868    0.0050 C.1     1  LIG1       -0.0674
     20 C           2.5553    5.6184   -0.0205 C.1     1  LIG1       -0.1138
     21 H           3.3882    6.2829   -0.0502 H       1  LIG1        0.1232
     22 C          -1.3006    5.6962   -0.6259 C.ar    1  LIG1        0.0415
     23 C          -1.2144    6.8803    0.0591 C.ar    1  LIG1        0.0355
     24 C          -1.8784    7.9627   -0.6272 C.ar    1  LIG1        0.0454
     25 C          -2.4508    7.5572   -1.8008 C.ar    1  LIG1       -0.0072
     26 S          -2.1873    5.8975   -2.1145 S.2     1  LIG1       -0.0937
     27 H          -3.0074    8.1723   -2.4924 H       1  LIG1        0.0706
     28 S          -0.4002    7.0636    1.6147 S.3     1  LIG1       -0.1403
     29 H          -1.1173    8.1360    1.9935 H       1  LIG1        0.1072
     30 C          -1.9574    9.2933   -0.1249 C.1     1  LIG1       -0.0680
     31 C          -2.0228   10.4104    0.3196 C.1     1  LIG1       -0.1139
     32 H          -2.0803   11.4046    0.6997 H       1  LIG1        0.1232
@<TRIPOS>BOND
     1    11    10    1
     2    27    25    1
     3    26    25   ar
     4    26    22   ar
     5    10     9    3
     6    25    24   ar
     7     9     3    1
     8     8     7    1
     9    24    30    1
    10    24    23   ar
    11    22    15    1
    12    22    23   ar
    13    15    16   ar
    14    15    14   ar
    15    16    12   ar
    16    30    31    3
    17    21    20    1
    18    20    19    3
    19    19    14    1
    20    14    13   ar
    21    23    28    1
    22     3     2   ar
    23     3     4   ar
    24     7     2    1
    25    31    32    1
    26    12    13   ar
    27    12     4    1
    28    13    17    1
    29     2     1   ar
    30     4     5   ar
    31    17    18    1
    32     1     5   ar
    33     1     6    1
    34    28    29    1
