@<TRIPOS>MOLECULE
mol_data/opt/cam/geoms/mol2/5ge5ge5ge.out
 32 34 0 0 0
SMALL
GASTEIGER

@<TRIPOS>ATOM
      1 C          -1.8956   -1.8363    0.6440 C.ar    1  LIG1       -0.0093
      2 C          -0.8031   -1.8227   -0.1653 C.ar    1  LIG1        0.0278
      3 C          -0.2619   -0.4962   -0.3312 C.ar    1  LIG1        0.0531
      4 C          -0.9649    0.4524    0.3791 C.ar    1  LIG1        0.0434
      5 S          -2.2841   -0.2680    1.2383 S.2     1  LIG1       -0.0937
      6 H          -2.4956   -2.6892    0.9258 H       1  LIG1        0.0705
      7 S          -0.1469   -3.2771   -0.9264 S.3     1  LIG1       -0.1409
      8 H           0.8228   -2.6388   -1.6038 H       1  LIG1        0.1072
      9 C           0.8423   -0.2046   -1.1786 C.1     1  LIG1       -0.0674
     10 C           1.7761    0.0078   -1.9091 C.1     1  LIG1       -0.1138
     11 H           2.6046    0.2251   -2.5436 H       1  LIG1        0.1232
     12 C          -0.7209    1.8872    0.4618 C.ar    1  LIG1        0.0421
     13 C           0.4092    2.5509    0.8615 C.ar    1  LIG1        0.0361
     14 C           0.2404    3.9827    0.8608 C.ar    1  LIG1        0.0537
     15 C          -1.0161    4.3729    0.4547 C.ar    1  LIG1        0.0440
     16 S          -1.9925    3.0039    0.0544 S.2     1  LIG1       -0.0848
     17 S           1.8956    1.7430    1.3650 S.3     1  LIG1       -0.1403
     18 H           2.3476    2.7808    2.0906 H       1  LIG1        0.1072
     19 C           1.2419    4.8849    1.3151 C.1     1  LIG1       -0.0674
     20 C           2.1007    5.6268    1.7177 C.1     1  LIG1       -0.1138
     21 H           2.8509    6.3036    2.0574 H       1  LIG1        0.1232
     22 C          -1.5531    5.7225    0.3364 C.ar    1  LIG1        0.0415
     23 C          -1.0744    6.7870   -0.3830 C.ar    1  LIG1        0.0355
     24 C          -1.9249    7.9487   -0.2777 C.ar    1  LIG1        0.0454
     25 C          -3.0201    7.7192    0.5078 C.ar    1  LIG1       -0.0072
     26 S          -3.0413    6.1347    1.1486 S.2     1  LIG1       -0.0937
     27 H          -3.8064    8.4228    0.7381 H       1  LIG1        0.0706
     28 S           0.4018    6.7432   -1.3492 S.3     1  LIG1       -0.1403
     29 H           0.0367    7.7528   -2.1585 H       1  LIG1        0.1072
     30 C          -1.6707    9.1831   -0.9414 C.1     1  LIG1       -0.0680
     31 C          -1.4447   10.2161   -1.5175 C.1     1  LIG1       -0.1139
     32 H          -1.2511   11.1378   -2.0167 H       1  LIG1        0.1232
@<TRIPOS>BOND
     1    11    10    1
     2    29    28    1
     3    32    31    1
     4    10     9    3
     5     8     7    1
     6    31    30    3
     7    28    23    1
     8     9     3    1
     9    30    24    1
    10     7     2    1
    11    23    24   ar
    12    23    22   ar
    13     3     2   ar
    14     3     4   ar
    15    24    25   ar
    16     2     1   ar
    17    16    15   ar
    18    16    12   ar
    19    22    15    1
    20    22    26   ar
    21     4    12    1
    22     4     5   ar
    23    15    14   ar
    24    12    13   ar
    25    25    27    1
    26    25    26   ar
    27     1     6    1
    28     1     5   ar
    29    14    13   ar
    30    14    19    1
    31    13    17    1
    32    19    20    3
    33    17    18    1
    34    20    21    1
