@<TRIPOS>MOLECULE
mol_data/opt/cam/geoms/mol2/5gf.out
 11 11 0 0 0
SMALL
GASTEIGER

@<TRIPOS>ATOM
      1 C          -2.1275   -1.6730    0.0000 C.ar    1  LIG1       -0.0075
      2 C          -0.7681   -1.6551   -0.0003 C.ar    1  LIG1        0.0533
      3 C          -0.2541   -0.3147   -0.0001 C.ar    1  LIG1        0.1369
      4 C          -1.2286    0.6335    0.0003 C.ar    1  LIG1        0.0183
      5 S          -2.8003   -0.0845    0.0005 S.2     1  LIG1       -0.1002
      6 H          -2.7741   -2.5380   -0.0000 H       1  LIG1        0.0705
      7 H          -1.1101    1.7074    0.0005 H       1  LIG1        0.0730
      8 S           0.2589   -3.0951   -0.0008 S.3     1  LIG1       -0.1386
      9 H           1.4173   -2.4167   -0.0012 H       1  LIG1        0.1072
     10 O           1.0929   -0.1266   -0.0003 O.3     1  LIG1       -0.5051
     11 H           1.2915    0.8163   -0.0003 H       1  LIG1        0.2922
@<TRIPOS>BOND
     1     9     8    1
     2     8     2    1
     3    10    11    1
     4    10     3    1
     5     2     3   ar
     6     2     1   ar
     7     3     4   ar
     8     6     1    1
     9     1     5   ar
    10     4     5   ar
    11     4     7    1
