@<TRIPOS>MOLECULE
mol_data/opt/cam/geoms/mol2/5gf5gf5gf.out
 29 31 0 0 0
SMALL
GASTEIGER

@<TRIPOS>ATOM
      1 C          -2.1006   -1.8558    0.2424 C.ar    1  LIG1       -0.0069
      2 C          -0.8551   -1.8441   -0.3004 C.ar    1  LIG1        0.0539
      3 C          -0.2824   -0.5280   -0.3155 C.ar    1  LIG1        0.1452
      4 C          -1.1065    0.4283    0.2270 C.ar    1  LIG1        0.0696
      5 S          -2.6003   -0.2933    0.7684 S.2     1  LIG1       -0.0912
      6 H          -2.7489   -2.7081    0.3836 H       1  LIG1        0.0706
      7 S          -0.0175   -3.2625   -0.9395 S.3     1  LIG1       -0.1386
      8 H           1.1183   -2.6002   -1.2145 H       1  LIG1        0.1072
      9 O           0.9333   -0.3477   -0.8767 O.3     1  LIG1       -0.5045
     10 H           1.4015    0.3910   -0.4472 H       1  LIG1        0.2922
     11 C          -0.9006    1.8656    0.3044 C.ar    1  LIG1        0.0468
     12 C           0.2187    2.5667    0.6632 C.ar    1  LIG1        0.0623
     13 C           0.0553    3.9860    0.5746 C.ar    1  LIG1        0.1458
     14 C          -1.1983    4.3628    0.1621 C.ar    1  LIG1        0.0701
     15 S          -2.1775    2.9550   -0.1598 S.2     1  LIG1       -0.0822
     16 S           1.7082    1.8348    1.2792 S.3     1  LIG1       -0.1380
     17 H           2.4868    2.8866    0.9741 H       1  LIG1        0.1072
     18 O           1.0840    4.7823    0.9352 O.3     1  LIG1       -0.5045
     19 H           1.0373    5.6285    0.4532 H       1  LIG1        0.2922
     20 C          -1.7662    5.6993    0.0710 C.ar    1  LIG1        0.0462
     21 C          -1.2201    6.8493   -0.4359 C.ar    1  LIG1        0.0617
     22 C          -2.0890    7.9806   -0.3139 C.ar    1  LIG1        0.1376
     23 C          -3.2814    7.6801    0.2631 C.ar    1  LIG1        0.0189
     24 S          -3.3667    6.0083    0.6894 S.2     1  LIG1       -0.0912
     25 H          -4.1140    8.3415    0.4541 H       1  LIG1        0.0731
     26 S           0.3474    6.9434   -1.2564 S.3     1  LIG1       -0.1380
     27 H           0.5825    8.2292   -0.9458 H       1  LIG1        0.1072
     28 O          -1.6551    9.1849   -0.7671 O.3     1  LIG1       -0.5051
     29 H          -2.3321    9.8548   -0.6170 H       1  LIG1        0.2922
@<TRIPOS>BOND
     1    26    27    1
     2    26    21    1
     3     8     7    1
     4     7     2    1
     5     9    10    1
     6     9     3    1
     7    28    29    1
     8    28    22    1
     9    21    22   ar
    10    21    20   ar
    11     3     2   ar
    12     3     4   ar
    13    22    23   ar
    14     2     1   ar
    15    15    14   ar
    16    15    11   ar
    17    20    14    1
    18    20    24   ar
    19    14    13   ar
    20     4    11    1
    21     4     5   ar
    22     1     6    1
    23     1     5   ar
    24    23    25    1
    25    23    24   ar
    26    11    12   ar
    27    19    18    1
    28    13    12   ar
    29    13    18    1
    30    12    16    1
    31    17    16    1
