@<TRIPOS>MOLECULE
mol_data/opt/cam/geoms/mol2/5gf5gf-5gf-5gf-.out
 38 41 0 0 0
SMALL
GASTEIGER

@<TRIPOS>ATOM
      1 C          -1.6543   -1.8527    1.2022 C.ar    1  LIG1       -0.0069
      2 C          -0.9593   -1.8783    0.0350 C.ar    1  LIG1        0.0539
      3 C          -0.5105   -0.5727   -0.3580 C.ar    1  LIG1        0.1452
      4 C          -0.8699    0.4136    0.5283 C.ar    1  LIG1        0.0696
      5 S          -1.7624   -0.2659    1.8647 S.2     1  LIG1       -0.0912
      6 H          -2.0932   -2.6893    1.7256 H       1  LIG1        0.0706
      7 S          -0.6420   -3.3296   -0.9215 S.3     1  LIG1       -0.1386
      8 H           0.1074   -2.6919   -1.8358 H       1  LIG1        0.1072
      9 O           0.1495   -0.4292   -1.5282 O.3     1  LIG1       -0.5045
     10 H           0.7817    0.3104   -1.4731 H       1  LIG1        0.2922
     11 C          -0.6694    1.8498    0.4147 C.ar    1  LIG1        0.0468
     12 C           0.4482    2.5456    0.0402 C.ar    1  LIG1        0.0623
     13 C           0.2543    3.9630    0.0102 C.ar    1  LIG1        0.1458
     14 C          -1.0066    4.3459    0.3950 C.ar    1  LIG1        0.0702
     15 S          -1.9721    2.9445    0.7848 S.2     1  LIG1       -0.0822
     16 S           2.0212    1.8067   -0.3016 S.3     1  LIG1       -0.1380
     17 H           2.4672    2.8150   -1.0686 H       1  LIG1        0.1072
     18 O           1.2654    4.7465   -0.4202 O.3     1  LIG1       -0.5045
     19 H           1.2250    5.6244    0.0018 H       1  LIG1        0.2922
     20 C          -1.5845    5.6791    0.4222 C.ar    1  LIG1        0.0468
     21 C          -1.0384    6.8555    0.8602 C.ar    1  LIG1        0.0623
     22 C          -1.8997    7.9845    0.6824 C.ar    1  LIG1        0.1458
     23 C          -3.1102    7.6603    0.1226 C.ar    1  LIG1        0.0701
     24 S          -3.1774    5.9528   -0.2276 S.2     1  LIG1       -0.0822
     25 S           0.5321    6.9979    1.6638 S.3     1  LIG1       -0.1380
     26 H           0.6791    8.3060    1.3939 H       1  LIG1        0.1072
     27 O          -1.4797    9.1950    1.1072 O.3     1  LIG1       -0.5045
     28 H          -1.9007    9.9003    0.5818 H       1  LIG1        0.2922
     29 C          -4.2700    8.5106   -0.0991 C.ar    1  LIG1        0.0462
     30 C          -4.3363    9.7796   -0.6114 C.ar    1  LIG1        0.0617
     31 C          -5.6698   10.2994   -0.6423 C.ar    1  LIG1        0.1376
     32 C          -6.5965    9.4233   -0.1743 C.ar    1  LIG1        0.0189
     33 S          -5.8611    7.9455    0.3339 S.2     1  LIG1       -0.0912
     34 H          -7.6661    9.5591   -0.1065 H       1  LIG1        0.0731
     35 S          -2.9553   10.6730   -1.2697 S.3     1  LIG1       -0.1380
     36 H          -3.4596   11.8940   -1.0257 H       1  LIG1        0.1072
     37 O          -5.8662   11.5570   -1.1154 O.3     1  LIG1       -0.5051
     38 H          -6.8030   11.7809   -1.0730 H       1  LIG1        0.2922
@<TRIPOS>BOND
     1     8     7    1
     2     9    10    1
     3     9     3    1
     4    35    36    1
     5    35    30    1
     6    37    38    1
     7    37    31    1
     8    17    16    1
     9     7     2    1
    10    31    30   ar
    11    31    32   ar
    12    30    29   ar
    13    18    19    1
    14    18    13    1
    15     3     2   ar
    16     3     4   ar
    17    16    12    1
    18    24    23   ar
    19    24    20   ar
    20    32    34    1
    21    32    33   ar
    22    29    23    1
    23    29    33   ar
    24    13    12   ar
    25    13    14   ar
    26     2     1   ar
    27    12    11   ar
    28    23    22   ar
    29    14    20    1
    30    14    15   ar
    31    11     4    1
    32    11    15   ar
    33    20    21   ar
    34     4     5   ar
    35    28    27    1
    36    22    21   ar
    37    22    27    1
    38    21    25    1
    39     1     6    1
    40     1     5   ar
    41    26    25    1
