@<TRIPOS>MOLECULE
mol_data/opt/cam/geoms/mol2/5gf5gf-5gf.out
 29 31 0 0 0
SMALL
GASTEIGER

@<TRIPOS>ATOM
      1 C          -1.9182   -1.7835    1.0466 C.ar    1  LIG1       -0.0069
      2 C          -0.9211   -1.8615    0.1271 C.ar    1  LIG1        0.0539
      3 C          -0.3936   -0.5703   -0.2122 C.ar    1  LIG1        0.1452
      4 C          -0.9997    0.4586    0.4673 C.ar    1  LIG1        0.0696
      5 S          -2.2268   -0.1622    1.5413 S.2     1  LIG1       -0.0912
      6 H          -2.4780   -2.5985    1.4814 H       1  LIG1        0.0706
      7 S          -0.3312   -3.3594   -0.6011 S.3     1  LIG1       -0.1386
      8 H           0.6511   -2.7600   -1.2940 H       1  LIG1        0.1072
      9 O           0.5693   -0.4811   -1.1558 O.3     1  LIG1       -0.5045
     10 H           1.1513    0.2797   -0.9764 H       1  LIG1        0.2922
     11 C          -0.7908    1.8900    0.3160 C.ar    1  LIG1        0.0468
     12 C           0.3792    2.5941    0.2233 C.ar    1  LIG1        0.0623
     13 C           0.1859    4.0003    0.0407 C.ar    1  LIG1        0.1458
     14 C          -1.1358    4.3685    0.0264 C.ar    1  LIG1        0.0701
     15 S          -2.1565    2.9670    0.2282 S.2     1  LIG1       -0.0822
     16 S           1.9926    1.8830    0.3914 S.3     1  LIG1       -0.1380
     17 H           2.6273    2.8560   -0.2826 H       1  LIG1        0.1072
     18 O           1.2677    4.7880   -0.1384 O.3     1  LIG1       -0.5045
     19 H           1.1002    5.6802    0.2177 H       1  LIG1        0.2922
     20 C          -1.7145    5.6827   -0.2067 C.ar    1  LIG1        0.0462
     21 C          -1.3356    6.9032    0.2878 C.ar    1  LIG1        0.0617
     22 C          -2.1402    7.9793   -0.2059 C.ar    1  LIG1        0.1376
     23 C          -3.1235    7.5696   -1.0489 C.ar    1  LIG1        0.0189
     24 S          -3.0798    5.8581   -1.2765 S.2     1  LIG1       -0.0912
     25 H          -3.8725    8.1732   -1.5408 H       1  LIG1        0.0731
     26 S          -0.0586    7.1491    1.4905 S.3     1  LIG1       -0.1380
     27 H           0.2325    8.4063    1.1170 H       1  LIG1        0.1072
     28 O          -1.8551    9.2435    0.2001 O.3     1  LIG1       -0.5051
     29 H          -2.4664    9.8657   -0.2106 H       1  LIG1        0.2922
@<TRIPOS>BOND
     1    25    23    1
     2     8     7    1
     3    24    23   ar
     4    24    20   ar
     5     9    10    1
     6     9     3    1
     7    23    22   ar
     8     7     2    1
     9    17    16    1
    10     3     2   ar
    11     3     4   ar
    12    29    28    1
    13    20    14    1
    14    20    21   ar
    15    22    28    1
    16    22    21   ar
    17    18    13    1
    18    18    19    1
    19    14    13   ar
    20    14    15   ar
    21    13    12   ar
    22     2     1   ar
    23    12    11   ar
    24    12    16    1
    25    15    11   ar
    26    21    26    1
    27    11     4    1
    28     4     5   ar
    29     1     6    1
    30     1     5   ar
    31    27    26    1
