@<TRIPOS>MOLECULE
mol_data/opt/cam/geoms/mol2/5gf5gf-5gf5gf-.out
 38 41 0 0 0
SMALL
GASTEIGER

@<TRIPOS>ATOM
      1 C          -1.5665   -1.7115    1.6873 C.ar    1  LIG1       -0.0069
      2 C          -0.9966   -1.8542    0.4623 C.ar    1  LIG1        0.0539
      3 C          -0.5786   -0.5975   -0.0912 C.ar    1  LIG1        0.1452
      4 C          -0.8347    0.4704    0.7344 C.ar    1  LIG1        0.0696
      5 S          -1.5898   -0.0704    2.2112 S.2     1  LIG1       -0.0912
      6 H          -1.9569   -2.4898    2.3265 H       1  LIG1        0.0706
      7 S          -0.7944   -3.3907   -0.3864 S.3     1  LIG1       -0.1386
      8 H          -0.1398   -2.8513   -1.4280 H       1  LIG1        0.1072
      9 O          -0.0428   -0.5710   -1.3314 O.3     1  LIG1       -0.5045
     10 H           0.5983    0.1587   -1.4089 H       1  LIG1        0.2922
     11 C          -0.6316    1.8864    0.4701 C.ar    1  LIG1        0.0468
     12 C           0.4503    2.5221   -0.0760 C.ar    1  LIG1        0.0623
     13 C           0.2693    3.9343   -0.2207 C.ar    1  LIG1        0.1458
     14 C          -0.9427    4.3759    0.2483 C.ar    1  LIG1        0.0702
     15 S          -1.8788    3.0366    0.8627 S.2     1  LIG1       -0.0822
     16 S           1.9725    1.7227   -0.5009 S.3     1  LIG1       -0.1380
     17 H           2.3590    2.6565   -1.3856 H       1  LIG1        0.1072
     18 O           1.2400    4.6544   -0.8215 O.3     1  LIG1       -0.5045
     19 H           1.2571    5.5654   -0.4741 H       1  LIG1        0.2922
     20 C          -1.5006    5.7176    0.2017 C.ar    1  LIG1        0.0468
     21 C          -0.9043    6.9186    0.4780 C.ar    1  LIG1        0.0623
     22 C          -1.7670    8.0426    0.2778 C.ar    1  LIG1        0.1458
     23 C          -3.0322    7.6910   -0.1202 C.ar    1  LIG1        0.0701
     24 S          -3.1623    5.9568   -0.2631 S.2     1  LIG1       -0.0822
     25 S           0.7422    7.1015    1.1028 S.3     1  LIG1       -0.1380
     26 H           0.8947    8.3669    0.6792 H       1  LIG1        0.1072
     27 O          -1.2666    9.2853    0.4452 O.3     1  LIG1       -0.5045
     28 H          -1.9610    9.8900    0.7671 H       1  LIG1        0.2922
     29 C          -4.1472    8.5531   -0.4815 C.ar    1  LIG1        0.0462
     30 C          -4.6067    9.6876    0.1344 C.ar    1  LIG1        0.0617
     31 C          -5.7159   10.2821   -0.5480 C.ar    1  LIG1        0.1376
     32 C          -6.0955    9.5918   -1.6548 C.ar    1  LIG1        0.0189
     33 S          -5.0948    8.2065   -1.9028 S.2     1  LIG1       -0.0912
     34 H          -6.9081    9.8140   -2.3313 H       1  LIG1        0.0731
     35 S          -3.9874   10.3213    1.6681 S.3     1  LIG1       -0.1380
     36 H          -4.3274   11.5988    1.4290 H       1  LIG1        0.1072
     37 O          -6.2537   11.4222   -0.0435 O.3     1  LIG1       -0.5051
     38 H          -6.9846   11.7148   -0.6000 H       1  LIG1        0.2922
@<TRIPOS>BOND
     1    34    32    1
     2    33    32   ar
     3    33    29   ar
     4    32    31   ar
     5     8     7    1
     6    10     9    1
     7    17    16    1
     8     9     3    1
     9    18    19    1
    10    18    13    1
    11    38    37    1
    12    31    37    1
    13    31    30   ar
    14    16    12    1
    15    29    23    1
    16    29    30   ar
    17     7     2    1
    18    24    23   ar
    19    24    20   ar
    20    13    12   ar
    21    13    14   ar
    22    23    22   ar
    23     3     2   ar
    24     3     4   ar
    25    12    11   ar
    26    30    35    1
    27    20    14    1
    28    20    21   ar
    29    14    15   ar
    30    22    27    1
    31    22    21   ar
    32    27    28    1
    33     2     1   ar
    34    11     4    1
    35    11    15   ar
    36    21    25    1
    37    26    25    1
    38     4     5   ar
    39    36    35    1
    40     1     5   ar
    41     1     6    1
