@<TRIPOS>MOLECULE
mol_data/opt/cam/geoms/mol2/5gf5gf-5gf-.out
 29 31 0 0 0
SMALL
GASTEIGER

@<TRIPOS>ATOM
      1 C          -1.9402   -1.7914    0.9869 C.ar    1  LIG1       -0.0069
      2 C          -0.9208   -1.8624    0.0917 C.ar    1  LIG1        0.0539
      3 C          -0.3860   -0.5685   -0.2255 C.ar    1  LIG1        0.1452
      4 C          -1.0093    0.4552    0.4462 C.ar    1  LIG1        0.0696
      5 S          -2.2618   -0.1737    1.4854 S.2     1  LIG1       -0.0912
      6 H          -2.5100   -2.6096    1.4021 H       1  LIG1        0.0706
      7 S          -0.3123   -3.3548   -0.6325 S.3     1  LIG1       -0.1386
      8 H           0.6863   -2.7500   -1.2968 H       1  LIG1        0.1072
      9 O           0.5997   -0.4722   -1.1446 O.3     1  LIG1       -0.5045
     10 H           1.1766    0.2876   -0.9456 H       1  LIG1        0.2922
     11 C          -0.7976    1.8878    0.3102 C.ar    1  LIG1        0.0468
     12 C           0.3739    2.5931    0.2511 C.ar    1  LIG1        0.0623
     13 C           0.1841    4.0004    0.0739 C.ar    1  LIG1        0.1458
     14 C          -1.1370    4.3682    0.0298 C.ar    1  LIG1        0.0701
     15 S          -2.1614    2.9648    0.1967 S.2     1  LIG1       -0.0822
     16 S           1.9831    1.8816    0.4536 S.3     1  LIG1       -0.1380
     17 H           2.6335    2.8596   -0.1978 H       1  LIG1        0.1072
     18 O           1.2695    4.7899   -0.0731 O.3     1  LIG1       -0.5045
     19 H           1.0928    5.6795    0.2851 H       1  LIG1        0.2922
     20 C          -1.7107    5.6837   -0.2080 C.ar    1  LIG1        0.0462
     21 C          -1.3448    6.9008    0.3042 C.ar    1  LIG1        0.0617
     22 C          -2.1379    7.9800   -0.2014 C.ar    1  LIG1        0.1376
     23 C          -3.1000    7.5759   -1.0710 C.ar    1  LIG1        0.0189
     24 S          -3.0496    5.8660   -1.3096 S.2     1  LIG1       -0.0912
     25 H          -3.8371    8.1826   -1.5768 H       1  LIG1        0.0731
     26 S          -0.0977    7.1388    1.5396 S.3     1  LIG1       -0.1380
     27 H           0.2015    8.3988    1.1822 H       1  LIG1        0.1072
     28 O          -1.8635    9.2414    0.2205 O.3     1  LIG1       -0.5051
     29 H          -2.4651    9.8662   -0.2005 H       1  LIG1        0.2922
@<TRIPOS>BOND
     1    25    23    1
     2    24    23   ar
     3    24    20   ar
     4     8     7    1
     5     9    10    1
     6     9     3    1
     7    23    22   ar
     8     7     2    1
     9     3     2   ar
    10     3     4   ar
    11    20    14    1
    12    20    21   ar
    13    22    28    1
    14    22    21   ar
    15    29    28    1
    16    17    16    1
    17    18    13    1
    18    18    19    1
    19    14    13   ar
    20    14    15   ar
    21    13    12   ar
    22     2     1   ar
    23    15    11   ar
    24    12    11   ar
    25    12    16    1
    26    21    26    1
    27    11     4    1
    28     4     5   ar
    29     1     6    1
    30     1     5   ar
    31    27    26    1
