@<TRIPOS>MOLECULE
mol_data/opt/cam/geoms/mol2/5gf5gf5gf5gf-.out
 38 41 0 0 0
SMALL
GASTEIGER

@<TRIPOS>ATOM
      1 C          -2.1280   -1.8888    0.2154 C.ar    1  LIG1       -0.0069
      2 C          -0.8408   -1.9118   -0.2191 C.ar    1  LIG1        0.0539
      3 C          -0.2470   -0.6050   -0.2253 C.ar    1  LIG1        0.1452
      4 C          -1.0984    0.3795    0.2155 C.ar    1  LIG1        0.0696
      5 S          -2.6445   -0.3036    0.6488 S.2     1  LIG1       -0.0912
      6 H          -2.8000   -2.7270    0.3265 H       1  LIG1        0.0706
      7 S           0.0248   -3.3614   -0.7400 S.3     1  LIG1       -0.1386
      8 H           1.1880   -2.7220   -0.9460 H       1  LIG1        0.1072
      9 O           1.0146   -0.4596   -0.6862 O.3     1  LIG1       -0.5045
     10 H           1.4570    0.2856   -0.2408 H       1  LIG1        0.2922
     11 C          -0.8763    1.8156    0.2649 C.ar    1  LIG1        0.0468
     12 C           0.2206    2.5120    0.6953 C.ar    1  LIG1        0.0623
     13 C           0.0898    3.9296    0.5487 C.ar    1  LIG1        0.1458
     14 C          -1.1178    4.3103    0.0173 C.ar    1  LIG1        0.0702
     15 S          -2.0912    2.9066   -0.3400 S.2     1  LIG1       -0.0822
     16 S           1.6386    1.7781    1.4598 S.3     1  LIG1       -0.1380
     17 H           2.4606    2.8062    1.1896 H       1  LIG1        0.1072
     18 O           1.0970    4.7199    0.9754 O.3     1  LIG1       -0.5045
     19 H           1.0985    5.5640    0.4876 H       1  LIG1        0.2922
     20 C          -1.6492    5.6502   -0.1679 C.ar    1  LIG1        0.0468
     21 C          -1.0351    6.7721   -0.6562 C.ar    1  LIG1        0.0623
     22 C          -1.8740    7.9317   -0.6450 C.ar    1  LIG1        0.1458
     23 C          -3.1348    7.6840   -0.1627 C.ar    1  LIG1        0.0701
     24 S          -3.2807    6.0143    0.3218 S.2     1  LIG1       -0.0822
     25 S           0.5984    6.8097   -1.3373 S.3     1  LIG1       -0.1380
     26 H           0.7679    8.1303   -1.1558 H       1  LIG1        0.1072
     27 O          -1.3847    9.0916   -1.1317 O.3     1  LIG1       -0.5045
     28 H          -1.8250    9.8481   -0.7017 H       1  LIG1        0.2922
     29 C          -4.2839    8.5751   -0.1106 C.ar    1  LIG1        0.0462
     30 C          -4.3555    9.8858    0.2825 C.ar    1  LIG1        0.0617
     31 C          -5.6723   10.4339    0.1593 C.ar    1  LIG1        0.1376
     32 C          -6.5829    9.5393   -0.3050 C.ar    1  LIG1        0.0189
     33 S          -5.8508    8.0072   -0.6213 S.2     1  LIG1       -0.0912
     34 H          -7.6396    9.6906   -0.4715 H       1  LIG1        0.0731
     35 S          -3.0077   10.8055    0.9729 S.3     1  LIG1       -0.1380
     36 H          -3.4492   12.0090    0.5712 H       1  LIG1        0.1072
     37 O          -5.8702   11.7322    0.5040 O.3     1  LIG1       -0.5051
     38 H          -6.7945   11.9705    0.3680 H       1  LIG1        0.2922
@<TRIPOS>BOND
     1    25    26    1
     2    25    21    1
     3    27    28    1
     4    27    22    1
     5     8     7    1
     6     7     2    1
     7     9    10    1
     8     9     3    1
     9    21    22   ar
    10    21    20   ar
    11    22    23   ar
    12    33    32   ar
    13    33    29   ar
    14    34    32    1
    15    15    14   ar
    16    15    11   ar
    17    32    31   ar
    18     3     2   ar
    19     3     4   ar
    20     2     1   ar
    21    20    14    1
    22    20    24   ar
    23    23    29    1
    24    23    24   ar
    25    29    30   ar
    26    14    13   ar
    27    31    30   ar
    28    31    37    1
    29     1     6    1
    30     1     5   ar
    31     4    11    1
    32     4     5   ar
    33    11    12   ar
    34    30    35    1
    35    38    37    1
    36    19    18    1
    37    13    12   ar
    38    13    18    1
    39    36    35    1
    40    12    16    1
    41    17    16    1
