@<TRIPOS>MOLECULE
mol_data/opt/cam/geoms/mol2/5gf5gf5gf5gf.out
 38 41 0 0 0
SMALL
GASTEIGER

@<TRIPOS>ATOM
      1 C          -2.1351   -1.8889    0.2055 C.ar    1  LIG1       -0.0069
      2 C          -0.8455   -1.9123   -0.2217 C.ar    1  LIG1        0.0539
      3 C          -0.2506   -0.6060   -0.2224 C.ar    1  LIG1        0.1452
      4 C          -1.1036    0.3785    0.2153 C.ar    1  LIG1        0.0696
      5 S          -2.6527   -0.3040    0.6387 S.2     1  LIG1       -0.0912
      6 H          -2.8085   -2.7267    0.3114 H       1  LIG1        0.0706
      7 S           0.0218   -3.3617   -0.7401 S.3     1  LIG1       -0.1386
      8 H           1.1867   -2.7230   -0.9386 H       1  LIG1        0.1072
      9 O           1.0137   -0.4609   -0.6758 O.3     1  LIG1       -0.5045
     10 H           1.4543    0.2831   -0.2267 H       1  LIG1        0.2922
     11 C          -0.8805    1.8143    0.2684 C.ar    1  LIG1        0.0468
     12 C           0.2145    2.5091    0.7061 C.ar    1  LIG1        0.0623
     13 C           0.0858    3.9270    0.5612 C.ar    1  LIG1        0.1458
     14 C          -1.1185    4.3096    0.0236 C.ar    1  LIG1        0.0702
     15 S          -2.0911    2.9073   -0.3415 S.2     1  LIG1       -0.0822
     16 S           1.6276    1.7727    1.4774 S.3     1  LIG1       -0.1380
     17 H           2.4519    2.8004    1.2135 H       1  LIG1        0.1072
     18 O           1.0911    4.7158    0.9948 O.3     1  LIG1       -0.5045
     19 H           1.0961    5.5606    0.5086 H       1  LIG1        0.2922
     20 C          -1.6477    5.6503   -0.1624 C.ar    1  LIG1        0.0468
     21 C          -1.0300    6.7726   -0.6453 C.ar    1  LIG1        0.0623
     22 C          -1.8679    7.9328   -0.6369 C.ar    1  LIG1        0.1458
     23 C          -3.1317    7.6853   -0.1622 C.ar    1  LIG1        0.0701
     24 S          -3.2817    6.0150    0.3187 S.2     1  LIG1       -0.0822
     25 S           0.6074    6.8099   -1.3171 S.3     1  LIG1       -0.1380
     26 H           0.7769    8.1300   -1.1324 H       1  LIG1        0.1072
     27 O          -1.3749    9.0931   -1.1189 O.3     1  LIG1       -0.5045
     28 H          -1.8171    9.8492   -0.6901 H       1  LIG1        0.2922
     29 C          -4.2803    8.5773   -0.1151 C.ar    1  LIG1        0.0462
     30 C          -4.3530    9.8874    0.2798 C.ar    1  LIG1        0.0617
     31 C          -5.6686   10.4368    0.1501 C.ar    1  LIG1        0.1376
     32 C          -6.5774    9.5437   -0.3208 C.ar    1  LIG1        0.0189
     33 S          -5.8448    8.0115   -0.6355 S.2     1  LIG1       -0.0912
     34 H          -7.6330    9.6962   -0.4930 H       1  LIG1        0.0731
     35 S          -3.0084   10.8048    0.9794 S.3     1  LIG1       -0.1380
     36 H          -3.4467   12.0094    0.5772 H       1  LIG1        0.1072
     37 O          -5.8675   11.7347    0.4959 O.3     1  LIG1       -0.5051
     38 H          -6.7908   11.9740    0.3550 H       1  LIG1        0.2922
@<TRIPOS>BOND
     1    25    26    1
     2    25    21    1
     3    27    28    1
     4    27    22    1
     5     8     7    1
     6     7     2    1
     7     9    10    1
     8     9     3    1
     9    21    22   ar
    10    21    20   ar
    11    22    23   ar
    12    33    32   ar
    13    33    29   ar
    14    34    32    1
    15    15    14   ar
    16    15    11   ar
    17    32    31   ar
    18     3     2   ar
    19     3     4   ar
    20     2     1   ar
    21    20    14    1
    22    20    24   ar
    23    23    29    1
    24    23    24   ar
    25    29    30   ar
    26    14    13   ar
    27    31    30   ar
    28    31    37    1
    29     1     6    1
    30     1     5   ar
    31     4    11    1
    32     4     5   ar
    33    11    12   ar
    34    30    35    1
    35    38    37    1
    36    19    18    1
    37    13    12   ar
    38    13    18    1
    39    36    35    1
    40    12    16    1
    41    17    16    1
