@<TRIPOS>MOLECULE
mol_data/opt/cam/geoms/mol2/5gf5gf-.out
 20 21 0 0 0
SMALL
GASTEIGER

@<TRIPOS>ATOM
      1 C          -2.0867   -1.7589    0.4821 C.ar    1  LIG1       -0.0069
      2 C          -0.8189   -1.7945   -0.0050 C.ar    1  LIG1        0.0539
      3 C          -0.2752   -0.4801   -0.1984 C.ar    1  LIG1        0.1452
      4 C          -1.1434    0.5236    0.1552 C.ar    1  LIG1        0.0695
      5 S          -2.6423   -0.1488    0.7420 S.2     1  LIG1       -0.0912
      6 H          -2.7223   -2.5975    0.7257 H       1  LIG1        0.0706
      7 S           0.0796   -3.2685   -0.3815 S.3     1  LIG1       -0.1386
      8 H           1.2039   -2.6205   -0.7283 H       1  LIG1        0.1072
      9 O           0.9621   -0.3489   -0.7267 O.3     1  LIG1       -0.5045
     10 H           1.3968    0.4465   -0.3685 H       1  LIG1        0.2922
     11 C          -0.9723    1.9624    0.0160 C.ar    1  LIG1        0.0462
     12 C           0.1103    2.7444    0.3201 C.ar    1  LIG1        0.0617
     13 C          -0.0935    4.1265    0.0067 C.ar    1  LIG1        0.1376
     14 C          -1.3223    4.3822   -0.5125 C.ar    1  LIG1        0.0189
     15 S          -2.2565    2.9352   -0.6491 S.2     1  LIG1       -0.0912
     16 H          -1.7319    5.3353   -0.8142 H       1  LIG1        0.0731
     17 S           1.5817    2.1576    1.1135 S.3     1  LIG1       -0.1380
     18 H           2.3913    3.1007    0.6036 H       1  LIG1        0.1072
     19 O           0.9143    5.0043    0.2498 O.3     1  LIG1       -0.5051
     20 H           0.6463    5.8914   -0.0159 H       1  LIG1        0.2922
@<TRIPOS>BOND
     1    16    14    1
     2     8     7    1
     3     9    10    1
     4     9     3    1
     5    15    14   ar
     6    15    11   ar
     7    14    13   ar
     8     7     2    1
     9     3     2   ar
    10     3     4   ar
    11    20    19    1
    12     2     1   ar
    13    13    19    1
    14    13    12   ar
    15    11     4    1
    16    11    12   ar
    17     4     5   ar
    18    12    17    1
    19     1     6    1
    20     1     5   ar
    21    18    17    1
