@<TRIPOS>MOLECULE
mol_data/opt/cam/geoms/mol2/5gf5gf5gf-5gf.out
 38 41 0 0 0
SMALL
GASTEIGER

@<TRIPOS>ATOM
      1 C          -2.1595   -1.8646   -0.2777 C.ar    1  LIG1       -0.0069
      2 C          -0.8395   -1.8655   -0.5997 C.ar    1  LIG1        0.0539
      3 C          -0.2417   -0.5702   -0.4414 C.ar    1  LIG1        0.1452
      4 C          -1.1238    0.3829    0.0078 C.ar    1  LIG1        0.0696
      5 S          -2.7048   -0.3164    0.2451 S.2     1  LIG1       -0.0912
      6 H          -2.8425   -2.7011   -0.2982 H       1  LIG1        0.0706
      7 S           0.0618   -3.2750   -1.1680 S.3     1  LIG1       -0.1386
      8 H           1.2424   -2.6356   -1.2098 H       1  LIG1        0.1072
      9 O           1.0560   -0.4009   -0.7768 O.3     1  LIG1       -0.5045
     10 H           1.4610    0.2982   -0.2321 H       1  LIG1        0.2922
     11 C          -0.8995    1.8063    0.2020 C.ar    1  LIG1        0.0468
     12 C           0.1584    2.4487    0.7861 C.ar    1  LIG1        0.0623
     13 C           0.0491    3.8753    0.7520 C.ar    1  LIG1        0.1458
     14 C          -1.1047    4.3160    0.1523 C.ar    1  LIG1        0.0702
     15 S          -2.0501    2.9614   -0.4103 S.2     1  LIG1       -0.0822
     16 S           1.5003    1.6338    1.6041 S.3     1  LIG1       -0.1380
     17 H           2.3466    2.6721    1.4983 H       1  LIG1        0.1072
     18 O           1.0191    4.6131    1.3318 O.3     1  LIG1       -0.5045
     19 H           1.0729    5.4925    0.9147 H       1  LIG1        0.2922
     20 C          -1.6088    5.6751    0.0402 C.ar    1  LIG1        0.0468
     21 C          -0.9496    6.8232   -0.3082 C.ar    1  LIG1        0.0623
     22 C          -1.7776    7.9896   -0.2705 C.ar    1  LIG1        0.1458
     23 C          -3.0778    7.7207    0.0756 C.ar    1  LIG1        0.0701
     24 S          -3.2854    6.0131    0.3705 S.2     1  LIG1       -0.0822
     25 S           0.7389    6.8903   -0.8383 S.3     1  LIG1       -0.1380
     26 H           0.9159    8.1835   -0.5218 H       1  LIG1        0.1072
     27 O          -1.2184    9.1926   -0.5209 O.3     1  LIG1       -0.5045
     28 H          -1.8685    9.7887   -0.9375 H       1  LIG1        0.2922
     29 C          -4.1777    8.6499    0.2839 C.ar    1  LIG1        0.0462
     30 C          -4.5539    9.7368   -0.4609 C.ar    1  LIG1        0.0617
     31 C          -5.6787   10.4290    0.0915 C.ar    1  LIG1        0.1376
     32 C          -6.1522    9.8581    1.2297 C.ar    1  LIG1        0.0189
     33 S          -5.2234    8.4694    1.6670 S.2     1  LIG1       -0.0912
     34 H          -6.9954   10.1693    1.8292 H       1  LIG1        0.0731
     35 S          -3.8176   10.2036   -2.0028 S.3     1  LIG1       -0.1380
     36 H          -4.1183   11.5091   -1.9025 H       1  LIG1        0.1072
     37 O          -6.1396   11.5344   -0.5483 O.3     1  LIG1       -0.5051
     38 H          -6.8919   11.9011   -0.0696 H       1  LIG1        0.2922
@<TRIPOS>BOND
     1    35    36    1
     2    35    30    1
     3     8     7    1
     4     7     2    1
     5    28    27    1
     6    25    26    1
     7    25    21    1
     8     9     3    1
     9     9    10    1
    10     2     3   ar
    11     2     1   ar
    12    37    38    1
    13    37    31    1
    14    27    22    1
    15    30    31   ar
    16    30    29   ar
    17     3     4   ar
    18    15    14   ar
    19    15    11   ar
    20    21    22   ar
    21    21    20   ar
    22     6     1    1
    23     1     5   ar
    24    22    23   ar
    25     4    11    1
    26     4     5   ar
    27    20    14    1
    28    20    24   ar
    29    23    29    1
    30    23    24   ar
    31    31    32   ar
    32    14    13   ar
    33    11    12   ar
    34    29    33   ar
    35    13    12   ar
    36    13    18    1
    37    12    16    1
    38    19    18    1
    39    32    33   ar
    40    32    34    1
    41    17    16    1
