@<TRIPOS>MOLECULE
mol_data/opt/cam/geoms/mol2/5gf5gf.out
 20 21 0 0 0
SMALL
GASTEIGER

@<TRIPOS>ATOM
      1 C          -2.0923   -1.7544    0.4965 C.ar    1  LIG1       -0.0069
      2 C          -0.8187   -1.7944    0.0251 C.ar    1  LIG1        0.0539
      3 C          -0.2728   -0.4819   -0.1744 C.ar    1  LIG1        0.1452
      4 C          -1.1452    0.5250    0.1590 C.ar    1  LIG1        0.0695
      5 S          -2.6511   -0.1419    0.7341 S.2     1  LIG1       -0.0912
      6 H          -2.7307   -2.5907    0.7405 H       1  LIG1        0.0706
      7 S           0.0843   -3.2719   -0.3264 S.3     1  LIG1       -0.1386
      8 H           1.2128   -2.6271   -0.6656 H       1  LIG1        0.1072
      9 O           0.9708   -0.3556   -0.6890 O.3     1  LIG1       -0.5045
     10 H           1.4011    0.4433   -0.3335 H       1  LIG1        0.2922
     11 C          -0.9726    1.9624    0.0079 C.ar    1  LIG1        0.0462
     12 C           0.1062    2.7475    0.3176 C.ar    1  LIG1        0.0617
     13 C          -0.0937    4.1264   -0.0117 C.ar    1  LIG1        0.1376
     14 C          -1.3161    4.3769   -0.5483 C.ar    1  LIG1        0.0189
     15 S          -2.2486    2.9285   -0.6823 S.2     1  LIG1       -0.0912
     16 H          -1.7220    5.3270   -0.8642 H       1  LIG1        0.0731
     17 S           1.5679    2.1685    1.1345 S.3     1  LIG1       -0.1380
     18 H           2.3835    3.1070    0.6256 H       1  LIG1        0.1072
     19 O           0.9110    5.0067    0.2351 O.3     1  LIG1       -0.5051
     20 H           0.6461    5.8912   -0.0421 H       1  LIG1        0.2922
@<TRIPOS>BOND
     1    16    14    1
     2     9    10    1
     3     9     3    1
     4    15    14   ar
     5    15    11   ar
     6     8     7    1
     7    14    13   ar
     8     7     2    1
     9     3     2   ar
    10     3     4   ar
    11    20    19    1
    12    13    19    1
    13    13    12   ar
    14    11     4    1
    15    11    12   ar
    16     2     1   ar
    17     4     5   ar
    18    12    17    1
    19     1     5   ar
    20     1     6    1
    21    18    17    1
