@<TRIPOS>MOLECULE
mol_data/opt/cam/geoms/mol2/5gf5gf-5gf-5gf.out
 38 41 0 0 0
SMALL
GASTEIGER

@<TRIPOS>ATOM
      1 C          -1.6465   -1.8507    1.2155 C.ar    1  LIG1       -0.0069
      2 C          -0.9537   -1.8775    0.0471 C.ar    1  LIG1        0.0539
      3 C          -0.5066   -0.5722   -0.3488 C.ar    1  LIG1        0.1452
      4 C          -0.8652    0.4153    0.5367 C.ar    1  LIG1        0.0696
      5 S          -1.7546   -0.2630    1.8758 S.2     1  LIG1       -0.0912
      6 H          -2.0837   -2.6869    1.7411 H       1  LIG1        0.0706
      7 S          -0.6370   -3.3300   -0.9079 S.3     1  LIG1       -0.1386
      8 H           0.1102   -2.6931   -1.8246 H       1  LIG1        0.1072
      9 O           0.1510   -0.4299   -1.5204 O.3     1  LIG1       -0.5045
     10 H           0.7827    0.3103   -1.4677 H       1  LIG1        0.2922
     11 C          -0.6662    1.8514    0.4205 C.ar    1  LIG1        0.0468
     12 C           0.4502    2.5476    0.0428 C.ar    1  LIG1        0.0623
     13 C           0.2551    3.9648    0.0110 C.ar    1  LIG1        0.1458
     14 C          -1.0054    4.3472    0.3975 C.ar    1  LIG1        0.0702
     15 S          -1.9690    2.9456    0.7913 S.2     1  LIG1       -0.0822
     16 S           2.0232    1.8094   -0.3008 S.3     1  LIG1       -0.1380
     17 H           2.4668    2.8169   -1.0703 H       1  LIG1        0.1072
     18 O           1.2648    4.7484   -0.4225 O.3     1  LIG1       -0.5045
     19 H           1.2244    5.6270   -0.0018 H       1  LIG1        0.2922
     20 C          -1.5843    5.6799    0.4239 C.ar    1  LIG1        0.0468
     21 C          -1.0383    6.8575    0.8590 C.ar    1  LIG1        0.0623
     22 C          -1.9010    7.9855    0.6811 C.ar    1  LIG1        0.1458
     23 C          -3.1123    7.6594    0.1241 C.ar    1  LIG1        0.0701
     24 S          -3.1786    5.9513   -0.2234 S.2     1  LIG1       -0.0822
     25 S           0.5335    7.0024    1.6594 S.3     1  LIG1       -0.1380
     26 H           0.6789    8.3102    1.3872 H       1  LIG1        0.1072
     27 O          -1.4811    9.1970    1.1032 O.3     1  LIG1       -0.5045
     28 H          -1.9037    9.9011    0.5776 H       1  LIG1        0.2922
     29 C          -4.2731    8.5084   -0.0967 C.ar    1  LIG1        0.0462
     30 C          -4.3415    9.7766   -0.6108 C.ar    1  LIG1        0.0617
     31 C          -5.6755   10.2952   -0.6400 C.ar    1  LIG1        0.1376
     32 C          -6.6006    9.4191   -0.1690 C.ar    1  LIG1        0.0189
     33 S          -5.8630    7.9427    0.3402 S.2     1  LIG1       -0.0912
     34 H          -7.6702    9.5541   -0.0993 H       1  LIG1        0.0731
     35 S          -2.9624   10.6701   -1.2732 S.3     1  LIG1       -0.1380
     36 H          -3.4673   11.8911   -1.0300 H       1  LIG1        0.1072
     37 O          -5.8738   11.5519   -1.1147 O.3     1  LIG1       -0.5051
     38 H          -6.8107   11.7751   -1.0708 H       1  LIG1        0.2922
@<TRIPOS>BOND
     1     8     7    1
     2     9    10    1
     3     9     3    1
     4    35    36    1
     5    35    30    1
     6    37    38    1
     7    37    31    1
     8    17    16    1
     9     7     2    1
    10    31    30   ar
    11    31    32   ar
    12    30    29   ar
    13    18    19    1
    14    18    13    1
    15     3     2   ar
    16     3     4   ar
    17    16    12    1
    18    24    23   ar
    19    24    20   ar
    20    32    34    1
    21    32    33   ar
    22    29    23    1
    23    29    33   ar
    24    13    12   ar
    25    13    14   ar
    26    12    11   ar
    27     2     1   ar
    28    23    22   ar
    29    14    20    1
    30    14    15   ar
    31    11     4    1
    32    11    15   ar
    33    20    21   ar
    34     4     5   ar
    35    28    27    1
    36    22    21   ar
    37    22    27    1
    38    21    25    1
    39     1     6    1
    40     1     5   ar
    41    26    25    1
