@<TRIPOS>MOLECULE
mol_data/opt/cam/geoms/mol2/5gf5gf-5gf5gf.out
 38 41 0 0 0
SMALL
GASTEIGER

@<TRIPOS>ATOM
      1 C          -1.5686   -1.7187    1.6625 C.ar    1  LIG1       -0.0069
      2 C          -0.9943   -1.8557    0.4388 C.ar    1  LIG1        0.0539
      3 C          -0.5751   -0.5963   -0.1077 C.ar    1  LIG1        0.1452
      4 C          -0.8347    0.4678    0.7216 C.ar    1  LIG1        0.0696
      5 S          -1.5947   -0.0799    2.1934 S.2     1  LIG1       -0.0912
      6 H          -1.9609   -2.4999    2.2968 H       1  LIG1        0.0706
      7 S          -0.7882   -3.3884   -0.4158 S.3     1  LIG1       -0.1386
      8 H          -0.1302   -2.8440   -1.4527 H       1  LIG1        0.1072
      9 O          -0.0349   -0.5641   -1.3458 O.3     1  LIG1       -0.5045
     10 H           0.6060    0.1663   -1.4179 H       1  LIG1        0.2922
     11 C          -0.6315    1.8850    0.4643 C.ar    1  LIG1        0.0468
     12 C           0.4520    2.5237   -0.0752 C.ar    1  LIG1        0.0623
     13 C           0.2707    3.9364   -0.2144 C.ar    1  LIG1        0.1458
     14 C          -0.9433    4.3754    0.2523 C.ar    1  LIG1        0.0702
     15 S          -1.8807    3.0328    0.8575 S.2     1  LIG1       -0.0822
     16 S           1.9761    1.7270   -0.4982 S.3     1  LIG1       -0.1380
     17 H           2.3652    2.6649   -1.3774 H       1  LIG1        0.1072
     18 O           1.2431    4.6598   -0.8086 O.3     1  LIG1       -0.5045
     19 H           1.2584    5.5692   -0.4571 H       1  LIG1        0.2922
     20 C          -1.5018    5.7169    0.2095 C.ar    1  LIG1        0.0468
     21 C          -0.9072    6.9170    0.4932 C.ar    1  LIG1        0.0623
     22 C          -1.7697    8.0414    0.2948 C.ar    1  LIG1        0.1458
     23 C          -3.0334    7.6908   -0.1092 C.ar    1  LIG1        0.0701
     24 S          -3.1619    5.9572   -0.2601 S.2     1  LIG1       -0.0822
     25 S           0.7371    7.0981    1.1247 S.3     1  LIG1       -0.1380
     26 H           0.8903    8.3655    0.7071 H       1  LIG1        0.1072
     27 O          -1.2707    9.2836    0.4695 O.3     1  LIG1       -0.5045
     28 H          -1.9666    9.8865    0.7915 H       1  LIG1        0.2922
     29 C          -4.1475    8.5539   -0.4706 C.ar    1  LIG1        0.0462
     30 C          -4.6099    9.6854    0.1486 C.ar    1  LIG1        0.0617
     31 C          -5.7170   10.2822   -0.5351 C.ar    1  LIG1        0.1376
     32 C          -6.0923    9.5966   -1.6463 C.ar    1  LIG1        0.0189
     33 S          -5.0900    8.2129   -1.8968 S.2     1  LIG1       -0.0912
     34 H          -6.9026    9.8212   -2.3247 H       1  LIG1        0.0731
     35 S          -3.9964   10.3127    1.6872 S.3     1  LIG1       -0.1380
     36 H          -4.3364   11.5910    1.4525 H       1  LIG1        0.1072
     37 O          -6.2573   11.4198   -0.0275 O.3     1  LIG1       -0.5051
     38 H          -6.9864   11.7145   -0.5854 H       1  LIG1        0.2922
@<TRIPOS>BOND
     1    34    32    1
     2    33    32   ar
     3    33    29   ar
     4    32    31   ar
     5     8     7    1
     6    10     9    1
     7    17    16    1
     8     9     3    1
     9    18    19    1
    10    18    13    1
    11    38    37    1
    12    31    37    1
    13    31    30   ar
    14    16    12    1
    15    29    23    1
    16    29    30   ar
    17     7     2    1
    18    24    23   ar
    19    24    20   ar
    20    13    12   ar
    21    13    14   ar
    22    23    22   ar
    23     3     2   ar
    24     3     4   ar
    25    12    11   ar
    26    30    35    1
    27    20    14    1
    28    20    21   ar
    29    14    15   ar
    30    22    27    1
    31    22    21   ar
    32     2     1   ar
    33    11     4    1
    34    11    15   ar
    35    27    28    1
    36    21    25    1
    37    26    25    1
    38     4     5   ar
    39    36    35    1
    40     1     5   ar
    41     1     6    1
