@<TRIPOS>MOLECULE
mol_data/opt/cam/geoms/mol2/5gf5gf5gf-5gf-.out
 38 41 0 0 0
SMALL
GASTEIGER

@<TRIPOS>ATOM
      1 C          -2.1635   -1.8649   -0.2675 C.ar    1  LIG1       -0.0069
      2 C          -0.8442   -1.8671   -0.5925 C.ar    1  LIG1        0.0539
      3 C          -0.2454   -0.5718   -0.4380 C.ar    1  LIG1        0.1452
      4 C          -1.1259    0.3826    0.0115 C.ar    1  LIG1        0.0696
      5 S          -2.7068   -0.3154    0.2537 S.2     1  LIG1       -0.0912
      6 H          -2.8469   -2.7011   -0.2848 H       1  LIG1        0.0706
      7 S           0.0551   -3.2781   -1.1602 S.3     1  LIG1       -0.1386
      8 H           1.2359   -2.6394   -1.2059 H       1  LIG1        0.1072
      9 O           1.0516   -0.4038   -0.7767 O.3     1  LIG1       -0.5045
     10 H           1.4582    0.2961   -0.2342 H       1  LIG1        0.2922
     11 C          -0.9006    1.8063    0.2024 C.ar    1  LIG1        0.0468
     12 C           0.1590    2.4492    0.7829 C.ar    1  LIG1        0.0623
     13 C           0.0504    3.8758    0.7464 C.ar    1  LIG1        0.1458
     14 C          -1.1045    4.3160    0.1485 C.ar    1  LIG1        0.0702
     15 S          -2.0519    2.9608   -0.4093 S.2     1  LIG1       -0.0822
     16 S           1.5024    1.6351    1.5994 S.3     1  LIG1       -0.1380
     17 H           2.3489    2.6728    1.4897 H       1  LIG1        0.1072
     18 O           1.0221    4.6142    1.3226 O.3     1  LIG1       -0.5045
     19 H           1.0754    5.4928    0.9037 H       1  LIG1        0.2922
     20 C          -1.6083    5.6750    0.0350 C.ar    1  LIG1        0.0468
     21 C          -0.9493    6.8222   -0.3170 C.ar    1  LIG1        0.0623
     22 C          -1.7766    7.9891   -0.2796 C.ar    1  LIG1        0.1458
     23 C          -3.0762    7.7215    0.0699 C.ar    1  LIG1        0.0701
     24 S          -3.2839    6.0145    0.3685 S.2     1  LIG1       -0.0822
     25 S           0.7380    6.8874   -0.8511 S.3     1  LIG1       -0.1380
     26 H           0.9164    8.1811   -0.5374 H       1  LIG1        0.1072
     27 O          -1.2173    9.1913   -0.5336 O.3     1  LIG1       -0.5045
     28 H          -1.8681    9.7869   -0.9498 H       1  LIG1        0.2922
     29 C          -4.1751    8.6517    0.2791 C.ar    1  LIG1        0.0462
     30 C          -4.5524    9.7374   -0.4669 C.ar    1  LIG1        0.0617
     31 C          -5.6755   10.4312    0.0868 C.ar    1  LIG1        0.1376
     32 C          -6.1467    9.8627    1.2271 C.ar    1  LIG1        0.0189
     33 S          -5.2177    8.4743    1.6648 S.2     1  LIG1       -0.0912
     34 H          -6.9884   10.1754    1.8279 H       1  LIG1        0.0731
     35 S          -3.8195   10.2009   -2.0113 S.3     1  LIG1       -0.1380
     36 H          -4.1193   11.5067   -1.9128 H       1  LIG1        0.1072
     37 O          -6.1374   11.5356   -0.5541 O.3     1  LIG1       -0.5051
     38 H          -6.8884   11.9035   -0.0744 H       1  LIG1        0.2922
@<TRIPOS>BOND
     1    35    36    1
     2    35    30    1
     3     8     7    1
     4     7     2    1
     5    28    27    1
     6    25    26    1
     7    25    21    1
     8     9     3    1
     9     9    10    1
    10     2     3   ar
    11     2     1   ar
    12    37    38    1
    13    37    31    1
    14    27    22    1
    15    30    31   ar
    16    30    29   ar
    17     3     4   ar
    18    15    14   ar
    19    15    11   ar
    20    21    22   ar
    21    21    20   ar
    22     6     1    1
    23    22    23   ar
    24     1     5   ar
    25     4    11    1
    26     4     5   ar
    27    20    14    1
    28    20    24   ar
    29    23    29    1
    30    23    24   ar
    31    31    32   ar
    32    14    13   ar
    33    11    12   ar
    34    29    33   ar
    35    13    12   ar
    36    13    18    1
    37    12    16    1
    38    19    18    1
    39    32    33   ar
    40    32    34    1
    41    17    16    1
