@<TRIPOS>MOLECULE
mol_data/opt/cam/geoms/mol2/5gf5gf5gf-.out
 29 31 0 0 0
SMALL
GASTEIGER

@<TRIPOS>ATOM
      1 C          -2.0959   -1.8571    0.2444 C.ar    1  LIG1       -0.0069
      2 C          -0.8495   -1.8442   -0.2964 C.ar    1  LIG1        0.0539
      3 C          -0.2781   -0.5275   -0.3106 C.ar    1  LIG1        0.1452
      4 C          -1.1040    0.4280    0.2307 C.ar    1  LIG1        0.0696
      5 S          -2.5979   -0.2951    0.7697 S.2     1  LIG1       -0.0912
      6 H          -2.7435   -2.7101    0.3846 H       1  LIG1        0.0706
      7 S          -0.0095   -3.2616   -0.9343 S.3     1  LIG1       -0.1386
      8 H           1.1261   -2.5982   -1.2076 H       1  LIG1        0.1072
      9 O           0.9383   -0.3459   -0.8699 O.3     1  LIG1       -0.5045
     10 H           1.4051    0.3932   -0.4397 H       1  LIG1        0.2922
     11 C          -0.8997    1.8655    0.3084 C.ar    1  LIG1        0.0468
     12 C           0.2183    2.5677    0.6690 C.ar    1  LIG1        0.0623
     13 C           0.0537    3.9868    0.5801 C.ar    1  LIG1        0.1458
     14 C          -1.1997    4.3624    0.1658 C.ar    1  LIG1        0.0701
     15 S          -2.1770    2.9536   -0.1577 S.2     1  LIG1       -0.0822
     16 S           1.7076    1.8373    1.2873 S.3     1  LIG1       -0.1380
     17 H           2.4856    2.8899    0.9834 H       1  LIG1        0.1072
     18 O           1.0809    4.7842    0.9424 O.3     1  LIG1       -0.5045
     19 H           1.0342    5.6304    0.4603 H       1  LIG1        0.2922
     20 C          -1.7688    5.6984    0.0739 C.ar    1  LIG1        0.0462
     21 C          -1.2231    6.8489   -0.4321 C.ar    1  LIG1        0.0617
     22 C          -2.0934    7.9793   -0.3114 C.ar    1  LIG1        0.1376
     23 C          -3.2863    7.6775    0.2637 C.ar    1  LIG1        0.0189
     24 S          -3.3706    6.0056    0.6898 S.2     1  LIG1       -0.0912
     25 H          -4.1199    8.3381    0.4534 H       1  LIG1        0.0731
     26 S           0.3456    6.9447   -1.2503 S.3     1  LIG1       -0.1380
     27 H           0.5788    8.2306   -0.9393 H       1  LIG1        0.1072
     28 O          -1.6599    9.1841   -0.7639 O.3     1  LIG1       -0.5051
     29 H          -2.3379    9.8532   -0.6149 H       1  LIG1        0.2922
@<TRIPOS>BOND
     1    26    27    1
     2    26    21    1
     3     8     7    1
     4     7     2    1
     5     9    10    1
     6     9     3    1
     7    28    29    1
     8    28    22    1
     9    21    22   ar
    10    21    20   ar
    11    22    23   ar
    12     3     2   ar
    13     3     4   ar
    14     2     1   ar
    15    15    14   ar
    16    15    11   ar
    17    20    14    1
    18    20    24   ar
    19    14    13   ar
    20     4    11    1
    21     4     5   ar
    22     1     6    1
    23     1     5   ar
    24    23    25    1
    25    23    24   ar
    26    11    12   ar
    27    19    18    1
    28    13    12   ar
    29    13    18    1
    30    12    16    1
    31    17    16    1
