@<TRIPOS>MOLECULE
mol_data/opt/cam/geoms/mol2/5gg.out
 11 11 0 0 0
SMALL
GASTEIGER

@<TRIPOS>ATOM
      1 C          -2.0871   -1.6967   -0.0044 C.ar    1  LIG1       -0.0101
      2 C          -0.7358   -1.6151    0.1410 C.ar    1  LIG1        0.0249
      3 C          -0.2666   -0.2548    0.1305 C.ar    1  LIG1        0.0249
      4 C          -1.2809    0.6371   -0.0333 C.ar    1  LIG1       -0.0101
      5 S          -2.8141   -0.1476   -0.1590 S.2     1  LIG1       -0.1028
      6 H          -2.6830   -2.5968   -0.0363 H       1  LIG1        0.0705
      7 H          -1.2187    1.7147   -0.0726 H       1  LIG1        0.0705
      8 S           0.2868   -3.0398    0.4160 S.3     1  LIG1       -0.1410
      9 H           1.0365   -2.9298   -0.6966 H       1  LIG1        0.1072
     10 S           1.4560    0.1143    0.3163 S.3     1  LIG1       -0.1410
     11 H           1.3524    1.4146   -0.0033 H       1  LIG1        0.1072
@<TRIPOS>BOND
     1     9     8    1
     2     5     4   ar
     3     5     1   ar
     4     7     4    1
     5     6     1    1
     6     4     3   ar
     7     1     2   ar
     8    11    10    1
     9     3     2   ar
    10     3    10    1
    11     2     8    1
