@<TRIPOS>MOLECULE
mol_data/opt/cam/geoms/mol2/5gg5gg-5gg.out
 29 31 0 0 0
SMALL
GASTEIGER

@<TRIPOS>ATOM
      1 C          -1.3633   -1.6614    1.6254 C.ar    1  LIG1       -0.0095
      2 C          -0.7871   -1.7944    0.3992 C.ar    1  LIG1        0.0256
      3 C          -0.4328   -0.5284   -0.1814 C.ar    1  LIG1        0.0333
      4 C          -0.7610    0.5288    0.6252 C.ar    1  LIG1        0.0412
      5 S          -1.4898   -0.0218    2.1104 S.2     1  LIG1       -0.0939
      6 H          -1.7214   -2.4582    2.2608 H       1  LIG1        0.0705
      7 S          -0.4439   -3.3759   -0.3298 S.3     1  LIG1       -0.1410
      8 H          -1.2522   -3.2502   -1.3991 H       1  LIG1        0.1072
      9 S           0.3106   -0.4464   -1.7782 S.3     1  LIG1       -0.1404
     10 H           0.3260    0.8957   -1.8397 H       1  LIG1        0.1072
     11 C          -0.5797    1.9578    0.3669 C.ar    1  LIG1        0.0418
     12 C           0.5819    2.6866    0.3864 C.ar    1  LIG1        0.0339
     13 C           0.3776    4.0719    0.0675 C.ar    1  LIG1        0.0339
     14 C          -0.9361    4.3709   -0.1860 C.ar    1  LIG1        0.0418
     15 S          -1.9384    2.9607   -0.0266 S.2     1  LIG1       -0.0849
     16 S           2.1343    1.9765    0.8572 S.3     1  LIG1       -0.1404
     17 H           2.8750    2.6131   -0.0681 H       1  LIG1        0.1072
     18 S           1.7400    5.1945    0.0086 S.3     1  LIG1       -0.1404
     19 H           1.0489    6.2082   -0.5391 H       1  LIG1        0.1072
     20 C          -1.5249    5.6607   -0.5409 C.ar    1  LIG1        0.0412
     21 C          -1.6801    6.7711    0.2494 C.ar    1  LIG1        0.0333
     22 C          -2.3285    7.8535   -0.4476 C.ar    1  LIG1        0.0256
     23 C          -2.6661    7.5208   -1.7248 C.ar    1  LIG1       -0.0095
     24 S          -2.1930    5.9252   -2.1302 S.2     1  LIG1       -0.0939
     25 H          -3.1663    8.1525   -2.4444 H       1  LIG1        0.0705
     26 S          -1.1293    6.8277    1.9244 S.3     1  LIG1       -0.1404
     27 H          -1.8644    7.9096    2.2419 H       1  LIG1        0.1072
     28 S          -2.7734    9.4164    0.2689 S.3     1  LIG1       -0.1410
     29 H          -1.5411    9.9592    0.2962 H       1  LIG1        0.1072
@<TRIPOS>BOND
     1    25    23    1
     2    24    23   ar
     3    24    20   ar
     4    10     9    1
     5     9     3    1
     6    23    22   ar
     7     8     7    1
     8    20    14    1
     9    20    21   ar
    10    19    18    1
    11    22    21   ar
    12    22    28    1
    13     7     2    1
    14    14    15   ar
    15    14    13   ar
    16     3     2   ar
    17     3     4   ar
    18    17    16    1
    19    15    11   ar
    20    18    13    1
    21    13    12   ar
    22    21    26    1
    23    28    29    1
    24    11    12   ar
    25    11     4    1
    26    12    16    1
    27     2     1   ar
    28     4     5   ar
    29     1     5   ar
    30     1     6    1
    31    26    27    1
