@<TRIPOS>MOLECULE
mol_data/opt/cam/geoms/mol2/5gg5gg-5gg-5gg-.out
 38 41 0 0 0
SMALL
GASTEIGER

@<TRIPOS>ATOM
      1 C          -0.6102   -1.7494    1.8203 C.ar    1  LIG1       -0.0095
      2 C          -0.6537   -1.8521    0.4633 C.ar    1  LIG1        0.0256
      3 C          -0.6109   -0.5664   -0.1827 C.ar    1  LIG1        0.0333
      4 C          -0.5323    0.4695    0.7142 C.ar    1  LIG1        0.0412
      5 S          -0.5093   -0.1171    2.3472 S.2     1  LIG1       -0.0939
      6 H          -0.6135   -2.5563    2.5386 H       1  LIG1        0.0705
      7 S          -0.8096   -3.4133   -0.3557 S.3     1  LIG1       -0.1410
      8 H          -0.3672   -2.9784   -1.5489 H       1  LIG1        0.1072
      9 S          -0.7112   -0.3721   -1.9433 S.3     1  LIG1       -0.1404
     10 H           0.4315    0.3320   -2.0739 H       1  LIG1        0.1072
     11 C          -0.5098    1.9093    0.4524 C.ar    1  LIG1        0.0418
     12 C           0.4551    2.6572   -0.1696 C.ar    1  LIG1        0.0339
     13 C           0.1291    4.0534   -0.2323 C.ar    1  LIG1        0.0339
     14 C          -1.0798    4.3403    0.3467 C.ar    1  LIG1        0.0418
     15 S          -1.8247    2.9052    0.9804 S.2     1  LIG1       -0.0849
     16 S           1.9783    1.9537   -0.7434 S.3     1  LIG1       -0.1404
     17 H           2.1256    2.7697   -1.8031 H       1  LIG1        0.1072
     18 S           1.2173    5.2106   -1.0033 S.3     1  LIG1       -0.1404
     19 H           0.3551    6.2401   -0.9743 H       1  LIG1        0.1072
     20 C          -1.7476    5.6366    0.4580 C.ar    1  LIG1        0.0418
     21 C          -1.4273    6.6866    1.2805 C.ar    1  LIG1        0.0339
     22 C          -2.3256    7.8015    1.1310 C.ar    1  LIG1        0.0339
     23 C          -3.3065    7.5690    0.1979 C.ar    1  LIG1        0.0418
     24 S          -3.1389    6.0036   -0.5174 S.2     1  LIG1       -0.0849
     25 S          -0.0738    6.6019    2.4086 S.3     1  LIG1       -0.1404
     26 H          -0.2174    7.8674    2.8431 H       1  LIG1        0.1072
     27 S          -2.2446    9.2571    2.1471 S.3     1  LIG1       -0.1404
     28 H          -1.9537   10.1362    1.1672 H       1  LIG1        0.1072
     29 C          -4.3852    8.4614   -0.2197 C.ar    1  LIG1        0.0412
     30 C          -4.2816    9.6621   -0.8704 C.ar    1  LIG1        0.0333
     31 C          -5.5650   10.2673   -1.1150 C.ar    1  LIG1        0.0256
     32 C          -6.5939    9.4905   -0.6737 C.ar    1  LIG1       -0.0095
     33 S          -6.0508    8.0455    0.0669 S.2     1  LIG1       -0.0939
     34 H          -7.6483    9.7133   -0.7488 H       1  LIG1        0.0705
     35 S          -2.7278   10.3318   -1.3749 S.3     1  LIG1       -0.1404
     36 H          -3.2609   11.3970   -2.0015 H       1  LIG1        0.1072
     37 S          -5.8259   11.8024   -1.9715 S.3     1  LIG1       -0.1410
     38 H          -5.6470   12.6259   -0.9209 H       1  LIG1        0.1072
@<TRIPOS>BOND
     1    10     9    1
     2    36    35    1
     3    37    31    1
     4    37    38    1
     5     9     3    1
     6    17    16    1
     7     8     7    1
     8    35    30    1
     9    31    30   ar
    10    31    32   ar
    11    18    19    1
    12    18    13    1
    13    30    29   ar
    14    34    32    1
    15    16    12    1
    16    32    33   ar
    17    24    23   ar
    18    24    20   ar
    19     7     2    1
    20    13    12   ar
    21    13    14   ar
    22    29    33   ar
    23    29    23    1
    24     3     2   ar
    25     3     4   ar
    26    12    11   ar
    27    23    22   ar
    28    14    20    1
    29    14    15   ar
    30    11     4    1
    31    11    15   ar
    32    20    21   ar
    33     2     1   ar
    34     4     5   ar
    35    22    21   ar
    36    22    27    1
    37    28    27    1
    38    21    25    1
    39     1     5   ar
    40     1     6    1
    41    25    26    1
