@<TRIPOS>MOLECULE
mol_data/opt/cam/geoms/mol2/5gg5gg-5gg-5gg.out
 38 41 0 0 0
SMALL
GASTEIGER

@<TRIPOS>ATOM
      1 C          -0.6171   -1.7468    1.8381 C.ar    1  LIG1       -0.0095
      2 C          -0.6317   -1.8473    0.4803 C.ar    1  LIG1        0.0256
      3 C          -0.5814   -0.5602   -0.1625 C.ar    1  LIG1        0.0333
      4 C          -0.5265    0.4745    0.7376 C.ar    1  LIG1        0.0412
      5 S          -0.5350   -0.1149    2.3697 S.2     1  LIG1       -0.0939
      6 H          -0.6316   -2.5549    2.5547 H       1  LIG1        0.0705
      7 S          -0.7630   -3.4077   -0.3444 S.3     1  LIG1       -0.1410
      8 H          -0.2979   -2.9686   -1.5274 H       1  LIG1        0.1072
      9 S          -0.6458   -0.3632   -1.9245 S.3     1  LIG1       -0.1404
     10 H           0.4962    0.3463   -2.0300 H       1  LIG1        0.1072
     11 C          -0.5053    1.9148    0.4787 C.ar    1  LIG1        0.0418
     12 C           0.4689    2.6683   -0.1217 C.ar    1  LIG1        0.0339
     13 C           0.1378    4.0630   -0.1889 C.ar    1  LIG1        0.0339
     14 C          -1.0844    4.3433    0.3651 C.ar    1  LIG1        0.0418
     15 S          -1.8357    2.9037    0.9807 S.2     1  LIG1       -0.0849
     16 S           2.0070    1.9730   -0.6646 S.3     1  LIG1       -0.1404
     17 H           2.1726    2.7915   -1.7197 H       1  LIG1        0.1072
     18 S           1.2364    5.2267   -0.9349 S.3     1  LIG1       -0.1404
     19 H           0.3690    6.2521   -0.9223 H       1  LIG1        0.1072
     20 C          -1.7604    5.6363    0.4646 C.ar    1  LIG1        0.0418
     21 C          -1.4623    6.6863    1.2953 C.ar    1  LIG1        0.0339
     22 C          -2.3625    7.7973    1.1290 C.ar    1  LIG1        0.0339
     23 C          -3.3226    7.5619    0.1752 C.ar    1  LIG1        0.0418
     24 S          -3.1327    5.9985   -0.5391 S.2     1  LIG1       -0.0849
     25 S          -0.1324    6.6059    2.4515 S.3     1  LIG1       -0.1404
     26 H          -0.2910    7.8700    2.8849 H       1  LIG1        0.1072
     27 S          -2.3097    9.2515    2.1490 S.3     1  LIG1       -0.1404
     28 H          -2.0025   10.1337    1.1768 H       1  LIG1        0.1072
     29 C          -4.3966    8.4500   -0.2635 C.ar    1  LIG1        0.0412
     30 C          -4.2850    9.6523   -0.9098 C.ar    1  LIG1        0.0333
     31 C          -5.5658   10.2519   -1.1802 C.ar    1  LIG1        0.0256
     32 C          -6.6001    9.4696   -0.7619 C.ar    1  LIG1       -0.0095
     33 S          -6.0658    8.0258   -0.0125 S.2     1  LIG1       -0.0939
     34 H          -7.6537    9.6875   -0.8587 H       1  LIG1        0.0705
     35 S          -2.7241   10.3301   -1.3805 S.3     1  LIG1       -0.1404
     36 H          -3.2490   11.3939   -2.0165 H       1  LIG1        0.1072
     37 S          -5.8160   11.7873   -2.0394 S.3     1  LIG1       -0.1410
     38 H          -5.6629   12.6098   -0.9840 H       1  LIG1        0.1072
@<TRIPOS>BOND
     1    37    31    1
     2    37    38    1
     3    10     9    1
     4    36    35    1
     5     9     3    1
     6    17    16    1
     7     8     7    1
     8    35    30    1
     9    31    30   ar
    10    31    32   ar
    11    18    19    1
    12    18    13    1
    13    30    29   ar
    14    34    32    1
    15    32    33   ar
    16    16    12    1
    17    24    23   ar
    18    24    20   ar
    19     7     2    1
    20    29    33   ar
    21    29    23    1
    22    13    12   ar
    23    13    14   ar
    24     3     2   ar
    25     3     4   ar
    26    12    11   ar
    27    23    22   ar
    28    14    20    1
    29    14    15   ar
    30    20    21   ar
    31    11     4    1
    32    11    15   ar
    33     2     1   ar
    34     4     5   ar
    35    22    21   ar
    36    22    27    1
    37    28    27    1
    38    21    25    1
    39     1     5   ar
    40     1     6    1
    41    25    26    1
