@<TRIPOS>MOLECULE
mol_data/opt/cam/geoms/mol2/5gg5gg5gg-.out
 29 31 0 0 0
SMALL
GASTEIGER

@<TRIPOS>ATOM
      1 C          -1.5914   -1.9049    0.6477 C.ar    1  LIG1       -0.0095
      2 C          -0.6188   -1.7752   -0.2954 C.ar    1  LIG1        0.0256
      3 C          -0.2020   -0.4106   -0.4712 C.ar    1  LIG1        0.0333
      4 C          -0.8785    0.4541    0.3484 C.ar    1  LIG1        0.0412
      5 S          -2.0228   -0.4005    1.3485 S.2     1  LIG1       -0.0939
      6 H          -2.0753   -2.8203    0.9554 H       1  LIG1        0.0705
      7 S           0.0945   -3.1697   -1.1299 S.3     1  LIG1       -0.1410
      8 H          -0.2704   -2.8241   -2.3787 H       1  LIG1        0.1072
      9 S           1.0236    0.0024   -1.6735 S.3     1  LIG1       -0.1404
     10 H           0.8502    1.3326   -1.5901 H       1  LIG1        0.1072
     11 C          -0.7432    1.9043    0.4584 C.ar    1  LIG1        0.0418
     12 C           0.3298    2.6293    0.9119 C.ar    1  LIG1        0.0339
     13 C           0.0958    4.0462    0.8857 C.ar    1  LIG1        0.0339
     14 C          -1.1563    4.3711    0.4321 C.ar    1  LIG1        0.0418
     15 S          -2.0502    2.9467   -0.0036 S.2     1  LIG1       -0.0849
     16 S           1.8387    1.8716    1.4496 S.3     1  LIG1       -0.1404
     17 H           2.0249    2.6801    2.5090 H       1  LIG1        0.1072
     18 S           1.3333    5.1765    1.4443 S.3     1  LIG1       -0.1404
     19 H           0.5318    6.2548    1.4434 H       1  LIG1        0.1072
     20 C          -1.7555    5.6951    0.2787 C.ar    1  LIG1        0.0412
     21 C          -1.4388    6.6712   -0.6314 C.ar    1  LIG1        0.0333
     22 C          -2.2674    7.8420   -0.4912 C.ar    1  LIG1        0.0256
     23 C          -3.1972    7.7049    0.4950 C.ar    1  LIG1       -0.0095
     24 S          -3.0838    6.1933    1.2934 S.2     1  LIG1       -0.0939
     25 H          -3.9375    8.4348    0.7886 H       1  LIG1        0.0705
     26 S          -0.1485    6.4783   -1.8196 S.3     1  LIG1       -0.1404
     27 H          -0.5874    7.4693   -2.6174 H       1  LIG1        0.1072
     28 S          -2.2103    9.2725   -1.5417 S.3     1  LIG1       -0.1410
     29 H          -1.0655    9.7988   -1.0660 H       1  LIG1        0.1072
@<TRIPOS>BOND
     1    27    26    1
     2     8     7    1
     3    26    21    1
     4     9    10    1
     5     9     3    1
     6    28    29    1
     7    28    22    1
     8     7     2    1
     9    21    22   ar
    10    21    20   ar
    11    22    23   ar
    12     3     2   ar
    13     3     4   ar
    14     2     1   ar
    15    15    14   ar
    16    15    11   ar
    17    20    14    1
    18    20    24   ar
    19     4    11    1
    20     4     5   ar
    21    14    13   ar
    22    11    12   ar
    23    23    25    1
    24    23    24   ar
    25     1     6    1
    26     1     5   ar
    27    13    12   ar
    28    13    18    1
    29    12    16    1
    30    19    18    1
    31    16    17    1
