@<TRIPOS>MOLECULE
mol_data/opt/cam/geoms/mol2/5gg5gg5gg-5gg.out
 38 41 0 0 0
SMALL
GASTEIGER

@<TRIPOS>ATOM
      1 C          -1.8350   -1.9035   -0.0372 C.ar    1  LIG1       -0.0095
      2 C          -0.7283   -1.7227   -0.8092 C.ar    1  LIG1        0.0256
      3 C          -0.2365   -0.3731   -0.7572 C.ar    1  LIG1        0.0333
      4 C          -0.9958    0.4320    0.0517 C.ar    1  LIG1        0.0412
      5 S          -2.3065   -0.4676    0.7712 S.2     1  LIG1       -0.0939
      6 H          -2.3925   -2.8205    0.0867 H       1  LIG1        0.0705
      7 S           0.0444   -3.0508   -1.6980 S.3     1  LIG1       -0.1410
      8 H          -0.1593   -2.5679   -2.9380 H       1  LIG1        0.1072
      9 S           1.1743    0.1071   -1.6994 S.3     1  LIG1       -0.1404
     10 H           1.1315    1.4009   -1.3390 H       1  LIG1        0.1072
     11 C          -0.8266    1.8555    0.3386 C.ar    1  LIG1        0.0418
     12 C           0.1181    2.4535    1.1328 C.ar    1  LIG1        0.0339
     13 C          -0.0283    3.8840    1.1907 C.ar    1  LIG1        0.0339
     14 C          -1.0818    4.3376    0.4368 C.ar    1  LIG1        0.0418
     15 S          -1.8964    3.0346   -0.3581 S.2     1  LIG1       -0.0849
     16 S           1.3332    1.5093    1.9972 S.3     1  LIG1       -0.1404
     17 H           1.9874    2.5848    2.4724 H       1  LIG1        0.1072
     18 S           0.9848    4.9255    2.2101 S.3     1  LIG1       -0.1404
     19 H           1.5317    5.6347    1.2018 H       1  LIG1        0.1072
     20 C          -1.5586    5.7115    0.2721 C.ar    1  LIG1        0.0418
     21 C          -0.9265    6.7724   -0.3213 C.ar    1  LIG1        0.0339
     22 C          -1.7129    7.9727   -0.3022 C.ar    1  LIG1        0.0339
     23 C          -2.9309    7.7985    0.3021 C.ar    1  LIG1        0.0418
     24 S          -3.1290    6.1615    0.8460 S.2     1  LIG1       -0.0849
     25 S           0.6551    6.6193   -1.1072 S.3     1  LIG1       -0.1404
     26 H           1.0907    7.8547   -0.7992 H       1  LIG1        0.1072
     27 S          -1.0942    9.4786   -0.9899 S.3     1  LIG1       -0.1404
     28 H          -2.0351   10.2674   -0.4449 H       1  LIG1        0.1072
     29 C          -3.9919    8.7807    0.5149 C.ar    1  LIG1        0.0412
     30 C          -4.8126    9.3617   -0.4182 C.ar    1  LIG1        0.0333
     31 C          -5.7617   10.2688    0.1763 C.ar    1  LIG1        0.0256
     32 C          -5.6482   10.3236    1.5329 C.ar    1  LIG1       -0.0095
     33 S          -4.3921    9.3207    2.1245 S.2     1  LIG1       -0.0939
     34 H          -6.2473   10.9196    2.2059 H       1  LIG1        0.0705
     35 S          -4.6848    9.0147   -2.1431 S.3     1  LIG1       -0.1404
     36 H          -5.9057    9.4974   -2.4398 H       1  LIG1        0.1072
     37 S          -7.0365   11.1411   -0.7000 S.3     1  LIG1       -0.1410
     38 H          -6.2531   12.0739   -1.2745 H       1  LIG1        0.1072
@<TRIPOS>BOND
     1     8     7    1
     2    36    35    1
     3    35    30    1
     4     9    10    1
     5     9     3    1
     6     7     2    1
     7    38    37    1
     8    25    26    1
     9    25    21    1
    10    27    28    1
    11    27    22    1
    12     2     3   ar
    13     2     1   ar
    14     3     4   ar
    15    37    31    1
    16    30    31   ar
    17    30    29   ar
    18    15    11   ar
    19    15    14   ar
    20    21    22   ar
    21    21    20   ar
    22    22    23   ar
    23     1     6    1
    24     1     5   ar
    25     4    11    1
    26     4     5   ar
    27    31    32   ar
    28    20    14    1
    29    20    24   ar
    30    23    29    1
    31    23    24   ar
    32    11    12   ar
    33    14    13   ar
    34    29    33   ar
    35    12    13   ar
    36    12    16    1
    37    13    18    1
    38    19    18    1
    39    32    33   ar
    40    32    34    1
    41    16    17    1
