@<TRIPOS>MOLECULE
mol_data/opt/cam/geoms/mol2/5gg5gg5gg-5gg-.out
 38 41 0 0 0
SMALL
GASTEIGER

@<TRIPOS>ATOM
      1 C          -1.8691   -1.9036   -0.0108 C.ar    1  LIG1       -0.0095
      2 C          -0.7615   -1.7316   -0.7835 C.ar    1  LIG1        0.0256
      3 C          -0.2630   -0.3843   -0.7374 C.ar    1  LIG1        0.0333
      4 C          -1.0183    0.4281    0.0681 C.ar    1  LIG1        0.0412
      5 S          -2.3334   -0.4618    0.7915 S.2     1  LIG1       -0.0939
      6 H          -2.4311   -2.8173    0.1171 H       1  LIG1        0.0705
      7 S           0.0046   -3.0673   -1.6665 S.3     1  LIG1       -0.1410
      8 H          -0.1968   -2.5888   -2.9086 H       1  LIG1        0.1072
      9 S           1.1502    0.0849   -1.6817 S.3     1  LIG1       -0.1404
     10 H           1.1138    1.3804   -1.3268 H       1  LIG1        0.1072
     11 C          -0.8420    1.8519    0.3488 C.ar    1  LIG1        0.0418
     12 C           0.1057    2.4487    1.1404 C.ar    1  LIG1        0.0339
     13 C          -0.0336    3.8801    1.1921 C.ar    1  LIG1        0.0339
     14 C          -1.0849    4.3358    0.4363 C.ar    1  LIG1        0.0418
     15 S          -1.9059    3.0334   -0.3530 S.2     1  LIG1       -0.0849
     16 S           1.3160    1.5022    2.0089 S.3     1  LIG1       -0.1404
     17 H           1.9756    2.5766    2.4794 H       1  LIG1        0.1072
     18 S           0.9846    4.9210    2.2070 S.3     1  LIG1       -0.1404
     19 H           1.5351    5.6231    1.1956 H       1  LIG1        0.1072
     20 C          -1.5548    5.7113    0.2656 C.ar    1  LIG1        0.0418
     21 C          -0.9175    6.7664   -0.3324 C.ar    1  LIG1        0.0339
     22 C          -1.6979    7.9707   -0.3185 C.ar    1  LIG1        0.0339
     23 C          -2.9167    7.8052    0.2865 C.ar    1  LIG1        0.0418
     24 S          -3.1229    6.1716    0.8375 S.2     1  LIG1       -0.0849
     25 S           0.6634    6.6021   -1.1176 S.3     1  LIG1       -0.1404
     26 H           1.1051    7.8366   -0.8150 H       1  LIG1        0.1072
     27 S          -1.0717    9.4704   -1.0127 S.3     1  LIG1       -0.1404
     28 H          -2.0087   10.2663   -0.4712 H       1  LIG1        0.1072
     29 C          -3.9728    8.7936    0.4950 C.ar    1  LIG1        0.0412
     30 C          -4.7907    9.3746   -0.4406 C.ar    1  LIG1        0.0333
     31 C          -5.7352   10.2890    0.1500 C.ar    1  LIG1        0.0256
     32 C          -5.6214   10.3490    1.5063 C.ar    1  LIG1       -0.0095
     33 S          -4.3704    9.3425    2.1023 S.2     1  LIG1       -0.0939
     34 H          -6.2176   10.9509    2.1768 H       1  LIG1        0.0705
     35 S          -4.6646    9.0194   -2.1639 S.3     1  LIG1       -0.1404
     36 H          -5.8831    9.5069   -2.4627 H       1  LIG1        0.1072
     37 S          -7.0056   11.1638   -0.7301 S.3     1  LIG1       -0.1410
     38 H          -6.2176   12.0902   -1.3086 H       1  LIG1        0.1072
@<TRIPOS>BOND
     1     8     7    1
     2    36    35    1
     3    35    30    1
     4     9    10    1
     5     9     3    1
     6     7     2    1
     7    38    37    1
     8    25    26    1
     9    25    21    1
    10    27    28    1
    11    27    22    1
    12     2     3   ar
    13     2     1   ar
    14     3     4   ar
    15    37    31    1
    16    30    31   ar
    17    30    29   ar
    18    15    11   ar
    19    15    14   ar
    20    21    22   ar
    21    21    20   ar
    22    22    23   ar
    23     1     6    1
    24     1     5   ar
    25     4    11    1
    26     4     5   ar
    27    31    32   ar
    28    20    14    1
    29    20    24   ar
    30    23    29    1
    31    23    24   ar
    32    11    12   ar
    33    14    13   ar
    34    29    33   ar
    35    12    13   ar
    36    12    16    1
    37    13    18    1
    38    19    18    1
    39    32    33   ar
    40    32    34    1
    41    16    17    1
