@<TRIPOS>MOLECULE
mol_data/opt/cam/geoms/mol2/5gg5gg-5gg5gg.out
 38 41 0 0 0
SMALL
GASTEIGER

@<TRIPOS>ATOM
      1 C          -0.5824   -1.5299    2.2413 C.ar    1  LIG1       -0.0095
      2 C          -0.9366   -1.7138    0.9398 C.ar    1  LIG1        0.0256
      3 C          -0.9354   -0.4868    0.1918 C.ar    1  LIG1        0.0333
      4 C          -0.5613    0.5899    0.9510 C.ar    1  LIG1        0.0412
      5 S          -0.2324    0.1109    2.5948 S.2     1  LIG1       -0.0939
      6 H          -0.5031   -2.2915    3.0032 H       1  LIG1        0.0705
      7 S          -1.4430   -3.2901    0.3005 S.3     1  LIG1       -0.1410
      8 H          -0.4718   -3.4177   -0.6228 H       1  LIG1        0.1072
      9 S          -1.3946   -0.4659   -1.5114 S.3     1  LIG1       -0.1404
     10 H          -1.0178    0.8053   -1.7265 H       1  LIG1        0.1072
     11 C          -0.4538    1.9919    0.5449 C.ar    1  LIG1        0.0418
     12 C           0.5389    2.5914   -0.1871 C.ar    1  LIG1        0.0339
     13 C           0.3081    3.9922   -0.3997 C.ar    1  LIG1        0.0339
     14 C          -0.8573    4.4286    0.1732 C.ar    1  LIG1        0.0418
     15 S          -1.6798    3.1344    0.9871 S.2     1  LIG1       -0.0849
     16 S           1.9814    1.7104   -0.7181 S.3     1  LIG1       -0.1404
     17 H           2.0977    2.3253   -1.9090 H       1  LIG1        0.1072
     18 S           1.4513    4.9724   -1.3208 S.3     1  LIG1       -0.1404
     19 H           0.6708    6.0643   -1.3738 H       1  LIG1        0.1072
     20 C          -1.4228    5.7790    0.1498 C.ar    1  LIG1        0.0418
     21 C          -1.0095    6.8859    0.8460 C.ar    1  LIG1        0.0339
     22 C          -1.7997    8.0505    0.5610 C.ar    1  LIG1        0.0339
     23 C          -2.7993    7.8063   -0.3448 C.ar    1  LIG1        0.0418
     24 S          -2.7928    6.1432   -0.8483 S.2     1  LIG1       -0.0849
     25 S           0.3000    6.8196    2.0358 S.3     1  LIG1       -0.1404
     26 H           0.8782    7.9828    1.6855 H       1  LIG1        0.1072
     27 S          -1.4322    9.5986    1.3275 S.3     1  LIG1       -0.1404
     28 H          -2.2701   10.3217    0.5657 H       1  LIG1        0.1072
     29 C          -3.7954    8.7352   -0.8753 C.ar    1  LIG1        0.0412
     30 C          -4.8645    9.2969   -0.2251 C.ar    1  LIG1        0.0333
     31 C          -5.6426   10.1511   -1.0867 C.ar    1  LIG1        0.0256
     32 C          -5.1573   10.1863   -2.3591 C.ar    1  LIG1       -0.0095
     33 S          -3.7505    9.2271   -2.5480 S.2     1  LIG1       -0.0939
     34 H          -5.5658   10.7437   -3.1895 H       1  LIG1        0.0705
     35 S          -5.2082    8.9883    1.4775 S.3     1  LIG1       -0.1404
     36 H          -6.4811    9.4203    1.4100 H       1  LIG1        0.1072
     37 S          -7.1425   10.9826   -0.6260 S.3     1  LIG1       -0.1410
     38 H          -6.5866   11.9515    0.1263 H       1  LIG1        0.1072
@<TRIPOS>BOND
     1    34    32    1
     2    33    32   ar
     3    33    29   ar
     4    32    31   ar
     5    17    16    1
     6    10     9    1
     7     9     3    1
     8    19    18    1
     9    18    13    1
    10    31    37    1
    11    31    30   ar
    12    29    23    1
    13    29    30   ar
    14    24    23   ar
    15    24    20   ar
    16    16    12    1
    17    37    38    1
    18     8     7    1
    19    13    12   ar
    20    13    14   ar
    21    23    22   ar
    22    30    35    1
    23    12    11   ar
    24    20    14    1
    25    20    21   ar
    26    14    15   ar
    27     3     2   ar
    28     3     4   ar
    29     7     2    1
    30    11     4    1
    31    11    15   ar
    32    22    21   ar
    33    22    27    1
    34    28    27    1
    35    21    25    1
    36     2     1   ar
    37     4     5   ar
    38    36    35    1
    39    26    25    1
    40     1     5   ar
    41     1     6    1
