@<TRIPOS>MOLECULE
mol_data/opt/cam/geoms/mol2/5gg5gg5gg5gg-.out
 38 41 0 0 0
SMALL
GASTEIGER

@<TRIPOS>ATOM
      1 C          -1.5296   -2.0169    0.5521 C.ar    1  LIG1       -0.0095
      2 C          -0.4804   -1.8614   -0.3014 C.ar    1  LIG1        0.0256
      3 C          -0.0904   -0.4858   -0.4482 C.ar    1  LIG1        0.0333
      4 C          -0.8666    0.3629    0.2978 C.ar    1  LIG1        0.0412
      5 S          -2.0670   -0.5243    1.2015 S.2     1  LIG1       -0.0939
      6 H          -2.0089   -2.9463    0.8230 H       1  LIG1        0.0705
      7 S           0.3444   -3.2368   -1.0621 S.3     1  LIG1       -0.1410
      8 H           0.0451   -2.9307   -2.3384 H       1  LIG1        0.1072
      9 S           1.2307   -0.0356   -1.5256 S.3     1  LIG1       -0.1404
     10 H           1.1058    1.2882   -1.3319 H       1  LIG1        0.1072
     11 C          -0.7917    1.8197    0.3940 C.ar    1  LIG1        0.0418
     12 C           0.1451    2.5788    1.0475 C.ar    1  LIG1        0.0339
     13 C          -0.1076    3.9915    0.9374 C.ar    1  LIG1        0.0339
     14 C          -1.2319    4.2705    0.1999 C.ar    1  LIG1        0.0418
     15 S          -1.9834    2.8225   -0.3775 S.2     1  LIG1       -0.0849
     16 S           1.4726    1.8401    1.9460 S.3     1  LIG1       -0.1404
     17 H           2.0702    3.0101    2.2368 H       1  LIG1        0.1072
     18 S           0.8685    5.2193    1.7699 S.3     1  LIG1       -0.1404
     19 H           1.2783    5.8739    0.6637 H       1  LIG1        0.1072
     20 C          -1.8079    5.5772   -0.1130 C.ar    1  LIG1        0.0418
     21 C          -1.2725    6.5779   -0.8801 C.ar    1  LIG1        0.0339
     22 C          -2.1312    7.7272   -0.9763 C.ar    1  LIG1        0.0339
     23 C          -3.3046    7.5670   -0.2809 C.ar    1  LIG1        0.0418
     24 S          -3.3632    6.0283    0.5087 S.2     1  LIG1       -0.0849
     25 S           0.2799    6.3949   -1.7058 S.3     1  LIG1       -0.1404
     26 H           0.3649    7.6861   -2.0760 H       1  LIG1        0.1072
     27 S          -1.7505    9.1368   -1.9882 S.3     1  LIG1       -0.1404
     28 H          -1.7270   10.0523   -0.9984 H       1  LIG1        0.1072
     29 C          -4.4173    8.5053   -0.1561 C.ar    1  LIG1        0.0412
     30 C          -4.4243    9.7344    0.4484 C.ar    1  LIG1        0.0333
     31 C          -5.7077   10.3820    0.3621 C.ar    1  LIG1        0.0256
     32 C          -6.6343    9.6089   -0.2706 C.ar    1  LIG1       -0.0095
     33 S          -5.9864    8.1159   -0.8020 S.2     1  LIG1       -0.0939
     34 H          -7.6694    9.8603   -0.4503 H       1  LIG1        0.0705
     35 S          -3.0070   10.3901    1.2721 S.3     1  LIG1       -0.1404
     36 H          -3.6237   11.5151    1.6793 H       1  LIG1        0.1072
     37 S          -6.1037   11.9661    1.0638 S.3     1  LIG1       -0.1410
     38 H          -5.6744   12.7273    0.0391 H       1  LIG1        0.1072
@<TRIPOS>BOND
     1     8     7    1
     2    26    25    1
     3    27    28    1
     4    27    22    1
     5    25    21    1
     6     9    10    1
     7     9     3    1
     8     7     2    1
     9    22    21   ar
    10    22    23   ar
    11    21    20   ar
    12    33    32   ar
    13    33    29   ar
    14    34    32    1
    15     3     2   ar
    16     3     4   ar
    17    15    14   ar
    18    15    11   ar
    19     2     1   ar
    20    23    29    1
    21    23    24   ar
    22    32    31   ar
    23    29    30   ar
    24    20    14    1
    25    20    24   ar
    26    38    37    1
    27    14    13   ar
    28     4    11    1
    29     4     5   ar
    30    31    30   ar
    31    31    37    1
    32    11    12   ar
    33    30    35    1
    34     1     6    1
    35     1     5   ar
    36    19    18    1
    37    13    12   ar
    38    13    18    1
    39    12    16    1
    40    35    36    1
    41    16    17    1
