@<TRIPOS>MOLECULE
mol_data/opt/cam/geoms/mol2/5gg5gg5gg5gg.out
 38 41 0 0 0
SMALL
GASTEIGER

@<TRIPOS>ATOM
      1 C          -1.6086   -2.0277    0.4528 C.ar    1  LIG1       -0.0095
      2 C          -0.5145   -1.8663   -0.3409 C.ar    1  LIG1        0.0256
      3 C          -0.1076   -0.4915   -0.4433 C.ar    1  LIG1        0.0333
      4 C          -0.9166    0.3507    0.2747 C.ar    1  LIG1        0.0412
      5 S          -2.1696   -0.5421    1.0981 S.2     1  LIG1       -0.0939
      6 H          -2.1081   -2.9578    0.6819 H       1  LIG1        0.0705
      7 S           0.3402   -3.2352   -1.0800 S.3     1  LIG1       -0.1410
      8 H           0.1115   -2.9055   -2.3651 H       1  LIG1        0.1072
      9 S           1.2721   -0.0337   -1.4411 S.3     1  LIG1       -0.1404
     10 H           1.1462    1.2876   -1.2317 H       1  LIG1        0.1072
     11 C          -0.8369    1.8051    0.3996 C.ar    1  LIG1        0.0418
     12 C           0.0690    2.5459    1.1148 C.ar    1  LIG1        0.0339
     13 C          -0.1678    3.9621    1.0156 C.ar    1  LIG1        0.0339
     14 C          -1.2492    4.2621    0.2242 C.ar    1  LIG1        0.0418
     15 S          -1.9788    2.8299   -0.4169 S.2     1  LIG1       -0.0849
     16 S           1.3416    1.7819    2.0699 S.3     1  LIG1       -0.1404
     17 H           1.9309    2.9422    2.4120 H       1  LIG1        0.1072
     18 S           0.7711    5.1682    1.9196 S.3     1  LIG1       -0.1404
     19 H           1.2438    5.8379    0.8481 H       1  LIG1        0.1072
     20 C          -1.7986    5.5783   -0.0965 C.ar    1  LIG1        0.0418
     21 C          -1.2162    6.5875   -0.8169 C.ar    1  LIG1        0.0339
     22 C          -2.0606    7.7448   -0.9390 C.ar    1  LIG1        0.0339
     23 C          -3.2704    7.5823   -0.3098 C.ar    1  LIG1        0.0418
     24 S          -3.3817    6.0311    0.4492 S.2     1  LIG1       -0.0849
     25 S           0.3767    6.4061   -1.5619 S.3     1  LIG1       -0.1404
     26 H           0.4902    7.7026   -1.9050 H       1  LIG1        0.1072
     27 S          -1.6168    9.1681   -1.9050 S.3     1  LIG1       -0.1404
     28 H          -1.6398   10.0667   -0.8998 H       1  LIG1        0.1072
     29 C          -4.3817    8.5270   -0.2282 C.ar    1  LIG1        0.0412
     30 C          -4.4124    9.7459    0.3959 C.ar    1  LIG1        0.0333
     31 C          -5.6849   10.4048    0.2526 C.ar    1  LIG1        0.0256
     32 C          -6.5818    9.6497   -0.4416 C.ar    1  LIG1       -0.0095
     33 S          -5.9168    8.1607   -0.9632 S.2     1  LIG1       -0.0939
     34 H          -7.6041    9.9121   -0.6718 H       1  LIG1        0.0705
     35 S          -3.0366   10.3767    1.3048 S.3     1  LIG1       -0.1404
     36 H          -3.6663   11.4995    1.6978 H       1  LIG1        0.1072
     37 S          -6.1068   11.9800    0.9592 S.3     1  LIG1       -0.1410
     38 H          -5.6182   12.7549   -0.0281 H       1  LIG1        0.1072
@<TRIPOS>BOND
     1     8     7    1
     2    27    22    1
     3    27    28    1
     4    26    25    1
     5    25    21    1
     6     9    10    1
     7     9     3    1
     8     7     2    1
     9    33    32   ar
    10    33    29   ar
    11    22    21   ar
    12    22    23   ar
    13    21    20   ar
    14    34    32    1
    15     3     2   ar
    16     3     4   ar
    17    32    31   ar
    18    15    14   ar
    19    15    11   ar
    20     2     1   ar
    21    23    29    1
    22    23    24   ar
    23    29    30   ar
    24    20    14    1
    25    20    24   ar
    26    38    37    1
    27    14    13   ar
    28    31    30   ar
    29    31    37    1
    30     4    11    1
    31     4     5   ar
    32    30    35    1
    33    11    12   ar
    34     1     6    1
    35     1     5   ar
    36    19    18    1
    37    13    12   ar
    38    13    18    1
    39    12    16    1
    40    35    36    1
    41    16    17    1
