@<TRIPOS>MOLECULE
mol_data/opt/cam/geoms/mol2/5gg5gg-5gg5gg-.out
 38 41 0 0 0
SMALL
GASTEIGER

@<TRIPOS>ATOM
      1 C          -0.5674   -1.5039    2.3037 C.ar    1  LIG1       -0.0095
      2 C          -0.9518   -1.7047    1.0133 C.ar    1  LIG1        0.0256
      3 C          -0.9609   -0.4887    0.2476 C.ar    1  LIG1        0.0333
      4 C          -0.5639    0.5967    0.9823 C.ar    1  LIG1        0.0412
      5 S          -0.2006    0.1399    2.6251 S.2     1  LIG1       -0.0939
      6 H          -0.4749   -2.2548    3.0747 H       1  LIG1        0.0705
      7 S          -1.4809   -3.2871    0.4087 S.3     1  LIG1       -0.1410
      8 H          -0.5316   -3.4337   -0.5342 H       1  LIG1        0.1072
      9 S          -1.4583   -0.4899   -1.4450 S.3     1  LIG1       -0.1404
     10 H          -1.0795    0.7759   -1.6872 H       1  LIG1        0.1072
     11 C          -0.4581    1.9921    0.5534 C.ar    1  LIG1        0.0418
     12 C           0.5211    2.5752   -0.2095 C.ar    1  LIG1        0.0339
     13 C           0.2932    3.9740   -0.4373 C.ar    1  LIG1        0.0339
     14 C          -0.8567    4.4254    0.1552 C.ar    1  LIG1        0.0418
     15 S          -1.6675    3.1479    1.0063 S.2     1  LIG1       -0.0849
     16 S           1.9464    1.6783   -0.7598 S.3     1  LIG1       -0.1404
     17 H           2.0392    2.2752   -1.9619 H       1  LIG1        0.1072
     18 S           1.4206    4.9342   -1.3981 S.3     1  LIG1       -0.1404
     19 H           0.6450    6.0296   -1.4496 H       1  LIG1        0.1072
     20 C          -1.4153    5.7786    0.1247 C.ar    1  LIG1        0.0418
     21 C          -0.9804    6.8930    0.7952 C.ar    1  LIG1        0.0339
     22 C          -1.7706    8.0579    0.5110 C.ar    1  LIG1        0.0339
     23 C          -2.7916    7.8062   -0.3685 C.ar    1  LIG1        0.0418
     24 S          -2.8055    6.1360   -0.8475 S.2     1  LIG1       -0.0849
     25 S           0.3553    6.8365    1.9560 S.3     1  LIG1       -0.1404
     26 H           0.9317    7.9912    1.5758 H       1  LIG1        0.1072
     27 S          -1.3774    9.6148    1.2462 S.3     1  LIG1       -0.1404
     28 H          -2.2284   10.3315    0.4930 H       1  LIG1        0.1072
     29 C          -3.7944    8.7330   -0.8899 C.ar    1  LIG1        0.0412
     30 C          -4.8456    9.3102   -0.2241 C.ar    1  LIG1        0.0333
     31 C          -5.6383   10.1563   -1.0804 C.ar    1  LIG1        0.0256
     32 C          -5.1816   10.1701   -2.3639 C.ar    1  LIG1       -0.0095
     33 S          -3.7847    9.2003   -2.5702 S.2     1  LIG1       -0.0939
     34 H          -5.6058   10.7178   -3.1929 H       1  LIG1        0.0705
     35 S          -5.1523    9.0284    1.4901 S.3     1  LIG1       -0.1404
     36 H          -6.4241    9.4666    1.4449 H       1  LIG1        0.1072
     37 S          -7.1229   11.0030   -0.5984 S.3     1  LIG1       -0.1410
     38 H          -6.5449   11.9795    0.1270 H       1  LIG1        0.1072
@<TRIPOS>BOND
     1    34    32    1
     2    33    32   ar
     3    33    29   ar
     4    32    31   ar
     5    17    16    1
     6    10     9    1
     7    19    18    1
     8     9     3    1
     9    18    13    1
    10    31    37    1
    11    31    30   ar
    12    29    23    1
    13    29    30   ar
    14    24    23   ar
    15    24    20   ar
    16    16    12    1
    17    37    38    1
    18     8     7    1
    19    13    12   ar
    20    13    14   ar
    21    23    22   ar
    22    30    35    1
    23    12    11   ar
    24    20    14    1
    25    20    21   ar
    26    14    15   ar
    27     3     4   ar
    28     3     2   ar
    29     7     2    1
    30    28    27    1
    31    22    21   ar
    32    22    27    1
    33    11     4    1
    34    11    15   ar
    35    21    25    1
    36     4     5   ar
    37     2     1   ar
    38    36    35    1
    39    26    25    1
    40     1     5   ar
    41     1     6    1
