@<TRIPOS>MOLECULE
mol_data/opt/cam/geoms/mol2/5gg5gg-.out
 20 21 0 0 0
SMALL
GASTEIGER

@<TRIPOS>ATOM
      1 C          -1.7551   -1.7269    0.9350 C.ar    1  LIG1       -0.0095
      2 C          -0.6159   -1.7767    0.1915 C.ar    1  LIG1        0.0256
      3 C          -0.1923   -0.4766   -0.2515 C.ar    1  LIG1        0.0333
      4 C          -1.0323    0.5221    0.1676 C.ar    1  LIG1        0.0412
      5 S          -2.3379   -0.1261    1.1257 S.2     1  LIG1       -0.0939
      6 H          -2.2760   -2.5649    1.3748 H       1  LIG1        0.0705
      7 S           0.2688   -3.2870   -0.1031 S.3     1  LIG1       -0.1410
      8 H           0.1187   -3.3146   -1.4406 H       1  LIG1        0.1072
      9 S           1.2455   -0.2954   -1.2587 S.3     1  LIG1       -0.1404
     10 H           1.0896    1.0236   -1.4642 H       1  LIG1        0.1072
     11 C          -0.9422    1.9584   -0.0849 C.ar    1  LIG1        0.0412
     12 C          -0.0505    2.8589    0.4391 C.ar    1  LIG1        0.0333
     13 C          -0.2800    4.2000   -0.0359 C.ar    1  LIG1        0.0256
     14 C          -1.3488    4.2769   -0.8774 C.ar    1  LIG1       -0.0095
     15 S          -2.0804    2.7509   -1.1427 S.2     1  LIG1       -0.0939
     16 H          -1.7287    5.1678   -1.3560 H       1  LIG1        0.0705
     17 S           1.2255    2.3813    1.5609 S.3     1  LIG1       -0.1404
     18 H           1.4771    3.6359    1.9779 H       1  LIG1        0.1072
     19 S           0.6186    5.6419    0.4819 S.3     1  LIG1       -0.1410
     20 H           1.7428    5.4177   -0.2249 H       1  LIG1        0.1072
@<TRIPOS>BOND
     1    10     9    1
     2     8     7    1
     3    16    14    1
     4     9     3    1
     5    15    14   ar
     6    15    11   ar
     7    14    13   ar
     8     3     4   ar
     9     3     2   ar
    10    20    19    1
    11     7     2    1
    12    11     4    1
    13    11    12   ar
    14    13    12   ar
    15    13    19    1
    16     4     5   ar
    17     2     1   ar
    18    12    17    1
    19     1     5   ar
    20     1     6    1
    21    17    18    1
