@<TRIPOS>MOLECULE
mol_data/opt/cam/geoms/mol2/5gg5gg.out
 20 21 0 0 0
SMALL
GASTEIGER

@<TRIPOS>ATOM
      1 C          -1.7847   -1.6723    1.0641 C.ar    1  LIG1       -0.0095
      2 C          -0.6281   -1.7622    0.3517 C.ar    1  LIG1        0.0256
      3 C          -0.1908   -0.4875   -0.1480 C.ar    1  LIG1        0.0333
      4 C          -1.0381    0.5327    0.1982 C.ar    1  LIG1        0.0412
      5 S          -2.3679   -0.0631    1.1572 S.2     1  LIG1       -0.0939
      6 H          -2.3180   -2.4856    1.5343 H       1  LIG1        0.0705
      7 S           0.2596   -3.2869    0.1575 S.3     1  LIG1       -0.1410
      8 H           0.1414   -3.3839   -1.1800 H       1  LIG1        0.1072
      9 S           1.2711   -0.3608   -1.1285 S.3     1  LIG1       -0.1404
     10 H           1.1234    0.9458   -1.4061 H       1  LIG1        0.1072
     11 C          -0.9384    1.9538   -0.1265 C.ar    1  LIG1        0.0412
     12 C          -0.0572    2.8792    0.3712 C.ar    1  LIG1        0.0333
     13 C          -0.2719    4.1941   -0.1784 C.ar    1  LIG1        0.0256
     14 C          -1.3201    4.2284   -1.0481 C.ar    1  LIG1       -0.0095
     15 S          -2.0490    2.6916   -1.2512 S.2     1  LIG1       -0.0939
     16 H          -1.6863    5.0936   -1.5815 H       1  LIG1        0.0705
     17 S           1.1903    2.4591    1.5467 S.3     1  LIG1       -0.1404
     18 H           1.4351    3.7335    1.9037 H       1  LIG1        0.1072
     19 S           0.6176    5.6599    0.2851 S.3     1  LIG1       -0.1410
     20 H           1.7578    5.3977   -0.3818 H       1  LIG1        0.1072
@<TRIPOS>BOND
     1    16    14    1
     2    10     9    1
     3    15    14   ar
     4    15    11   ar
     5     8     7    1
     6     9     3    1
     7    14    13   ar
     8    20    19    1
     9    13    19    1
    10    13    12   ar
    11     3     4   ar
    12     3     2   ar
    13    11     4    1
    14    11    12   ar
    15     7     2    1
    16     4     5   ar
    17     2     1   ar
    18    12    17    1
    19     1     5   ar
    20     1     6    1
    21    17    18    1
