@<TRIPOS>MOLECULE
mol_data/opt/cam/geoms/mol2/5gg5gg5gg.out
 29 31 0 0 0
SMALL
GASTEIGER

@<TRIPOS>ATOM
      1 C          -1.6023   -1.9022    0.6515 C.ar    1  LIG1       -0.0095
      2 C          -0.6400   -1.7758   -0.3025 C.ar    1  LIG1        0.0256
      3 C          -0.2204   -0.4126   -0.4829 C.ar    1  LIG1        0.0333
      4 C          -0.8845    0.4543    0.3445 C.ar    1  LIG1        0.0412
      5 S          -2.0204   -0.3964    1.3574 S.2     1  LIG1       -0.0939
      6 H          -2.0859   -2.8160    0.9646 H       1  LIG1        0.0705
      7 S           0.0588   -3.1726   -1.1454 S.3     1  LIG1       -0.1410
      8 H          -0.3191   -2.8254   -2.3899 H       1  LIG1        0.1072
      9 S           0.9928   -0.0036   -1.6990 S.3     1  LIG1       -0.1404
     10 H           0.8251    1.3271   -1.6133 H       1  LIG1        0.1072
     11 C          -0.7429    1.9040    0.4532 C.ar    1  LIG1        0.0418
     12 C           0.3378    2.6251    0.8946 C.ar    1  LIG1        0.0339
     13 C           0.1085    4.0428    0.8713 C.ar    1  LIG1        0.0339
     14 C          -1.1475    4.3723    0.4320 C.ar    1  LIG1        0.0418
     15 S          -2.0514    2.9511    0.0062 S.2     1  LIG1       -0.0849
     16 S           1.8500    1.8620    1.4150 S.3     1  LIG1       -0.1404
     17 H           2.0511    2.6697    2.4723 H       1  LIG1        0.1072
     18 S           1.3562    5.1687    1.4160 S.3     1  LIG1       -0.1404
     19 H           0.5586    6.2498    1.4244 H       1  LIG1        0.1072
     20 C          -1.7438    5.6984    0.2857 C.ar    1  LIG1        0.0412
     21 C          -1.4341    6.6735   -0.6279 C.ar    1  LIG1        0.0333
     22 C          -2.2568    7.8472   -0.4780 C.ar    1  LIG1        0.0256
     23 C          -3.1758    7.7132    0.5187 C.ar    1  LIG1       -0.0095
     24 S          -3.0587    6.2011    1.3154 S.2     1  LIG1       -0.0939
     25 H          -3.9102    8.4457    0.8208 H       1  LIG1        0.0705
     26 S          -0.1580    6.4763   -1.8307 S.3     1  LIG1       -0.1404
     27 H          -0.6024    7.4691   -2.6232 H       1  LIG1        0.1072
     28 S          -2.2066    9.2778   -1.5289 S.3     1  LIG1       -0.1410
     29 H          -1.0547    9.7999   -1.0662 H       1  LIG1        0.1072
@<TRIPOS>BOND
     1    27    26    1
     2     8     7    1
     3    26    21    1
     4     9    10    1
     5     9     3    1
     6    28    29    1
     7    28    22    1
     8     7     2    1
     9    21    22   ar
    10    21    20   ar
    11     3     2   ar
    12     3     4   ar
    13    22    23   ar
    14     2     1   ar
    15    15    14   ar
    16    15    11   ar
    17    20    14    1
    18    20    24   ar
    19     4    11    1
    20     4     5   ar
    21    14    13   ar
    22    11    12   ar
    23    23    25    1
    24    23    24   ar
    25     1     6    1
    26     1     5   ar
    27    13    12   ar
    28    13    18    1
    29    12    16    1
    30    16    17    1
    31    18    19    1
