@<TRIPOS>MOLECULE
mol_data/opt/cam/geoms/mol2/5gg5gg-5gg-.out
 29 31 0 0 0
SMALL
GASTEIGER

@<TRIPOS>ATOM
      1 C          -1.5531   -1.6441    1.5147 C.ar    1  LIG1       -0.0095
      2 C          -0.8959   -1.7776    0.3300 C.ar    1  LIG1        0.0256
      3 C          -0.4672   -0.5148   -0.2057 C.ar    1  LIG1        0.0333
      4 C          -0.8228    0.5409    0.5912 C.ar    1  LIG1        0.0412
      5 S          -1.6691   -0.0078    2.0134 S.2     1  LIG1       -0.0939
      6 H          -1.9767   -2.4386    2.1116 H       1  LIG1        0.0705
      7 S          -0.5459   -3.3586   -0.3970 S.3     1  LIG1       -0.1410
      8 H          -1.2753   -3.1963   -1.5169 H       1  LIG1        0.1072
      9 S           0.3900   -0.4331   -1.7445 S.3     1  LIG1       -0.1404
     10 H           0.4436    0.9089   -1.7863 H       1  LIG1        0.1072
     11 C          -0.5838    1.9672    0.3669 C.ar    1  LIG1        0.0418
     12 C           0.5916    2.6636    0.4880 C.ar    1  LIG1        0.0339
     13 C           0.4506    4.0577    0.1736 C.ar    1  LIG1        0.0339
     14 C          -0.8298    4.3949   -0.1818 C.ar    1  LIG1        0.0418
     15 S          -1.8797    3.0110   -0.1201 S.2     1  LIG1       -0.0849
     16 S           2.0822    1.9056    1.0711 S.3     1  LIG1       -0.1404
     17 H           2.9089    2.5098    0.1984 H       1  LIG1        0.1072
     18 S           1.8382    5.1449    0.2462 S.3     1  LIG1       -0.1404
     19 H           1.1899    6.2113   -0.2511 H       1  LIG1        0.1072
     20 C          -1.3464    5.7046   -0.5782 C.ar    1  LIG1        0.0412
     21 C          -1.5857    6.7983    0.2136 C.ar    1  LIG1        0.0333
     22 C          -2.1110    7.9127   -0.5340 C.ar    1  LIG1        0.0256
     23 C          -2.2454    7.6307   -1.8603 C.ar    1  LIG1       -0.0095
     24 S          -1.7589    6.0334   -2.2407 S.2     1  LIG1       -0.0939
     25 H          -2.6156    8.2971   -2.6258 H       1  LIG1        0.0705
     26 S          -1.3152    6.7753    1.9562 S.3     1  LIG1       -0.1404
     27 H          -1.4560    8.1055    2.1052 H       1  LIG1        0.1072
     28 S          -2.4795    9.5160    0.1365 S.3     1  LIG1       -0.1410
     29 H          -3.6614    9.2059    0.7030 H       1  LIG1        0.1072
@<TRIPOS>BOND
     1    25    23    1
     2    24    23   ar
     3    24    20   ar
     4    23    22   ar
     5    10     9    1
     6     9     3    1
     7     8     7    1
     8    20    14    1
     9    20    21   ar
    10    22    28    1
    11    22    21   ar
    12     7     2    1
    13    19    18    1
    14     3     2   ar
    15     3     4   ar
    16    14    15   ar
    17    14    13   ar
    18    15    11   ar
    19    28    29    1
    20    13    18    1
    21    13    12   ar
    22    17    16    1
    23    21    26    1
    24     2     1   ar
    25    11    12   ar
    26    11     4    1
    27    12    16    1
    28     4     5   ar
    29     1     5   ar
    30     1     6    1
    31    26    27    1
