@<TRIPOS>MOLECULE
mol_data/opt/cam/geoms/mol2/5gh.out
 12 12 0 0 0
SMALL
GASTEIGER

@<TRIPOS>ATOM
      1 C          -2.0634   -1.6920    0.0150 C.ar    1  LIG1       -0.0093
      2 C          -0.7108   -1.6188   -0.1227 C.ar    1  LIG1        0.0324
      3 C          -0.2194   -0.2629   -0.1215 C.ar    1  LIG1        0.0450
      4 C          -1.2342    0.6374    0.0265 C.ar    1  LIG1       -0.0026
      5 S          -2.7763   -0.1380    0.1585 S.2     1  LIG1       -0.1021
      6 H          -2.6658   -2.5880    0.0401 H       1  LIG1        0.0705
      7 H          -1.1607    1.7141    0.0697 H       1  LIG1        0.0712
      8 S           0.3254   -3.0362   -0.3849 S.3     1  LIG1       -0.1403
      9 H           0.9700   -3.0107    0.7975 H       1  LIG1        0.1072
     10 N           1.1395    0.0208   -0.1989 N.pl3   1  LIG1       -0.3567
     11 H           1.6573   -0.6665   -0.7323 H       1  LIG1        0.1424
     12 H           1.3536    0.9629   -0.4925 H       1  LIG1        0.1424
@<TRIPOS>BOND
     1    11    10    1
     2    12    10    1
     3     8     2    1
     4     8     9    1
     5    10     3    1
     6     2     3   ar
     7     2     1   ar
     8     3     4   ar
     9     1     6    1
    10     1     5   ar
    11     4     7    1
    12     4     5   ar
