@<TRIPOS>MOLECULE
mol_data/opt/cam/geoms/mol2/5gh5gh-5gh-5gh.out
 42 45 0 0 0
SMALL
GASTEIGER

@<TRIPOS>ATOM
      1 C          -1.0630   -1.5780    2.0569 C.ar    1  LIG1       -0.0087
      2 C          -0.7853   -1.7787    0.7395 C.ar    1  LIG1        0.0331
      3 C          -0.5783   -0.5508    0.0186 C.ar    1  LIG1        0.0534
      4 C          -0.6844    0.5499    0.8340 C.ar    1  LIG1        0.0487
      5 S          -1.0639    0.0841    2.4746 S.2     1  LIG1       -0.0931
      6 H          -1.2613   -2.3377    2.7987 H       1  LIG1        0.0705
      7 S          -0.7959   -3.3767   -0.0335 S.3     1  LIG1       -0.1403
      8 H           0.5297   -3.4835   -0.2464 H       1  LIG1        0.1072
      9 N          -0.2843   -0.5303   -1.3324 N.pl3   1  LIG1       -0.3562
     10 H          -0.6259   -1.3392   -1.8352 H       1  LIG1        0.1424
     11 H          -0.4936    0.3421   -1.7977 H       1  LIG1        0.1424
     12 C          -0.5391    1.9444    0.4467 C.ar    1  LIG1        0.0433
     13 C           0.5161    2.5454   -0.1922 C.ar    1  LIG1        0.0414
     14 C           0.3019    3.9411   -0.4581 C.ar    1  LIG1        0.0540
     15 C          -0.9000    4.3901    0.0292 C.ar    1  LIG1        0.0493
     16 S          -1.8071    3.0910    0.7570 S.2     1  LIG1       -0.0841
     17 S           2.0135    1.7110   -0.6538 S.3     1  LIG1       -0.1397
     18 H           2.8357    2.6422   -0.1335 H       1  LIG1        0.1072
     19 N           1.2585    4.7177   -1.0950 N.pl3   1  LIG1       -0.3562
     20 H           1.7961    4.2089   -1.7855 H       1  LIG1        0.1424
     21 H           0.9054    5.5945   -1.4545 H       1  LIG1        0.1424
     22 C          -1.4245    5.7448   -0.0468 C.ar    1  LIG1        0.0433
     23 C          -0.8414    6.9109    0.3816 C.ar    1  LIG1        0.0414
     24 C          -1.6327    8.0786    0.1073 C.ar    1  LIG1        0.0540
     25 C          -2.8316    7.7739   -0.4864 C.ar    1  LIG1        0.0493
     26 S          -2.9730    6.0595   -0.7699 S.2     1  LIG1       -0.0841
     27 S           0.7292    7.0030    1.2042 S.3     1  LIG1       -0.1397
     28 H           0.2966    7.7954    2.2033 H       1  LIG1        0.1072
     29 N          -1.2103    9.3487    0.4725 N.pl3   1  LIG1       -0.3562
     30 H          -0.2071    9.4721    0.4159 H       1  LIG1        0.1424
     31 H          -1.7148   10.0974    0.0170 H       1  LIG1        0.1424
     32 C          -3.8782    8.7061   -0.8768 C.ar    1  LIG1        0.0427
     33 C          -4.5283    9.6340   -0.1030 C.ar    1  LIG1        0.0408
     34 C          -5.4956   10.4104   -0.8346 C.ar    1  LIG1        0.0456
     35 C          -5.5721   10.0313   -2.1413 C.ar    1  LIG1       -0.0020
     36 S          -4.4601    8.7640   -2.5161 S.2     1  LIG1       -0.0931
     37 H          -6.2243   10.4305   -2.9045 H       1  LIG1        0.0712
     38 S          -4.2463    9.8637    1.6338 S.3     1  LIG1       -0.1397
     39 H          -5.5519    9.9503    1.9517 H       1  LIG1        0.1072
     40 N          -6.2936   11.3586   -0.1938 N.pl3   1  LIG1       -0.3567
     41 H          -5.7803   11.9224    0.4732 H       1  LIG1        0.1424
     42 H          -6.8252   11.9392   -0.8274 H       1  LIG1        0.1424
@<TRIPOS>BOND
     1    37    35    1
     2    36    35   ar
     3    36    32   ar
     4    35    34   ar
     5    10     9    1
     6    11     9    1
     7    20    19    1
     8    21    19    1
     9     9     3    1
    10    19    14    1
    11    32    25    1
    12    32    33   ar
    13    34    40    1
    14    34    33   ar
    15    42    40    1
    16    26    25   ar
    17    26    22   ar
    18    17    13    1
    19    17    18    1
    20    25    24   ar
    21    14    13   ar
    22    14    15   ar
    23     8     7    1
    24    40    41    1
    25    13    12   ar
    26    33    38    1
    27    22    15    1
    28    22    23   ar
    29     7     2    1
    30    31    29    1
    31     3     2   ar
    32     3     4   ar
    33    15    16   ar
    34    24    23   ar
    35    24    29    1
    36    23    27    1
    37    30    29    1
    38    12    16   ar
    39    12     4    1
    40     2     1   ar
    41     4     5   ar
    42    27    28    1
    43    38    39    1
    44     1     5   ar
    45     1     6    1
