@<TRIPOS>MOLECULE
mol_data/opt/cam/geoms/mol2/5gh5gh5gh5gh.out
 42 45 0 0 0
SMALL
GASTEIGER

@<TRIPOS>ATOM
      1 C          -1.0644   -1.5699    2.0677 C.ar    1  LIG1       -0.0087
      2 C          -0.7856   -1.7757    0.7513 C.ar    1  LIG1        0.0331
      3 C          -0.5780   -0.5505    0.0259 C.ar    1  LIG1        0.0534
      4 C          -0.6849    0.5533    0.8370 C.ar    1  LIG1        0.0487
      5 S          -1.0657    0.0938    2.4790 S.2     1  LIG1       -0.0931
      6 H          -1.2633   -2.3268    2.8122 H       1  LIG1        0.0705
      7 S          -0.7955   -3.3766   -0.0156 S.3     1  LIG1       -0.1403
      8 H           0.5304   -3.4841   -0.2270 H       1  LIG1        0.1072
      9 N          -0.2829   -0.5351   -1.3249 N.pl3   1  LIG1       -0.3562
     10 H          -0.6240   -1.3460   -1.8249 H       1  LIG1        0.1424
     11 H          -0.4918    0.3354   -1.7937 H       1  LIG1        0.1424
     12 C          -0.5393    1.9463    0.4445 C.ar    1  LIG1        0.0433
     13 C           0.5165    2.5449   -0.1959 C.ar    1  LIG1        0.0414
     14 C           0.3024    3.9396   -0.4672 C.ar    1  LIG1        0.0540
     15 C          -0.8999    4.3904    0.0174 C.ar    1  LIG1        0.0493
     16 S          -1.8076    3.0941    0.7494 S.2     1  LIG1       -0.0841
     17 S           2.0143    1.7088   -0.6530 S.3     1  LIG1       -0.1397
     18 H           2.8360    2.6421   -0.1355 H       1  LIG1        0.1072
     19 N           1.2595    4.7138   -1.1063 N.pl3   1  LIG1       -0.3562
     20 H           1.7977    4.2023   -1.7945 H       1  LIG1        0.1424
     21 H           0.9067    5.5892   -1.4695 H       1  LIG1        0.1424
     22 C          -1.4244    5.7448   -0.0642 C.ar    1  LIG1        0.0433
     23 C          -0.8416    6.9126    0.3601 C.ar    1  LIG1        0.0414
     24 C          -1.6327    8.0791    0.0808 C.ar    1  LIG1        0.0540
     25 C          -2.8312    7.7721   -0.5128 C.ar    1  LIG1        0.0493
     26 S          -2.9723    6.0566   -0.7899 S.2     1  LIG1       -0.0841
     27 S           0.7283    7.0079    1.1837 S.3     1  LIG1       -0.1397
     28 H           0.2947    7.8040    2.1795 H       1  LIG1        0.1072
     29 N          -1.2107    9.3506    0.4415 N.pl3   1  LIG1       -0.3562
     30 H          -0.2075    9.4738    0.3852 H       1  LIG1        0.1424
     31 H          -1.7149   10.0975   -0.0174 H       1  LIG1        0.1424
     32 C          -3.8775    8.7028   -0.9076 C.ar    1  LIG1        0.0427
     33 C          -4.5282    9.6336   -0.1378 C.ar    1  LIG1        0.0408
     34 C          -5.4950   10.4072   -0.8733 C.ar    1  LIG1        0.0456
     35 C          -5.5704   10.0231   -2.1786 C.ar    1  LIG1       -0.0020
     36 S          -4.4581    8.7544   -2.5476 S.2     1  LIG1       -0.0931
     37 H          -6.2221   10.4193   -2.9438 H       1  LIG1        0.0712
     38 S          -4.2477    9.8699    1.5983 S.3     1  LIG1       -0.1397
     39 H          -5.5536    9.9577    1.9148 H       1  LIG1        0.1072
     40 N          -6.2936   11.3578   -0.2367 N.pl3   1  LIG1       -0.3567
     41 H          -5.7808   11.9242    0.4285 H       1  LIG1        0.1424
     42 H          -6.8246   11.9360   -0.8729 H       1  LIG1        0.1424
@<TRIPOS>BOND
     1    37    35    1
     2    36    35   ar
     3    36    32   ar
     4    35    34   ar
     5    10     9    1
     6    20    19    1
     7    11     9    1
     8    21    19    1
     9     9     3    1
    10    19    14    1
    11    32    25    1
    12    32    33   ar
    13    34    40    1
    14    34    33   ar
    15    42    40    1
    16    26    25   ar
    17    26    22   ar
    18    17    13    1
    19    17    18    1
    20    25    24   ar
    21    14    13   ar
    22    14    15   ar
    23    40    41    1
    24     8     7    1
    25    13    12   ar
    26    33    38    1
    27    22    15    1
    28    22    23   ar
    29    31    29    1
    30     7     2    1
    31    15    16   ar
    32     3     2   ar
    33     3     4   ar
    34    24    23   ar
    35    24    29    1
    36    23    27    1
    37    30    29    1
    38    12    16   ar
    39    12     4    1
    40     2     1   ar
    41     4     5   ar
    42    27    28    1
    43    38    39    1
    44     1     5   ar
    45     1     6    1
