@<TRIPOS>MOLECULE
mol_data/opt/cam/geoms/mol2/5gh5gh-5gh-.out
 32 34 0 0 0
SMALL
GASTEIGER

@<TRIPOS>ATOM
      1 C          -1.5918   -1.7012    1.3993 C.ar    1  LIG1       -0.0087
      2 C          -0.7893   -1.8209    0.3063 C.ar    1  LIG1        0.0331
      3 C          -0.3907   -0.5493   -0.2364 C.ar    1  LIG1        0.0534
      4 C          -0.8941    0.5022    0.4906 C.ar    1  LIG1        0.0487
      5 S          -1.8753   -0.0643    1.8206 S.2     1  LIG1       -0.0931
      6 H          -2.0225   -2.5064    1.9762 H       1  LIG1        0.0705
      7 S          -0.3767   -3.3765   -0.4427 S.3     1  LIG1       -0.1403
      8 H           0.9259   -3.4017   -0.1012 H       1  LIG1        0.1072
      9 N           0.4257   -0.4454   -1.3476 N.pl3   1  LIG1       -0.3562
     10 H           0.3725   -1.2432   -1.9677 H       1  LIG1        0.1424
     11 H           0.3669    0.4385   -1.8339 H       1  LIG1        0.1424
     12 C          -0.7000    1.9200    0.2294 C.ar    1  LIG1        0.0433
     13 C           0.4796    2.6075    0.0932 C.ar    1  LIG1        0.0414
     14 C           0.2965    4.0005   -0.2079 C.ar    1  LIG1        0.0540
     15 C          -1.0270    4.3601   -0.2497 C.ar    1  LIG1        0.0493
     16 S          -2.0600    2.9810    0.0174 S.2     1  LIG1       -0.0841
     17 S           2.0889    1.8790    0.2683 S.3     1  LIG1       -0.1397
     18 H           2.5648    2.8358    1.0879 H       1  LIG1        0.1072
     19 N           1.3740    4.8585   -0.3757 N.pl3   1  LIG1       -0.3562
     20 H           2.1775    4.4167   -0.8046 H       1  LIG1        0.1424
     21 H           1.1364    5.7350   -0.8208 H       1  LIG1        0.1424
     22 C          -1.5674    5.6865   -0.5051 C.ar    1  LIG1        0.0427
     23 C          -1.2979    6.8609    0.1511 C.ar    1  LIG1        0.0408
     24 C          -1.9982    7.9942   -0.3957 C.ar    1  LIG1        0.0456
     25 C          -2.8026    7.6433   -1.4381 C.ar    1  LIG1       -0.0020
     26 S          -2.7014    5.9570   -1.7976 S.2     1  LIG1       -0.0931
     27 H          -3.4507    8.2878   -2.0143 H       1  LIG1        0.0712
     28 S          -0.2184    7.0002    1.5528 S.3     1  LIG1       -0.1397
     29 H          -1.0464    7.7954    2.2565 H       1  LIG1        0.1072
     30 N          -1.8910    9.2581    0.1855 N.pl3   1  LIG1       -0.3567
     31 H          -0.9425    9.4907    0.4548 H       1  LIG1        0.1424
     32 H          -2.3029    9.9969   -0.3675 H       1  LIG1        0.1424
@<TRIPOS>BOND
     1    27    25    1
     2    10     9    1
     3    11     9    1
     4    26    25   ar
     5    26    22   ar
     6    25    24   ar
     7     9     3    1
     8    21    19    1
     9    20    19    1
    10    22    15    1
    11    22    23   ar
    12     7     8    1
    13     7     2    1
    14    24    23   ar
    15    24    30    1
    16    19    14    1
    17    32    30    1
    18    15    14   ar
    19    15    16   ar
    20     3     2   ar
    21     3     4   ar
    22    14    13   ar
    23    16    12   ar
    24    13    12   ar
    25    13    17    1
    26    23    28    1
    27    30    31    1
    28    12     4    1
    29    17    18    1
    30     2     1   ar
    31     4     5   ar
    32     1     5   ar
    33     1     6    1
    34    28    29    1
