@<TRIPOS>MOLECULE
mol_data/opt/cam/geoms/mol2/5gh5gh5gh-5gh-.out
 42 45 0 0 0
SMALL
GASTEIGER

@<TRIPOS>ATOM
      1 C          -1.0803   -1.5692    2.0664 C.ar    1  LIG1       -0.0087
      2 C          -0.7923   -1.7756    0.7521 C.ar    1  LIG1        0.0331
      3 C          -0.5794   -0.5508    0.0275 C.ar    1  LIG1        0.0534
      4 C          -0.6919    0.5534    0.8374 C.ar    1  LIG1        0.0487
      5 S          -1.0843    0.0947    2.4769 S.2     1  LIG1       -0.0931
      6 H          -1.2846   -2.3257    2.8098 H       1  LIG1        0.0705
      7 S          -0.7970   -3.3768   -0.0142 S.3     1  LIG1       -0.1403
      8 H           0.5303   -3.4846   -0.2162 H       1  LIG1        0.1072
      9 N          -0.2749   -0.5360   -1.3212 N.pl3   1  LIG1       -0.3562
     10 H          -0.6126   -1.3471   -1.8232 H       1  LIG1        0.1424
     11 H          -0.4803    0.3343   -1.7918 H       1  LIG1        0.1424
     12 C          -0.5433    1.9463    0.4453 C.ar    1  LIG1        0.0433
     13 C           0.5170    2.5444   -0.1879 C.ar    1  LIG1        0.0414
     14 C           0.3050    3.9390   -0.4614 C.ar    1  LIG1        0.0540
     15 C          -0.9007    4.3902    0.0145 C.ar    1  LIG1        0.0493
     16 S          -1.8136    3.0943    0.7407 S.2     1  LIG1       -0.0841
     17 S           2.0178    1.7079   -0.6341 S.3     1  LIG1       -0.1397
     18 H           2.8360    2.6413   -0.1113 H       1  LIG1        0.1072
     19 N           1.2667    4.7128   -1.0941 N.pl3   1  LIG1       -0.3562
     20 H           1.8096    4.2009   -1.7782 H       1  LIG1        0.1424
     21 H           0.9166    5.5880   -1.4601 H       1  LIG1        0.1424
     22 C          -1.4244    5.7446   -0.0714 C.ar    1  LIG1        0.0433
     23 C          -0.8445    6.9125    0.3566 C.ar    1  LIG1        0.0414
     24 C          -1.6334    8.0790    0.0711 C.ar    1  LIG1        0.0540
     25 C          -2.8277    7.7719   -0.5308 C.ar    1  LIG1        0.0493
     26 S          -2.9671    6.0563   -0.8080 S.2     1  LIG1       -0.0841
     27 S           0.7197    7.0080    1.1911 S.3     1  LIG1       -0.1397
     28 H           0.2792    7.8047    2.1834 H       1  LIG1        0.1072
     29 N          -1.2138    9.3506    0.4342 N.pl3   1  LIG1       -0.3562
     30 H          -0.2102    9.4737    0.3849 H       1  LIG1        0.1424
     31 H          -1.7146   10.0974   -0.0285 H       1  LIG1        0.1424
     32 C          -3.8711    8.7025   -0.9334 C.ar    1  LIG1        0.0427
     33 C          -4.5271    9.6338   -0.1686 C.ar    1  LIG1        0.0408
     34 C          -5.4885   10.4072   -0.9112 C.ar    1  LIG1        0.0456
     35 C          -5.5548   10.0225   -2.2168 C.ar    1  LIG1       -0.0020
     36 S          -4.4400    8.7535   -2.5774 S.2     1  LIG1       -0.0931
     37 H          -6.2010   10.4184   -2.9868 H       1  LIG1        0.0712
     38 S          -4.2588    9.8709    1.5693 S.3     1  LIG1       -0.1397
     39 H          -5.5668    9.9590    1.8766 H       1  LIG1        0.1072
     40 N          -6.2914   11.3581   -0.2807 N.pl3   1  LIG1       -0.3567
     41 H          -5.7833   11.9248    0.3879 H       1  LIG1        0.1424
     42 H          -6.8179   11.9361   -0.9209 H       1  LIG1        0.1424
@<TRIPOS>BOND
     1    37    35    1
     2    36    35   ar
     3    36    32   ar
     4    35    34   ar
     5    10     9    1
     6    11     9    1
     7    20    19    1
     8    21    19    1
     9     9     3    1
    10    19    14    1
    11    32    25    1
    12    32    33   ar
    13    42    40    1
    14    34    40    1
    15    34    33   ar
    16    26    25   ar
    17    26    22   ar
    18    17    13    1
    19    17    18    1
    20    25    24   ar
    21    14    13   ar
    22    14    15   ar
    23    40    41    1
    24     8     7    1
    25    13    12   ar
    26    33    38    1
    27    22    15    1
    28    22    23   ar
    29    31    29    1
    30     7     2    1
    31    15    16   ar
    32     3     2   ar
    33     3     4   ar
    34    24    23   ar
    35    24    29    1
    36    23    27    1
    37    30    29    1
    38    12    16   ar
    39    12     4    1
    40     2     1   ar
    41     4     5   ar
    42    27    28    1
    43    38    39    1
    44     1     5   ar
    45     1     6    1
