@<TRIPOS>MOLECULE
mol_data/opt/cam/geoms/mol2/5gh5gh-.out
 22 23 0 0 0
SMALL
GASTEIGER

@<TRIPOS>ATOM
      1 C          -1.8899   -1.7380    0.7420 C.ar    1  LIG1       -0.0087
      2 C          -0.7242   -1.7840    0.0408 C.ar    1  LIG1        0.0331
      3 C          -0.2530   -0.4808   -0.3468 C.ar    1  LIG1        0.0534
      4 C          -1.0790    0.5212    0.1009 C.ar    1  LIG1        0.0487
      5 S          -2.4430   -0.1324    0.9755 S.2     1  LIG1       -0.0931
      6 H          -2.4420   -2.5794    1.1343 H       1  LIG1        0.0705
      7 S           0.0676   -3.2954   -0.4489 S.3     1  LIG1       -0.1403
      8 H           1.1424   -3.2061    0.3579 H       1  LIG1        0.1072
      9 N           0.9169   -0.3032   -1.0631 N.pl3   1  LIG1       -0.3562
     10 H           1.1677   -1.0989   -1.6356 H       1  LIG1        0.1424
     11 H           0.9793    0.5759   -1.5577 H       1  LIG1        0.1424
     12 C          -0.9142    1.9519   -0.1049 C.ar    1  LIG1        0.0426
     13 C           0.1666    2.7395    0.2005 C.ar    1  LIG1        0.0408
     14 C          -0.0075    4.1187   -0.1753 C.ar    1  LIG1        0.0456
     15 C          -1.2300    4.3463   -0.7326 C.ar    1  LIG1       -0.0020
     16 S          -2.1698    2.9014   -0.8476 S.2     1  LIG1       -0.0931
     17 H          -1.6285    5.2877   -1.0821 H       1  LIG1        0.0712
     18 S           1.6396    2.1523    0.9968 S.3     1  LIG1       -0.1397
     19 H           1.7276    3.1887    1.8522 H       1  LIG1        0.1072
     20 N           0.9670    5.0745    0.1148 N.pl3   1  LIG1       -0.3567
     21 H           1.9083    4.7448   -0.0627 H       1  LIG1        0.1424
     22 H           0.8057    5.9677   -0.3294 H       1  LIG1        0.1424
@<TRIPOS>BOND
     1    10     9    1
     2    11     9    1
     3    17    15    1
     4     9     3    1
     5    16    15   ar
     6    16    12   ar
     7    15    14   ar
     8     7     2    1
     9     7     8    1
    10     3     2   ar
    11     3     4   ar
    12    22    20    1
    13    14    20    1
    14    14    13   ar
    15    12     4    1
    16    12    13   ar
    17    21    20    1
    18     2     1   ar
    19     4     5   ar
    20    13    18    1
    21     1     5   ar
    22     1     6    1
    23    18    19    1
