@<TRIPOS>MOLECULE
mol_data/opt/cam/geoms/mol2/5gh5gh-5gh5gh.out
 42 45 0 0 0
SMALL
GASTEIGER

@<TRIPOS>ATOM
      1 C          -1.0469   -1.5765    2.0620 C.ar    1  LIG1       -0.0087
      2 C          -0.7789   -1.7782    0.7427 C.ar    1  LIG1        0.0331
      3 C          -0.5772   -0.5508    0.0194 C.ar    1  LIG1        0.0534
      4 C          -0.6775    0.5505    0.8348 C.ar    1  LIG1        0.0487
      5 S          -1.0449    0.0859    2.4785 S.2     1  LIG1       -0.0931
      6 H          -1.2397   -2.3358    2.8057 H       1  LIG1        0.0705
      7 S          -0.7950   -3.3767   -0.0291 S.3     1  LIG1       -0.1403
      8 H           0.5291   -3.4835   -0.2516 H       1  LIG1        0.1072
      9 N          -0.2932   -0.5312   -1.3337 N.pl3   1  LIG1       -0.3562
     10 H          -0.6383   -1.3405   -1.8334 H       1  LIG1        0.1424
     11 H          -0.5059    0.3408   -1.7981 H       1  LIG1        0.1424
     12 C          -0.5351    1.9448    0.4455 C.ar    1  LIG1        0.0433
     13 C           0.5154    2.5454   -0.2016 C.ar    1  LIG1        0.0414
     14 C           0.2991    3.9408   -0.4669 C.ar    1  LIG1        0.0540
     15 C          -0.8993    4.3901    0.0289 C.ar    1  LIG1        0.0493
     16 S          -1.8009    3.0915    0.7643 S.2     1  LIG1       -0.0841
     17 S           2.0094    1.7107   -0.6736 S.3     1  LIG1       -0.1397
     18 H           2.8353    2.6424   -0.1599 H       1  LIG1        0.1072
     19 N           1.2509    4.7171   -1.1113 N.pl3   1  LIG1       -0.3562
     20 H           1.7835    4.2078   -1.8054 H       1  LIG1        0.1424
     21 H           0.8952    5.5936   -1.4689 H       1  LIG1        0.1424
     22 C          -1.4244    5.7448   -0.0442 C.ar    1  LIG1        0.0433
     23 C          -0.8382    6.9112    0.3790 C.ar    1  LIG1        0.0414
     24 C          -1.6316    8.0786    0.1097 C.ar    1  LIG1        0.0540
     25 C          -2.8348    7.7734   -0.4750 C.ar    1  LIG1        0.0493
     26 S          -2.9782    6.0587   -0.7562 S.2     1  LIG1       -0.0841
     27 S           0.7384    7.0040    1.1900 S.3     1  LIG1       -0.1397
     28 H           0.3130    7.7971    2.1918 H       1  LIG1        0.1072
     29 N          -1.2067    9.3490    0.4710 N.pl3   1  LIG1       -0.3562
     30 H          -0.2040    9.4724    0.4068 H       1  LIG1        0.1424
     31 H          -1.7146   10.0973    0.0186 H       1  LIG1        0.1424
     32 C          -3.8844    8.7053   -0.8584 C.ar    1  LIG1        0.0427
     33 C          -4.5288    9.6336   -0.0804 C.ar    1  LIG1        0.0408
     34 C          -5.5015   10.4095   -0.8055 C.ar    1  LIG1        0.0456
     35 C          -5.5876   10.0294   -2.1113 C.ar    1  LIG1       -0.0020
     36 S          -4.4783    8.7619   -2.4934 S.2     1  LIG1       -0.0931
     37 H          -6.2455   10.4280   -2.8700 H       1  LIG1        0.0712
     38 S          -4.2342    9.8646    1.6541 S.3     1  LIG1       -0.1397
     39 H          -5.5374    9.9513    1.9815 H       1  LIG1        0.1072
     40 N          -6.2949   11.3580   -0.1595 N.pl3   1  LIG1       -0.3567
     41 H          -5.7768   11.9224    0.5033 H       1  LIG1        0.1424
     42 H          -6.8312   11.9382   -0.7896 H       1  LIG1        0.1424
@<TRIPOS>BOND
     1    37    35    1
     2    36    35   ar
     3    36    32   ar
     4    35    34   ar
     5    10     9    1
     6    20    19    1
     7    11     9    1
     8    21    19    1
     9     9     3    1
    10    19    14    1
    11    32    25    1
    12    32    33   ar
    13    34    40    1
    14    34    33   ar
    15    42    40    1
    16    26    25   ar
    17    26    22   ar
    18    17    13    1
    19    17    18    1
    20    25    24   ar
    21    14    13   ar
    22    14    15   ar
    23     8     7    1
    24    13    12   ar
    25    40    41    1
    26    33    38    1
    27    22    15    1
    28    22    23   ar
    29     7     2    1
    30    31    29    1
    31     3     2   ar
    32     3     4   ar
    33    15    16   ar
    34    24    23   ar
    35    24    29    1
    36    23    27    1
    37    30    29    1
    38    12    16   ar
    39    12     4    1
    40     2     1   ar
    41     4     5   ar
    42    27    28    1
    43    38    39    1
    44     1     5   ar
    45     1     6    1
