@<TRIPOS>MOLECULE
mol_data/opt/cam/geoms/mol2/5gh5gh5gh-.out
 32 34 0 0 0
SMALL
GASTEIGER

@<TRIPOS>ATOM
      1 C          -1.6123   -1.6985    1.3877 C.ar    1  LIG1       -0.0087
      2 C          -0.7972   -1.8202    0.3043 C.ar    1  LIG1        0.0331
      3 C          -0.3915   -0.5496   -0.2353 C.ar    1  LIG1        0.0534
      4 C          -0.9025    0.5033    0.4844 C.ar    1  LIG1        0.0487
      5 S          -1.8996   -0.0608    1.8036 S.2     1  LIG1       -0.0931
      6 H          -2.0503   -2.5027    1.9606 H       1  LIG1        0.0705
      7 S          -0.3771   -3.3770   -0.4377 S.3     1  LIG1       -0.1403
      8 H           0.9215   -3.4028   -0.0811 H       1  LIG1        0.1072
      9 N           0.4379   -0.4477   -1.3371 N.pl3   1  LIG1       -0.3562
     10 H           0.3913   -1.2463   -1.9568 H       1  LIG1        0.1424
     11 H           0.3854    0.4356   -1.8252 H       1  LIG1        0.1424
     12 C          -0.7044    1.9205    0.2236 C.ar    1  LIG1        0.0433
     13 C           0.4772    2.6070    0.1003 C.ar    1  LIG1        0.0414
     14 C           0.2986    3.9997   -0.2048 C.ar    1  LIG1        0.0540
     15 C          -1.0241    4.3602   -0.2624 C.ar    1  LIG1        0.0493
     16 S          -2.0611    2.9822   -0.0056 S.2     1  LIG1       -0.0841
     17 S           2.0838    1.8776    0.2951 S.3     1  LIG1       -0.1397
     18 H           2.5509    2.8352    1.1189 H       1  LIG1        0.1072
     19 N           1.3786    4.8568   -0.3611 N.pl3   1  LIG1       -0.3562
     20 H           2.1867    4.4138   -0.7800 H       1  LIG1        0.1424
     21 H           1.1468    5.7328   -0.8101 H       1  LIG1        0.1424
     22 C          -1.5605    5.6867   -0.5259 C.ar    1  LIG1        0.0427
     23 C          -1.2978    6.8617    0.1319 C.ar    1  LIG1        0.0408
     24 C          -1.9908    7.9948   -0.4245 C.ar    1  LIG1        0.0456
     25 C          -2.7833    7.6432   -1.4758 C.ar    1  LIG1       -0.0020
     26 S          -2.6792    5.9563   -1.8318 S.2     1  LIG1       -0.0931
     27 H          -3.4242    8.2873   -2.0603 H       1  LIG1        0.0712
     28 S          -0.2346    7.0021    1.5459 S.3     1  LIG1       -0.1397
     29 H          -1.0702    7.7988    2.2389 H       1  LIG1        0.1072
     30 N          -1.8895    9.2594    0.1563 N.pl3   1  LIG1       -0.3567
     31 H          -0.9441    9.4917    0.4363 H       1  LIG1        0.1424
     32 H          -2.2944    9.9977   -0.4025 H       1  LIG1        0.1424
@<TRIPOS>BOND
     1    27    25    1
     2    10     9    1
     3    26    25   ar
     4    26    22   ar
     5    11     9    1
     6    25    24   ar
     7     9     3    1
     8    21    19    1
     9    20    19    1
    10    22    15    1
    11    22    23   ar
    12     7     8    1
    13     7     2    1
    14    24    23   ar
    15    24    30    1
    16    32    30    1
    17    19    14    1
    18    15    14   ar
    19    15    16   ar
    20     3     2   ar
    21     3     4   ar
    22    14    13   ar
    23    16    12   ar
    24    13    12   ar
    25    13    17    1
    26    23    28    1
    27    30    31    1
    28    12     4    1
    29    17    18    1
    30     2     1   ar
    31     4     5   ar
    32     1     5   ar
    33     1     6    1
    34    28    29    1
