@<TRIPOS>MOLECULE
mol_data/opt/cam/geoms/mol2/5gh5gh5gh.out
 32 34 0 0 0
SMALL
GASTEIGER

@<TRIPOS>ATOM
      1 C          -1.6046   -1.6939    1.4048 C.ar    1  LIG1       -0.0087
      2 C          -0.7932   -1.8191    0.3191 C.ar    1  LIG1        0.0331
      3 C          -0.3900   -0.5503   -0.2266 C.ar    1  LIG1        0.0534
      4 C          -0.8991    0.5049    0.4909 C.ar    1  LIG1        0.0487
      5 S          -1.8914   -0.0548    1.8156 S.2     1  LIG1       -0.0931
      6 H          -2.0401   -2.4962    1.9822 H       1  LIG1        0.0705
      7 S          -0.3748   -3.3785   -0.4187 S.3     1  LIG1       -0.1403
      8 H           0.9250   -3.4022   -0.0665 H       1  LIG1        0.1072
      9 N           0.4356   -0.4521   -1.3316 N.pl3   1  LIG1       -0.3562
     10 H           0.3873   -1.2529   -1.9482 H       1  LIG1        0.1424
     11 H           0.3810    0.4294   -1.8227 H       1  LIG1        0.1424
     12 C          -0.7026    1.9213    0.2243 C.ar    1  LIG1        0.0433
     13 C           0.4781    2.6080    0.0943 C.ar    1  LIG1        0.0414
     14 C           0.2978    3.9994   -0.2152 C.ar    1  LIG1        0.0540
     15 C          -1.0253    4.3591   -0.2696 C.ar    1  LIG1        0.0493
     16 S          -2.0606    2.9814   -0.0042 S.2     1  LIG1       -0.0841
     17 S           2.0858    1.8801    0.2863 S.3     1  LIG1       -0.1397
     18 H           2.5552    2.8409    1.1050 H       1  LIG1        0.1072
     19 N           1.3768    4.8565   -0.3784 N.pl3   1  LIG1       -0.3562
     20 H           2.1837    4.4124   -0.7984 H       1  LIG1        0.1424
     21 H           1.1430    5.7307   -0.8297 H       1  LIG1        0.1424
     22 C          -1.5633    5.6843   -0.5361 C.ar    1  LIG1        0.0427
     23 C          -1.2990    6.8618    0.1166 C.ar    1  LIG1        0.0408
     24 C          -1.9945    7.9925   -0.4416 C.ar    1  LIG1        0.0456
     25 C          -2.7904    7.6366   -1.4889 C.ar    1  LIG1       -0.0020
     26 S          -2.6865    5.9485   -1.8392 S.2     1  LIG1       -0.0931
     27 H          -3.4336    8.2783   -2.0736 H       1  LIG1        0.0712
     28 S          -0.2311    7.0079    1.5265 S.3     1  LIG1       -0.1397
     29 H          -1.0649    7.8065    2.2194 H       1  LIG1        0.1072
     30 N          -1.8920    9.2593    0.1343 N.pl3   1  LIG1       -0.3567
     31 H          -0.9458    9.4930    0.4104 H       1  LIG1        0.1424
     32 H          -2.2991    9.9954   -0.4258 H       1  LIG1        0.1424
@<TRIPOS>BOND
     1    27    25    1
     2    10     9    1
     3    26    25   ar
     4    26    22   ar
     5    11     9    1
     6    25    24   ar
     7     9     3    1
     8    21    19    1
     9    20    19    1
    10    22    15    1
    11    22    23   ar
    12    24    23   ar
    13    24    30    1
    14    32    30    1
    15     7     8    1
    16     7     2    1
    17    19    14    1
    18    15    14   ar
    19    15    16   ar
    20     3     2   ar
    21     3     4   ar
    22    14    13   ar
    23    16    12   ar
    24    13    12   ar
    25    13    17    1
    26    23    28    1
    27    30    31    1
    28    12     4    1
    29    17    18    1
    30     2     1   ar
    31     4     5   ar
    32     1     5   ar
    33     1     6    1
    34    28    29    1
