@<TRIPOS>MOLECULE
mol_data/opt/cam/geoms/mol2/5gh5gh5gh5gh-.out
 42 45 0 0 0
SMALL
GASTEIGER

@<TRIPOS>ATOM
      1 C          -1.0648   -1.5674    2.0726 C.ar    1  LIG1       -0.0087
      2 C          -0.7863   -1.7749    0.7564 C.ar    1  LIG1        0.0331
      3 C          -0.5786   -0.5508    0.0293 C.ar    1  LIG1        0.0534
      4 C          -0.6852    0.5541    0.8390 C.ar    1  LIG1        0.0487
      5 S          -1.0659    0.0968    2.4817 S.2     1  LIG1       -0.0931
      6 H          -1.2638   -2.3233    2.8181 H       1  LIG1        0.0705
      7 S          -0.7965   -3.3768   -0.0084 S.3     1  LIG1       -0.1403
      8 H           0.5293   -3.4848   -0.2199 H       1  LIG1        0.1072
      9 N          -0.2837   -0.5371   -1.3215 N.pl3   1  LIG1       -0.3562
     10 H          -0.6250   -1.3486   -1.8204 H       1  LIG1        0.1424
     11 H          -0.4926    0.3328   -1.7914 H       1  LIG1        0.1424
     12 C          -0.5395    1.9467    0.4447 C.ar    1  LIG1        0.0433
     13 C           0.5162    2.5443   -0.1966 C.ar    1  LIG1        0.0414
     14 C           0.3023    3.9386   -0.4698 C.ar    1  LIG1        0.0540
     15 C          -0.8999    4.3902    0.0144 C.ar    1  LIG1        0.0493
     16 S          -1.8076    3.0949    0.7482 S.2     1  LIG1       -0.0841
     17 S           2.0138    1.7074   -0.6528 S.3     1  LIG1       -0.1397
     18 H           2.8357    2.6412   -0.1367 H       1  LIG1        0.1072
     19 N           1.2594    4.7119   -1.1099 N.pl3   1  LIG1       -0.3562
     20 H           1.7974    4.1994   -1.7975 H       1  LIG1        0.1424
     21 H           0.9067    5.5868   -1.4742 H       1  LIG1        0.1424
     22 C          -1.4243    5.7446   -0.0689 C.ar    1  LIG1        0.0433
     23 C          -0.8413    6.9128    0.3539 C.ar    1  LIG1        0.0414
     24 C          -1.6323    8.0791    0.0731 C.ar    1  LIG1        0.0540
     25 C          -2.8308    7.7715   -0.5199 C.ar    1  LIG1        0.0493
     26 S          -2.9722    6.0556   -0.7947 S.2     1  LIG1       -0.0841
     27 S           0.7288    7.0090    1.1771 S.3     1  LIG1       -0.1397
     28 H           0.2955    7.8065    2.1719 H       1  LIG1        0.1072
     29 N          -1.2101    9.3510    0.4321 N.pl3   1  LIG1       -0.3562
     30 H          -0.2069    9.4740    0.3755 H       1  LIG1        0.1424
     31 H          -1.7142   10.0974   -0.0276 H       1  LIG1        0.1424
     32 C          -3.8771    8.7018   -0.9158 C.ar    1  LIG1        0.0427
     33 C          -4.5276    9.6336   -0.1471 C.ar    1  LIG1        0.0408
     34 C          -5.4943   10.4064   -0.8835 C.ar    1  LIG1        0.0456
     35 C          -5.5700   10.0206   -2.1882 C.ar    1  LIG1       -0.0020
     36 S          -4.4579    8.7513   -2.5558 S.2     1  LIG1       -0.0931
     37 H          -6.2217   10.4159   -2.9539 H       1  LIG1        0.0712
     38 S          -4.2468    9.8722    1.5886 S.3     1  LIG1       -0.1397
     39 H          -5.5527    9.9606    1.9052 H       1  LIG1        0.1072
     40 N          -6.2927   11.3579   -0.2480 N.pl3   1  LIG1       -0.3567
     41 H          -5.7798   11.9251    0.4164 H       1  LIG1        0.1424
     42 H          -6.8238   11.9353   -0.8850 H       1  LIG1        0.1424
@<TRIPOS>BOND
     1    37    35    1
     2    36    35   ar
     3    36    32   ar
     4    35    34   ar
     5    10     9    1
     6    20    19    1
     7    11     9    1
     8    21    19    1
     9     9     3    1
    10    19    14    1
    11    32    25    1
    12    32    33   ar
    13    42    40    1
    14    34    40    1
    15    34    33   ar
    16    26    25   ar
    17    26    22   ar
    18    17    13    1
    19    17    18    1
    20    25    24   ar
    21    14    13   ar
    22    14    15   ar
    23    40    41    1
    24     8     7    1
    25    13    12   ar
    26    33    38    1
    27    22    15    1
    28    22    23   ar
    29    31    29    1
    30     7     2    1
    31    15    16   ar
    32     3     2   ar
    33     3     4   ar
    34    24    23   ar
    35    24    29    1
    36    23    27    1
    37    30    29    1
    38    12    16   ar
    39    12     4    1
    40     2     1   ar
    41     4     5   ar
    42    27    28    1
    43    38    39    1
    44     1     5   ar
    45     1     6    1
