@<TRIPOS>MOLECULE
mol_data/opt/cam/geoms/mol2/5gh5gh-5gh-5gh-.out
 42 45 0 0 0
SMALL
GASTEIGER

@<TRIPOS>ATOM
      1 C          -1.0624   -1.5748    2.0636 C.ar    1  LIG1       -0.0087
      2 C          -0.7856   -1.7777    0.7464 C.ar    1  LIG1        0.0331
      3 C          -0.5788   -0.5511    0.0233 C.ar    1  LIG1        0.0534
      4 C          -0.6843    0.5510    0.8370 C.ar    1  LIG1        0.0487
      5 S          -1.0628    0.0880    2.4786 S.2     1  LIG1       -0.0931
      6 H          -1.2604   -2.3333    2.8067 H       1  LIG1        0.0705
      7 S          -0.7968   -3.3770   -0.0240 S.3     1  LIG1       -0.1403
      8 H           0.5287   -3.4842   -0.2376 H       1  LIG1        0.1072
      9 N          -0.2857   -0.5327   -1.3279 N.pl3   1  LIG1       -0.3562
     10 H          -0.6277   -1.3424   -1.8291 H       1  LIG1        0.1424
     11 H          -0.4951    0.3389   -1.7945 H       1  LIG1        0.1424
     12 C          -0.5391    1.9449    0.4473 C.ar    1  LIG1        0.0433
     13 C           0.5158    2.5447   -0.1932 C.ar    1  LIG1        0.0414
     14 C           0.3016    3.9400   -0.4612 C.ar    1  LIG1        0.0540
     15 C          -0.9000    4.3900    0.0261 C.ar    1  LIG1        0.0493
     16 S          -1.8068    3.0921    0.7566 S.2     1  LIG1       -0.0841
     17 S           2.0128    1.7094   -0.6544 S.3     1  LIG1       -0.1397
     18 H           2.8354    2.6414   -0.1361 H       1  LIG1        0.1072
     19 N           1.2579    4.7155   -1.1000 N.pl3   1  LIG1       -0.3562
     20 H           1.7950    4.2054   -1.7900 H       1  LIG1        0.1424
     21 H           0.9047    5.5917   -1.4608 H       1  LIG1        0.1424
     22 C          -1.4244    5.7446   -0.0518 C.ar    1  LIG1        0.0433
     23 C          -0.8408    6.9114    0.3743 C.ar    1  LIG1        0.0414
     24 C          -1.6321    8.0787    0.0986 C.ar    1  LIG1        0.0540
     25 C          -2.8314    7.7731   -0.4939 C.ar    1  LIG1        0.0493
     26 S          -2.9732    6.0582   -0.7745 S.2     1  LIG1       -0.0841
     27 S           0.7304    7.0046    1.1958 S.3     1  LIG1       -0.1397
     28 H           0.2984    7.7987    2.1939 H       1  LIG1        0.1072
     29 N          -1.2093    9.3493    0.4615 N.pl3   1  LIG1       -0.3562
     30 H          -0.2062    9.4725    0.4040 H       1  LIG1        0.1424
     31 H          -1.7141   10.0973    0.0050 H       1  LIG1        0.1424
     32 C          -3.8782    8.7048   -0.8851 C.ar    1  LIG1        0.0427
     33 C          -4.5276    9.6340   -0.1124 C.ar    1  LIG1        0.0408
     34 C          -5.4953   10.4094   -0.8447 C.ar    1  LIG1        0.0456
     35 C          -5.5727   10.0282   -2.1507 C.ar    1  LIG1       -0.0020
     36 S          -4.4611    8.7601   -2.5242 S.2     1  LIG1       -0.0931
     37 H          -6.2254   10.4262   -2.9142 H       1  LIG1        0.0712
     38 S          -4.2446    9.8666    1.6239 S.3     1  LIG1       -0.1397
     39 H          -5.5500    9.9539    1.9424 H       1  LIG1        0.1072
     40 N          -6.2928   11.3587   -0.2049 N.pl3   1  LIG1       -0.3567
     41 H          -5.7790   11.9236    0.4608 H       1  LIG1        0.1424
     42 H          -6.8247   11.9384   -0.8391 H       1  LIG1        0.1424
@<TRIPOS>BOND
     1    37    35    1
     2    36    35   ar
     3    36    32   ar
     4    35    34   ar
     5    10     9    1
     6    11     9    1
     7    20    19    1
     8    21    19    1
     9     9     3    1
    10    19    14    1
    11    32    25    1
    12    32    33   ar
    13    34    40    1
    14    34    33   ar
    15    42    40    1
    16    26    25   ar
    17    26    22   ar
    18    17    13    1
    19    17    18    1
    20    25    24   ar
    21    14    13   ar
    22    14    15   ar
    23     8     7    1
    24    40    41    1
    25    13    12   ar
    26    33    38    1
    27    22    15    1
    28    22    23   ar
    29     7     2    1
    30    31    29    1
    31     3     2   ar
    32     3     4   ar
    33    15    16   ar
    34    24    23   ar
    35    24    29    1
    36    23    27    1
    37    30    29    1
    38    12    16   ar
    39    12     4    1
    40     2     1   ar
    41     4     5   ar
    42    27    28    1
    43    38    39    1
    44     1     5   ar
    45     1     6    1
