@<TRIPOS>MOLECULE
mol_data/opt/cam/geoms/mol2/5gh5gh.out
 22 23 0 0 0
SMALL
GASTEIGER

@<TRIPOS>ATOM
      1 C          -1.8958   -1.7392    0.7303 C.ar    1  LIG1       -0.0087
      2 C          -0.7249   -1.7839    0.0378 C.ar    1  LIG1        0.0331
      3 C          -0.2508   -0.4800   -0.3438 C.ar    1  LIG1        0.0534
      4 C          -1.0800    0.5212    0.0996 C.ar    1  LIG1        0.0487
      5 S          -2.4506   -0.1340    0.9628 S.2     1  LIG1       -0.0931
      6 H          -2.4508   -2.5813    1.1169 H       1  LIG1        0.0705
      7 S           0.0706   -3.2944   -0.4489 S.3     1  LIG1       -0.1403
      8 H           1.1393   -3.2066    0.3660 H       1  LIG1        0.1072
      9 N           0.9244   -0.3011   -1.0511 N.pl3   1  LIG1       -0.3562
     10 H           1.1795   -1.0957   -1.6233 H       1  LIG1        0.1424
     11 H           0.9906    0.5789   -1.5436 H       1  LIG1        0.1424
     12 C          -0.9137    1.9523   -0.1023 C.ar    1  LIG1        0.0426
     13 C           0.1648    2.7393    0.2126 C.ar    1  LIG1        0.0408
     14 C          -0.0064    4.1192   -0.1619 C.ar    1  LIG1        0.0456
     15 C          -1.2248    4.3478   -0.7278 C.ar    1  LIG1       -0.0020
     16 S          -2.1637    2.9032   -0.8526 S.2     1  LIG1       -0.0931
     17 H          -1.6206    5.2899   -1.0785 H       1  LIG1        0.0712
     18 S           1.6319    2.1505    1.0187 S.3     1  LIG1       -0.1397
     19 H           1.7135    3.1853    1.8767 H       1  LIG1        0.1072
     20 N           0.9659    5.0744    0.1372 N.pl3   1  LIG1       -0.3567
     21 H           1.9085    4.7450   -0.0338 H       1  LIG1        0.1424
     22 H           0.8079    5.9685   -0.3065 H       1  LIG1        0.1424
@<TRIPOS>BOND
     1    10     9    1
     2    11     9    1
     3    17    15    1
     4     9     3    1
     5    16    15   ar
     6    16    12   ar
     7    15    14   ar
     8     7     2    1
     9     7     8    1
    10     3     2   ar
    11     3     4   ar
    12    22    20    1
    13    14    20    1
    14    14    13   ar
    15    12     4    1
    16    12    13   ar
    17    21    20    1
    18     2     1   ar
    19     4     5   ar
    20    13    18    1
    21     1     5   ar
    22     1     6    1
    23    18    19    1
