@<TRIPOS>MOLECULE
mol_data/opt/cam/geoms/mol2/5gh5gh5gh-5gh.out
 42 45 0 0 0
SMALL
GASTEIGER

@<TRIPOS>ATOM
      1 C          -1.0804   -1.5722    2.0602 C.ar    1  LIG1       -0.0087
      2 C          -0.7918   -1.7765    0.7457 C.ar    1  LIG1        0.0331
      3 C          -0.5788   -0.5506    0.0231 C.ar    1  LIG1        0.0534
      4 C          -0.6917    0.5523    0.8347 C.ar    1  LIG1        0.0487
      5 S          -1.0848    0.0911    2.4733 S.2     1  LIG1       -0.0931
      6 H          -1.2849   -2.3299    2.8023 H       1  LIG1        0.0705
      7 S          -0.7959   -3.3766   -0.0230 S.3     1  LIG1       -0.1403
      8 H           0.5315   -3.4839   -0.2246 H       1  LIG1        0.1072
      9 N          -0.2736   -0.5337   -1.3254 N.pl3   1  LIG1       -0.3562
     10 H          -0.6109   -1.3440   -1.8288 H       1  LIG1        0.1424
     11 H          -0.4789    0.3374   -1.7948 H       1  LIG1        0.1424
     12 C          -0.5432    1.9459    0.4447 C.ar    1  LIG1        0.0433
     13 C           0.5173    2.5451   -0.1870 C.ar    1  LIG1        0.0414
     14 C           0.3052    3.9401   -0.4585 C.ar    1  LIG1        0.0540
     15 C          -0.9007    4.3904    0.0176 C.ar    1  LIG1        0.0493
     16 S          -1.8138    3.0932    0.7413 S.2     1  LIG1       -0.0841
     17 S           2.0185    1.7095   -0.6338 S.3     1  LIG1       -0.1397
     18 H           2.8362    2.6422   -0.1092 H       1  LIG1        0.1072
     19 N           1.2671    4.7150   -1.0895 N.pl3   1  LIG1       -0.3562
     20 H           1.8104    4.2043   -1.7742 H       1  LIG1        0.1424
     21 H           0.9170    5.5908   -1.4544 H       1  LIG1        0.1424
     22 C          -1.4246    5.7449   -0.0665 C.ar    1  LIG1        0.0433
     23 C          -0.8450    6.9122    0.3635 C.ar    1  LIG1        0.0414
     24 C          -1.6340    8.0790    0.0795 C.ar    1  LIG1        0.0540
     25 C          -2.8280    7.7726   -0.5234 C.ar    1  LIG1        0.0493
     26 S          -2.9670    6.0574   -0.8034 S.2     1  LIG1       -0.0841
     27 S           0.7187    7.0066    1.1989 S.3     1  LIG1       -0.1397
     28 H           0.2777    7.8017    2.1923 H       1  LIG1        0.1072
     29 N          -1.2147    9.3501    0.4447 N.pl3   1  LIG1       -0.3562
     30 H          -0.2112    9.4734    0.3961 H       1  LIG1        0.1424
     31 H          -1.7155   10.0975   -0.0171 H       1  LIG1        0.1424
     32 C          -3.8714    8.7038   -0.9251 C.ar    1  LIG1        0.0427
     33 C          -4.5278    9.6337   -0.1592 C.ar    1  LIG1        0.0408
     34 C          -5.4890   10.4081   -0.9010 C.ar    1  LIG1        0.0456
     35 C          -5.5546   10.0254   -2.2072 C.ar    1  LIG1       -0.0020
     36 S          -4.4395    8.7571   -2.5693 S.2     1  LIG1       -0.0931
     37 H          -6.2005   10.4224   -2.9770 H       1  LIG1        0.0712
     38 S          -4.2604    9.8682    1.5793 S.3     1  LIG1       -0.1397
     39 H          -5.5686    9.9556    1.8860 H       1  LIG1        0.1072
     40 N          -6.2924   11.3580   -0.2694 N.pl3   1  LIG1       -0.3567
     41 H          -5.7847   11.9237    0.4002 H       1  LIG1        0.1424
     42 H          -6.8187   11.9369   -0.9090 H       1  LIG1        0.1424
@<TRIPOS>BOND
     1    37    35    1
     2    36    35   ar
     3    36    32   ar
     4    35    34   ar
     5    10     9    1
     6    11     9    1
     7    20    19    1
     8    21    19    1
     9     9     3    1
    10    19    14    1
    11    32    25    1
    12    32    33   ar
    13    42    40    1
    14    34    40    1
    15    34    33   ar
    16    26    25   ar
    17    26    22   ar
    18    17    13    1
    19    17    18    1
    20    25    24   ar
    21    14    13   ar
    22    14    15   ar
    23    40    41    1
    24     8     7    1
    25    13    12   ar
    26    33    38    1
    27    22    15    1
    28    22    23   ar
    29     7     2    1
    30    31    29    1
    31    15    16   ar
    32     3     2   ar
    33     3     4   ar
    34    24    23   ar
    35    24    29    1
    36    23    27    1
    37    30    29    1
    38    12    16   ar
    39    12     4    1
    40     2     1   ar
    41     4     5   ar
    42    27    28    1
    43    38    39    1
    44     1     5   ar
    45     1     6    1
