@<TRIPOS>MOLECULE
mol_data/opt/cam/geoms/mol2/5gh5gh-5gh5gh-.out
 42 45 0 0 0
SMALL
GASTEIGER

@<TRIPOS>ATOM
      1 C          -1.0470   -1.5737    2.0679 C.ar    1  LIG1       -0.0087
      2 C          -0.7793   -1.7773    0.7489 C.ar    1  LIG1        0.0331
      3 C          -0.5777   -0.5510    0.0237 C.ar    1  LIG1        0.0534
      4 C          -0.6777    0.5515    0.8375 C.ar    1  LIG1        0.0487
      5 S          -1.0448    0.0893    2.4819 S.2     1  LIG1       -0.0931
      6 H          -1.2398   -2.3318    2.8128 H       1  LIG1        0.0705
      7 S          -0.7958   -3.3770   -0.0205 S.3     1  LIG1       -0.1403
      8 H           0.5282   -3.4842   -0.2432 H       1  LIG1        0.1072
      9 N          -0.2939   -0.5334   -1.3295 N.pl3   1  LIG1       -0.3562
     10 H          -0.6393   -1.3434   -1.8279 H       1  LIG1        0.1424
     11 H          -0.5067    0.3379   -1.7951 H       1  LIG1        0.1424
     12 C          -0.5353    1.9452    0.4461 C.ar    1  LIG1        0.0433
     13 C           0.5151    2.5448   -0.2021 C.ar    1  LIG1        0.0414
     14 C           0.2989    3.9398   -0.4694 C.ar    1  LIG1        0.0540
     15 C          -0.8993    4.3900    0.0260 C.ar    1  LIG1        0.0493
     16 S          -1.8009    3.0925    0.7635 S.2     1  LIG1       -0.0841
     17 S           2.0090    1.7093   -0.6731 S.3     1  LIG1       -0.1397
     18 H           2.8350    2.6416   -0.1610 H       1  LIG1        0.1072
     19 N           1.2507    4.7151   -1.1152 N.pl3   1  LIG1       -0.3562
     20 H           1.7830    4.2047   -1.8087 H       1  LIG1        0.1424
     21 H           0.8950    5.5910   -1.4740 H       1  LIG1        0.1424
     22 C          -1.4243    5.7445   -0.0490 C.ar    1  LIG1        0.0433
     23 C          -0.8379    6.9116    0.3724 C.ar    1  LIG1        0.0414
     24 C          -1.6312    8.0787    0.1016 C.ar    1  LIG1        0.0540
     25 C          -2.8346    7.7727   -0.4825 C.ar    1  LIG1        0.0493
     26 S          -2.9782    6.0576   -0.7611 S.2     1  LIG1       -0.0841
     27 S           0.7389    7.0054    1.1829 S.3     1  LIG1       -0.1397
     28 H           0.3137    7.8000    2.1836 H       1  LIG1        0.1072
     29 N          -1.2061    9.3495    0.4608 N.pl3   1  LIG1       -0.3562
     30 H          -0.2034    9.4727    0.3963 H       1  LIG1        0.1424
     31 H          -1.7140   10.0972    0.0074 H       1  LIG1        0.1424
     32 C          -3.8842    8.7041   -0.8670 C.ar    1  LIG1        0.0427
     33 C          -4.5283    9.6337   -0.0902 C.ar    1  LIG1        0.0408
     34 C          -5.5011   10.4085   -0.8163 C.ar    1  LIG1        0.0456
     35 C          -5.5875   10.0266   -2.1215 C.ar    1  LIG1       -0.0020
     36 S          -4.4784    8.7584   -2.5020 S.2     1  LIG1       -0.0931
     37 H          -6.2455   10.4241   -2.8807 H       1  LIG1        0.0712
     38 S          -4.2333    9.8672    1.6439 S.3     1  LIG1       -0.1397
     39 H          -5.5364    9.9545    1.9714 H       1  LIG1        0.1072
     40 N          -6.2942   11.3581   -0.1715 N.pl3   1  LIG1       -0.3567
     41 H          -5.7759   11.9234    0.4903 H       1  LIG1        0.1424
     42 H          -6.8306   11.9374   -0.8024 H       1  LIG1        0.1424
@<TRIPOS>BOND
     1    37    35    1
     2    36    35   ar
     3    36    32   ar
     4    35    34   ar
     5    10     9    1
     6    20    19    1
     7    11     9    1
     8    21    19    1
     9     9     3    1
    10    19    14    1
    11    32    25    1
    12    32    33   ar
    13    34    40    1
    14    34    33   ar
    15    42    40    1
    16    26    25   ar
    17    26    22   ar
    18    17    13    1
    19    17    18    1
    20    25    24   ar
    21    14    13   ar
    22    14    15   ar
    23     8     7    1
    24    13    12   ar
    25    40    41    1
    26    33    38    1
    27    22    15    1
    28    22    23   ar
    29     7     2    1
    30    31    29    1
    31     3     2   ar
    32     3     4   ar
    33    15    16   ar
    34    24    23   ar
    35    24    29    1
    36    23    27    1
    37    30    29    1
    38    12    16   ar
    39    12     4    1
    40     2     1   ar
    41     4     5   ar
    42    27    28    1
    43    38    39    1
    44     1     5   ar
    45     1     6    1
