@<TRIPOS>MOLECULE
mol_data/opt/cam/geoms/mol2/5gh5gh-5gh.out
 32 34 0 0 0
SMALL
GASTEIGER

@<TRIPOS>ATOM
      1 C          -1.5928   -1.6997    1.3997 C.ar    1  LIG1       -0.0087
      2 C          -0.7917   -1.8208    0.3059 C.ar    1  LIG1        0.0331
      3 C          -0.3930   -0.5499   -0.2383 C.ar    1  LIG1        0.0534
      4 C          -0.8950    0.5026    0.4884 C.ar    1  LIG1        0.0487
      5 S          -1.8750   -0.0623    1.8200 S.2     1  LIG1       -0.0931
      6 H          -2.0233   -2.5043    1.9778 H       1  LIG1        0.0705
      7 S          -0.3808   -3.3772   -0.4423 S.3     1  LIG1       -0.1403
      8 H           0.9222   -3.4029   -0.1023 H       1  LIG1        0.1072
      9 N           0.4221   -0.4473   -1.3506 N.pl3   1  LIG1       -0.3562
     10 H           0.3677   -1.2456   -1.9700 H       1  LIG1        0.1424
     11 H           0.3633    0.4363   -1.8375 H       1  LIG1        0.1424
     12 C          -0.7005    1.9200    0.2258 C.ar    1  LIG1        0.0433
     13 C           0.4793    2.6068    0.0877 C.ar    1  LIG1        0.0414
     14 C           0.2966    3.9996   -0.2144 C.ar    1  LIG1        0.0540
     15 C          -1.0268    4.3599   -0.2549 C.ar    1  LIG1        0.0493
     16 S          -2.0602    2.9816    0.0145 S.2     1  LIG1       -0.0841
     17 S           2.0884    1.8775    0.2615 S.3     1  LIG1       -0.1397
     18 H           2.5658    2.8348    1.0798 H       1  LIG1        0.1072
     19 N           1.3743    4.8569   -0.3841 N.pl3   1  LIG1       -0.3562
     20 H           2.1771    4.4143   -0.8135 H       1  LIG1        0.1424
     21 H           1.1367    5.7331   -0.8297 H       1  LIG1        0.1424
     22 C          -1.5668    5.6864   -0.5108 C.ar    1  LIG1        0.0427
     23 C          -1.2958    6.8611    0.1441 C.ar    1  LIG1        0.0408
     24 C          -1.9962    7.9944   -0.4028 C.ar    1  LIG1        0.0456
     25 C          -2.8020    7.6431   -1.4440 C.ar    1  LIG1       -0.0020
     26 S          -2.7021    5.9564   -1.8022 S.2     1  LIG1       -0.0931
     27 H          -3.4504    8.2874   -2.0200 H       1  LIG1        0.0712
     28 S          -0.2147    7.0010    1.5445 S.3     1  LIG1       -0.1397
     29 H          -1.0415    7.7972    2.2485 H       1  LIG1        0.1072
     30 N          -1.8876    9.2587    0.1773 N.pl3   1  LIG1       -0.3567
     31 H          -0.9387    9.4910    0.4453 H       1  LIG1        0.1424
     32 H          -2.2998    9.9972   -0.3759 H       1  LIG1        0.1424
@<TRIPOS>BOND
     1    27    25    1
     2    10     9    1
     3    11     9    1
     4    26    25   ar
     5    26    22   ar
     6    25    24   ar
     7     9     3    1
     8    21    19    1
     9    20    19    1
    10    22    15    1
    11    22    23   ar
    12     7     8    1
    13     7     2    1
    14    24    23   ar
    15    24    30    1
    16    19    14    1
    17    32    30    1
    18    15    14   ar
    19    15    16   ar
    20     3     2   ar
    21     3     4   ar
    22    14    13   ar
    23    16    12   ar
    24    13    12   ar
    25    13    17    1
    26    23    28    1
    27    30    31    1
    28    12     4    1
    29    17    18    1
    30     2     1   ar
    31     4     5   ar
    32     1     5   ar
    33     1     6    1
    34    28    29    1
