@<TRIPOS>MOLECULE
mol_data/opt/cam/geoms/mol2/5gi.out
 13 13 0 0 0
SMALL
GASTEIGER

@<TRIPOS>ATOM
      1 C          -2.1072   -1.7100    0.0050 C.ar    1  LIG1       -0.0109
      2 C          -0.7482   -1.6458    0.0650 C.ar    1  LIG1        0.0147
      3 C          -0.2440   -0.2963    0.0710 C.ar    1  LIG1       -0.0303
      4 C          -1.2609    0.6053    0.0056 C.ar    1  LIG1       -0.0204
      5 S          -2.8155   -0.1435   -0.0438 S.2     1  LIG1       -0.1037
      6 H          -2.7196   -2.5994   -0.0144 H       1  LIG1        0.0704
      7 H          -1.1794    1.6831   -0.0061 H       1  LIG1        0.0696
      8 S           0.2566   -3.1031    0.2354 S.3     1  LIG1       -0.1418
      9 H           0.9354   -2.9912   -0.9216 H       1  LIG1        0.1071
     10 C           1.2101    0.0565    0.1378 C.3     1  LIG1       -0.0382
     11 H           1.3476    1.1366    0.2139 H       1  LIG1        0.0278
     12 H           1.7468   -0.2873   -0.7525 H       1  LIG1        0.0278
     13 H           1.6873   -0.4157    1.0009 H       1  LIG1        0.0278
@<TRIPOS>BOND
     1     9     8    1
     2    12    10    1
     3     5     1   ar
     4     5     4   ar
     5     6     1    1
     6     7     4    1
     7     1     2   ar
     8     4     3   ar
     9     2     3   ar
    10     2     8    1
    11     3    10    1
    12    10    11    1
    13    10    13    1
