@<TRIPOS>MOLECULE
mol_data/opt/cam/geoms/mol2/5gi5gi5gi-5gi-.out
 46 49 0 0 0
SMALL
GASTEIGER

@<TRIPOS>ATOM
      1 C          -1.0729   -1.3760   -2.4164 C.ar    1  LIG1       -0.0103
      2 C          -0.8805   -1.6670   -1.1003 C.ar    1  LIG1        0.0153
      3 C          -0.6527   -0.5040   -0.2854 C.ar    1  LIG1       -0.0220
      4 C          -0.6605    0.6424   -1.0357 C.ar    1  LIG1        0.0309
      5 S          -0.9746    0.3102   -2.7179 S.2     1  LIG1       -0.0947
      6 H          -1.2617   -2.0749   -3.2180 H       1  LIG1        0.0704
      7 S          -1.0302   -3.3256   -0.4777 S.3     1  LIG1       -0.1418
      8 H           0.2225   -3.4527   -0.0021 H       1  LIG1        0.1071
      9 C          -0.4669   -0.5611    1.1986 C.3     1  LIG1       -0.0376
     10 H          -0.5729    0.4277    1.6473 H       1  LIG1        0.0278
     11 H           0.5253   -0.9416    1.4632 H       1  LIG1        0.0278
     12 H          -1.2032   -1.2318    1.6487 H       1  LIG1        0.0278
     13 C          -0.4586    2.0202   -0.5933 C.ar    1  LIG1        0.0402
     14 C           0.6257    2.5772    0.0353 C.ar    1  LIG1        0.0236
     15 C           0.4749    3.9758    0.3274 C.ar    1  LIG1       -0.0214
     16 C          -0.7227    4.4620   -0.1264 C.ar    1  LIG1        0.0315
     17 S          -1.6880    3.2159   -0.8583 S.2     1  LIG1       -0.0858
     18 S           2.0595    1.6285    0.4799 S.3     1  LIG1       -0.1412
     19 H           2.9730    2.5175    0.0526 H       1  LIG1        0.1071
     20 C           1.5018    4.7790    1.0632 C.3     1  LIG1       -0.0375
     21 H           1.0917    5.7369    1.3860 H       1  LIG1        0.0278
     22 H           2.3758    4.9891    0.4370 H       1  LIG1        0.0278
     23 H           1.8528    4.2356    1.9445 H       1  LIG1        0.0278
     24 C          -1.2394    5.8260   -0.0429 C.ar    1  LIG1        0.0402
     25 C          -0.7065    6.9854   -0.5459 C.ar    1  LIG1        0.0236
     26 C          -1.4946    8.1552   -0.2723 C.ar    1  LIG1       -0.0214
     27 C          -2.6419    7.8456    0.4090 C.ar    1  LIG1        0.0315
     28 S          -2.7424    6.1474    0.7634 S.2     1  LIG1       -0.0858
     29 S           0.8399    7.0236   -1.4179 S.3     1  LIG1       -0.1412
     30 H           0.4344    7.8271   -2.4164 H       1  LIG1        0.1071
     31 C          -1.0823    9.5386   -0.6692 C.3     1  LIG1       -0.0375
     32 H          -1.6896   10.2881   -0.1597 H       1  LIG1        0.0278
     33 H          -1.1941    9.7009   -1.7468 H       1  LIG1        0.0278
     34 H          -0.0323    9.7118   -0.4188 H       1  LIG1        0.0278
     35 C          -3.7081    8.7435    0.8475 C.ar    1  LIG1        0.0396
     36 C          -4.5140    9.5602    0.0954 C.ar    1  LIG1        0.0230
     37 C          -5.4715   10.3009    0.8731 C.ar    1  LIG1       -0.0297
     38 C          -5.3698   10.0019    2.1964 C.ar    1  LIG1       -0.0197
     39 S          -4.1189    8.8697    2.5330 S.2     1  LIG1       -0.0947
     40 H          -5.9671   10.4056    3.0019 H       1  LIG1        0.0696
     41 S          -4.3488    9.7045   -1.6664 S.3     1  LIG1       -0.1412
     42 H          -5.6618    9.6614   -1.9517 H       1  LIG1        0.1071
     43 C          -6.4606   11.2649    0.2936 C.3     1  LIG1       -0.0382
     44 H          -7.0138   11.7755    1.0838 H       1  LIG1        0.0278
     45 H          -7.1914   10.7586   -0.3465 H       1  LIG1        0.0278
     46 H          -5.9607   12.0194   -0.3204 H       1  LIG1        0.0278
@<TRIPOS>BOND
     1     6     1    1
     2     5     1   ar
     3     5     4   ar
     4    30    29    1
     5     1     2   ar
     6    42    41    1
     7    33    31    1
     8    41    36    1
     9    29    25    1
    10     2     7    1
    11     2     3   ar
    12     4    13    1
    13     4     3   ar
    14    17    13   ar
    15    17    16   ar
    16    31    34    1
    17    31    26    1
    18    31    32    1
    19    13    14   ar
    20    25    26   ar
    21    25    24   ar
    22     7     8    1
    23    45    43    1
    24    46    43    1
    25     3     9    1
    26    26    27   ar
    27    16    24    1
    28    16    15   ar
    29    24    28   ar
    30    14    15   ar
    31    14    18    1
    32    19    18    1
    33    36    35   ar
    34    36    37   ar
    35    43    37    1
    36    43    44    1
    37    15    20    1
    38    27    28   ar
    39    27    35    1
    40    22    20    1
    41    35    39   ar
    42    37    38   ar
    43    20    21    1
    44    20    23    1
    45     9    11    1
    46     9    10    1
    47     9    12    1
    48    38    39   ar
    49    38    40    1
