@<TRIPOS>MOLECULE
mol_data/opt/cam/geoms/mol2/5gi5gi-5gi-.out
 35 37 0 0 0
SMALL
GASTEIGER

@<TRIPOS>ATOM
      1 C          -1.7158   -1.5657   -1.6175 C.ar    1  LIG1       -0.0103
      2 C          -0.8891   -1.7854   -0.5582 C.ar    1  LIG1        0.0153
      3 C          -0.4101   -0.5750    0.0535 C.ar    1  LIG1       -0.0220
      4 C          -0.8854    0.5352   -0.5936 C.ar    1  LIG1        0.0309
      5 S          -1.9343    0.1091   -1.9195 S.2     1  LIG1       -0.0947
      6 H          -2.1986   -2.3103   -2.2332 H       1  LIG1        0.0704
      7 S          -0.5627   -3.4242    0.0493 S.3     1  LIG1       -0.1418
      8 H           0.7683   -3.4280   -0.1500 H       1  LIG1        0.1071
      9 C           0.4686   -0.5559    1.2650 C.3     1  LIG1       -0.0376
     10 H           0.4933    0.4363    1.7181 H       1  LIG1        0.0278
     11 H           1.4983   -0.8340    1.0169 H       1  LIG1        0.0278
     12 H           0.1082   -1.2724    2.0074 H       1  LIG1        0.0278
     13 C          -0.6286    1.9421   -0.2951 C.ar    1  LIG1        0.0402
     14 C           0.5655    2.6155   -0.2605 C.ar    1  LIG1        0.0236
     15 C           0.4403    4.0071    0.0749 C.ar    1  LIG1       -0.0214
     16 C          -0.8683    4.3700    0.2530 C.ar    1  LIG1        0.0315
     17 S          -1.9427    3.0168    0.0667 S.2     1  LIG1       -0.0858
     18 S           2.1200    1.8128   -0.5638 S.3     1  LIG1       -0.1412
     19 H           2.6365    2.7696   -1.3542 H       1  LIG1        0.1071
     20 C           1.6119    4.9260    0.2309 C.3     1  LIG1       -0.0375
     21 H           1.3144    5.8606    0.7084 H       1  LIG1        0.0278
     22 H           2.0600    5.1782   -0.7364 H       1  LIG1        0.0278
     23 H           2.3890    4.4558    0.8395 H       1  LIG1        0.0278
     24 C          -1.4098    5.6883    0.5755 C.ar    1  LIG1        0.0396
     25 C          -1.3037    6.8621   -0.1267 C.ar    1  LIG1        0.0230
     26 C          -1.9808    7.9695    0.4940 C.ar    1  LIG1       -0.0297
     27 C          -2.5984    7.5883    1.6446 C.ar    1  LIG1       -0.0197
     28 S          -2.3532    5.9268    2.0174 S.2     1  LIG1       -0.0947
     29 H          -3.1822    8.2124    2.3067 H       1  LIG1        0.0696
     30 S          -0.3801    6.9906   -1.6376 S.3     1  LIG1       -0.1412
     31 H          -1.2833    7.7227   -2.3122 H       1  LIG1        0.1071
     32 C          -2.0108    9.3583   -0.0664 C.3     1  LIG1       -0.0382
     33 H          -2.5050   10.0447    0.6233 H       1  LIG1        0.0278
     34 H          -2.5530    9.3990   -1.0175 H       1  LIG1        0.0278
     35 H          -0.9988    9.7279   -0.2551 H       1  LIG1        0.0278
@<TRIPOS>BOND
     1    31    30    1
     2     6     1    1
     3     5     1   ar
     4     5     4   ar
     5    30    25    1
     6     1     2   ar
     7    19    18    1
     8    34    32    1
     9    22    20    1
    10     4    13    1
    11     4     3   ar
    12    18    14    1
    13     2     7    1
    14     2     3   ar
    15    13    14   ar
    16    13    17   ar
    17    14    15   ar
    18    35    32    1
    19     8     7    1
    20    25    26   ar
    21    25    24   ar
    22    32    26    1
    23    32    33    1
    24     3     9    1
    25    17    16   ar
    26    15    20    1
    27    15    16   ar
    28    20    21    1
    29    20    23    1
    30    16    24    1
    31    26    27   ar
    32    24    28   ar
    33    11     9    1
    34     9    10    1
    35     9    12    1
    36    27    28   ar
    37    27    29    1
