@<TRIPOS>MOLECULE
mol_data/opt/cam/geoms/mol2/5gi5gi-5gi-5gi-.out
 46 49 0 0 0
SMALL
GASTEIGER

@<TRIPOS>ATOM
      1 C          -1.0920   -1.3695   -2.4182 C.ar    1  LIG1       -0.0103
      2 C          -0.8898   -1.6641   -1.1044 C.ar    1  LIG1        0.0153
      3 C          -0.6558   -0.5034   -0.2881 C.ar    1  LIG1       -0.0220
      4 C          -0.6690    0.6451   -1.0351 C.ar    1  LIG1        0.0309
      5 S          -0.9957    0.3175   -2.7159 S.2     1  LIG1       -0.0947
      6 H          -1.2868   -2.0661   -3.2203 H       1  LIG1        0.0704
      7 S          -1.0351   -3.3244   -0.4853 S.3     1  LIG1       -0.1418
      8 H           0.2210   -3.4529   -0.0193 H       1  LIG1        0.1071
      9 C          -0.4589   -0.5646    1.1944 C.3     1  LIG1       -0.0376
     10 H          -0.5615    0.4230    1.6466 H       1  LIG1        0.0278
     11 H           0.5351   -0.9459    1.4506 H       1  LIG1        0.0278
     12 H          -1.1920   -1.2363    1.6481 H       1  LIG1        0.0278
     13 C          -0.4636    2.0216   -0.5905 C.ar    1  LIG1        0.0402
     14 C           0.6254    2.5767    0.0315 C.ar    1  LIG1        0.0236
     15 C           0.4771    3.9746    0.3286 C.ar    1  LIG1       -0.0214
     16 C          -0.7238    4.4622   -0.1149 C.ar    1  LIG1        0.0315
     17 S          -1.6948    3.2182   -0.8430 S.2     1  LIG1       -0.0858
     18 S           2.0624    1.6267    0.4629 S.3     1  LIG1       -0.1412
     19 H           2.9728    2.5167    0.0313 H       1  LIG1        0.1071
     20 C           1.5096    4.7756    1.0589 C.3     1  LIG1       -0.0375
     21 H           1.1020    5.7327    1.3874 H       1  LIG1        0.0278
     22 H           2.3789    4.9873    0.4268 H       1  LIG1        0.0278
     23 H           1.8670    4.2298    1.9361 H       1  LIG1        0.0278
     24 C          -1.2397    5.8261   -0.0238 C.ar    1  LIG1        0.0402
     25 C          -0.7103    6.9867   -0.5276 C.ar    1  LIG1        0.0236
     26 C          -1.4962    8.1559   -0.2449 C.ar    1  LIG1       -0.0214
     27 C          -2.6384    7.8446    0.4441 C.ar    1  LIG1        0.0315
     28 S          -2.7365    6.1455    0.7945 S.2     1  LIG1       -0.0858
     29 S           0.8296    7.0271   -1.4110 S.3     1  LIG1       -0.1412
     30 H           0.4167    7.8333   -2.4042 H       1  LIG1        0.1071
     31 C          -1.0867    9.5403   -0.6411 C.3     1  LIG1       -0.0375
     32 H          -1.6899   10.2885   -0.1251 H       1  LIG1        0.0278
     33 H          -1.2064    9.7056   -1.7174 H       1  LIG1        0.0278
     34 H          -0.0348    9.7127   -0.3980 H       1  LIG1        0.0278
     35 C          -3.7012    8.7414    0.8929 C.ar    1  LIG1        0.0396
     36 C          -4.5125    9.5603    0.1491 C.ar    1  LIG1        0.0230
     37 C          -5.4641   10.2990    0.9360 C.ar    1  LIG1       -0.0297
     38 C          -5.3525    9.9964    2.2576 C.ar    1  LIG1       -0.0197
     39 S          -4.0994    8.8631    2.5818 S.2     1  LIG1       -0.0947
     40 H          -5.9438   10.3980    3.0687 H       1  LIG1        0.0696
     41 S          -4.3605    9.7094   -1.6135 S.3     1  LIG1       -0.1412
     42 H          -5.6755    9.6673   -1.8890 H       1  LIG1        0.1071
     43 C          -6.4573   11.2647    0.3665 C.3     1  LIG1       -0.0382
     44 H          -7.0046   11.7732    1.1622 H       1  LIG1        0.0278
     45 H          -7.1930   10.7603   -0.2695 H       1  LIG1        0.0278
     46 H          -5.9619   12.0208   -0.2492 H       1  LIG1        0.0278
@<TRIPOS>BOND
     1     6     1    1
     2     5     1   ar
     3     5     4   ar
     4     1     2   ar
     5    30    29    1
     6    42    41    1
     7    33    31    1
     8    41    36    1
     9    29    25    1
    10     2     7    1
    11     2     3   ar
    12     4    13    1
    13     4     3   ar
    14    17    13   ar
    15    17    16   ar
    16    31    34    1
    17    31    26    1
    18    31    32    1
    19    13    14   ar
    20    25    26   ar
    21    25    24   ar
    22     7     8    1
    23     3     9    1
    24    45    43    1
    25    46    43    1
    26    26    27   ar
    27    16    24    1
    28    16    15   ar
    29    24    28   ar
    30    19    18    1
    31    14    15   ar
    32    14    18    1
    33    36    35   ar
    34    36    37   ar
    35    15    20    1
    36    43    37    1
    37    43    44    1
    38    22    20    1
    39    27    28   ar
    40    27    35    1
    41    35    39   ar
    42    37    38   ar
    43    20    21    1
    44    20    23    1
    45     9    11    1
    46     9    10    1
    47     9    12    1
    48    38    39   ar
    49    38    40    1
