@<TRIPOS>MOLECULE
mol_data/opt/cam/geoms/mol2/5gi5gi5gi5gi.out
 46 49 0 0 0
SMALL
GASTEIGER

@<TRIPOS>ATOM
      1 C          -1.0906   -1.3727   -2.4205 C.ar    1  LIG1       -0.0103
      2 C          -0.8881   -1.6654   -1.1064 C.ar    1  LIG1        0.0153
      3 C          -0.6542   -0.5036   -0.2916 C.ar    1  LIG1       -0.0220
      4 C          -0.6679    0.6439   -1.0402 C.ar    1  LIG1        0.0309
      5 S          -0.9947    0.3140   -2.7205 S.2     1  LIG1       -0.0947
      6 H          -1.2853   -2.0705   -3.2216 H       1  LIG1        0.0704
      7 S          -1.0329   -3.3249   -0.4849 S.3     1  LIG1       -0.1418
      8 H           0.2233   -3.4525   -0.0190 H       1  LIG1        0.1071
      9 C          -0.4572   -0.5626    1.1909 C.3     1  LIG1       -0.0376
     10 H          -0.5600    0.4255    1.6417 H       1  LIG1        0.0278
     11 H           0.5370   -0.9433    1.4475 H       1  LIG1        0.0278
     12 H          -1.1899   -1.2340    1.6456 H       1  LIG1        0.0278
     13 C          -0.4627    2.0211   -0.5975 C.ar    1  LIG1        0.0402
     14 C           0.6262    2.5774    0.0236 C.ar    1  LIG1        0.0236
     15 C           0.4775    3.9756    0.3188 C.ar    1  LIG1       -0.0214
     16 C          -0.7235    4.4623   -0.1252 C.ar    1  LIG1        0.0315
     17 S          -1.6943    3.2170   -0.8515 S.2     1  LIG1       -0.0858
     18 S           2.0634    1.6283    0.4561 S.3     1  LIG1       -0.1412
     19 H           2.9736    2.5179    0.0232 H       1  LIG1        0.1071
     20 C           1.5099    4.7779    1.0479 C.3     1  LIG1       -0.0375
     21 H           1.1021    5.7353    1.3750 H       1  LIG1        0.0278
     22 H           2.3791    4.9889    0.4154 H       1  LIG1        0.0278
     23 H           1.8675    4.2333    1.9258 H       1  LIG1        0.0278
     24 C          -1.2398    5.8261   -0.0360 C.ar    1  LIG1        0.0402
     25 C          -0.7107    6.9862   -0.5414 C.ar    1  LIG1        0.0236
     26 C          -1.4969    8.1556   -0.2603 C.ar    1  LIG1       -0.0214
     27 C          -2.6390    7.8449    0.4293 C.ar    1  LIG1        0.0315
     28 S          -2.7366    6.1462    0.7821 S.2     1  LIG1       -0.0858
     29 S           0.8290    7.0258   -1.4251 S.3     1  LIG1       -0.1412
     30 H           0.4158    7.8306   -2.4193 H       1  LIG1        0.1071
     31 C          -1.0878    9.5396   -0.6583 C.3     1  LIG1       -0.0375
     32 H          -1.6912   10.2883   -0.1433 H       1  LIG1        0.0278
     33 H          -1.2077    9.7033   -1.7349 H       1  LIG1        0.0278
     34 H          -0.0359    9.7125   -0.4156 H       1  LIG1        0.0278
     35 C          -3.7019    8.7421    0.8771 C.ar    1  LIG1        0.0396
     36 C          -4.5135    9.5597    0.1323 C.ar    1  LIG1        0.0230
     37 C          -5.4652   10.2992    0.9183 C.ar    1  LIG1       -0.0297
     38 C          -5.3534    9.9985    2.2403 C.ar    1  LIG1       -0.0197
     39 S          -4.1000    8.8660    2.5658 S.2     1  LIG1       -0.0947
     40 H          -5.9447   10.4010    3.0509 H       1  LIG1        0.0696
     41 S          -4.3617    9.7065   -1.6306 S.3     1  LIG1       -0.1412
     42 H          -5.6768    9.6637   -1.9059 H       1  LIG1        0.1071
     43 C          -6.4588   11.2639    0.3476 C.3     1  LIG1       -0.0382
     44 H          -7.0060   11.7734    1.1426 H       1  LIG1        0.0278
     45 H          -7.1944   10.7585   -0.2877 H       1  LIG1        0.0278
     46 H          -5.9636   12.0194   -0.2692 H       1  LIG1        0.0278
@<TRIPOS>BOND
     1     6     1    1
     2     5     1   ar
     3     5     4   ar
     4     1     2   ar
     5    30    29    1
     6    42    41    1
     7    33    31    1
     8    41    36    1
     9    29    25    1
    10     2     7    1
    11     2     3   ar
    12     4    13    1
    13     4     3   ar
    14    17    13   ar
    15    17    16   ar
    16    31    34    1
    17    31    26    1
    18    31    32    1
    19    13    14   ar
    20    25    26   ar
    21    25    24   ar
    22     7     8    1
    23     3     9    1
    24    45    43    1
    25    46    43    1
    26    26    27   ar
    27    16    24    1
    28    16    15   ar
    29    24    28   ar
    30    19    18    1
    31    14    15   ar
    32    14    18    1
    33    36    35   ar
    34    36    37   ar
    35    15    20    1
    36    43    37    1
    37    43    44    1
    38    22    20    1
    39    27    28   ar
    40    27    35    1
    41    35    39   ar
    42    37    38   ar
    43    20    21    1
    44    20    23    1
    45     9    11    1
    46     9    10    1
    47     9    12    1
    48    38    39   ar
    49    38    40    1
