@<TRIPOS>MOLECULE
mol_data/opt/cam/geoms/mol2/5gi5gi5gi-.out
 35 37 0 0 0
SMALL
GASTEIGER

@<TRIPOS>ATOM
      1 C          -1.6756   -1.5719   -1.6338 C.ar    1  LIG1       -0.0103
      2 C          -0.8661   -1.7874   -0.5606 C.ar    1  LIG1        0.0153
      3 C          -0.4003   -0.5746    0.0566 C.ar    1  LIG1       -0.0220
      4 C          -0.8677    0.5331   -0.6004 C.ar    1  LIG1        0.0309
      5 S          -1.8933    0.1017   -1.9428 S.2     1  LIG1       -0.0947
      6 H          -2.1462   -2.3189   -2.2561 H       1  LIG1        0.0704
      7 S          -0.5456   -3.4242    0.0555 S.3     1  LIG1       -0.1418
      8 H           0.7885   -3.4249   -0.1217 H       1  LIG1        0.1071
      9 C           0.4581   -0.5508    1.2825 C.3     1  LIG1       -0.0376
     10 H           0.4725    0.4422    1.7341 H       1  LIG1        0.0278
     11 H           1.4925   -0.8265    1.0521 H       1  LIG1        0.0278
     12 H           0.0873   -1.2670    2.0201 H       1  LIG1        0.0278
     13 C          -0.6195    1.9412   -0.3005 C.ar    1  LIG1        0.0402
     14 C           0.5721    2.6178   -0.2473 C.ar    1  LIG1        0.0236
     15 C           0.4378    4.0097    0.0833 C.ar    1  LIG1       -0.0214
     16 C          -0.8746    4.3696    0.2389 C.ar    1  LIG1        0.0315
     17 S          -1.9422    3.0133    0.0374 S.2     1  LIG1       -0.0858
     18 S           2.1335    1.8186   -0.5232 S.3     1  LIG1       -0.1412
     19 H           2.6605    2.7752   -1.3069 H       1  LIG1        0.1071
     20 C           1.6042    4.9320    0.2569 C.3     1  LIG1       -0.0375
     21 H           1.2964    5.8667    0.7276 H       1  LIG1        0.0278
     22 H           2.0677    5.1835   -0.7033 H       1  LIG1        0.0278
     23 H           2.3723    4.4650    0.8792 H       1  LIG1        0.0278
     24 C          -1.4247    5.6871    0.5498 C.ar    1  LIG1        0.0396
     25 C          -1.3100    6.8598   -0.1528 C.ar    1  LIG1        0.0230
     26 C          -2.0002    7.9666    0.4544 C.ar    1  LIG1       -0.0297
     27 C          -2.6358    7.5860    1.5953 C.ar    1  LIG1       -0.0197
     28 S          -2.3925    5.9258    1.9754 S.2     1  LIG1       -0.0947
     29 H          -3.2321    8.2099    2.2464 H       1  LIG1        0.0696
     30 S          -0.3618    6.9877   -1.6485 S.3     1  LIG1       -0.1412
     31 H          -1.2556    7.7163   -2.3394 H       1  LIG1        0.1071
     32 C          -2.0245    9.3542   -0.1092 C.3     1  LIG1       -0.0382
     33 H          -2.5319   10.0407    0.5708 H       1  LIG1        0.0278
     34 H          -2.5508    9.3917   -1.0693 H       1  LIG1        0.0278
     35 H          -1.0105    9.7262   -0.2817 H       1  LIG1        0.0278
@<TRIPOS>BOND
     1    31    30    1
     2     6     1    1
     3     5     1   ar
     4     5     4   ar
     5    30    25    1
     6     1     2   ar
     7    19    18    1
     8    34    32    1
     9    22    20    1
    10     4    13    1
    11     4     3   ar
    12     2     7    1
    13     2     3   ar
    14    18    14    1
    15    13    14   ar
    16    13    17   ar
    17    35    32    1
    18    14    15   ar
    19    25    26   ar
    20    25    24   ar
    21     8     7    1
    22    32    26    1
    23    32    33    1
    24    17    16   ar
    25     3     9    1
    26    15    16   ar
    27    15    20    1
    28    16    24    1
    29    20    21    1
    30    20    23    1
    31    26    27   ar
    32    24    28   ar
    33    11     9    1
    34     9    10    1
    35     9    12    1
    36    27    28   ar
    37    27    29    1
