@<TRIPOS>MOLECULE
mol_data/opt/cam/geoms/mol2/5gi5gi-5gi5gi-.out
 46 49 0 0 0
SMALL
GASTEIGER

@<TRIPOS>ATOM
      1 C          -1.1174   -1.3759   -2.4014 C.ar    1  LIG1       -0.0103
      2 C          -0.9018   -1.6671   -1.0890 C.ar    1  LIG1        0.0153
      3 C          -0.6593   -0.5043   -0.2781 C.ar    1  LIG1       -0.0220
      4 C          -0.6801    0.6423   -1.0280 C.ar    1  LIG1        0.0309
      5 S          -1.0240    0.3103   -2.7045 S.2     1  LIG1       -0.0947
      6 H          -1.3205   -2.0746   -3.1997 H       1  LIG1        0.0704
      7 S          -1.0409   -3.3257   -0.4640 S.3     1  LIG1       -0.1418
      8 H           0.2199   -3.4531   -0.0106 H       1  LIG1        0.1071
      9 C          -0.4473   -0.5615    1.2024 C.3     1  LIG1       -0.0376
     10 H          -0.5451    0.4272    1.6530 H       1  LIG1        0.0278
     11 H           0.5493   -0.9423    1.4494 H       1  LIG1        0.0278
     12 H          -1.1757   -1.2320    1.6653 H       1  LIG1        0.0278
     13 C          -0.4700    2.0199   -0.5891 C.ar    1  LIG1        0.0402
     14 C           0.6254    2.5766    0.0202 C.ar    1  LIG1        0.0236
     15 C           0.4802    3.9752    0.3151 C.ar    1  LIG1       -0.0214
     16 C          -0.7251    4.4618   -0.1173 C.ar    1  LIG1        0.0315
     17 S          -1.7036    3.2160   -0.8322 S.2     1  LIG1       -0.0858
     18 S           2.0666    1.6275    0.4394 S.3     1  LIG1       -0.1412
     19 H           2.9726    2.5163   -0.0039 H       1  LIG1        0.1071
     20 C           1.5202    4.7781    1.0327 C.3     1  LIG1       -0.0375
     21 H           1.1161    5.7360    1.3628 H       1  LIG1        0.0278
     22 H           2.3830    4.9880    0.3912 H       1  LIG1        0.0278
     23 H           1.8865    4.2345    1.9076 H       1  LIG1        0.0278
     24 C          -1.2399    5.8260   -0.0246 C.ar    1  LIG1        0.0402
     25 C          -0.7156    6.9852   -0.5368 C.ar    1  LIG1        0.0236
     26 C          -1.4985    8.1552   -0.2492 C.ar    1  LIG1       -0.0214
     27 C          -2.6336    7.8459    0.4523 C.ar    1  LIG1        0.0315
     28 S          -2.7283    6.1477    0.8082 S.2     1  LIG1       -0.0858
     29 S           0.8151    7.0231   -1.4361 S.3     1  LIG1       -0.1412
     30 H           0.3922    7.8268   -2.4271 H       1  LIG1        0.1071
     31 C          -1.0929    9.5386   -0.6531 C.3     1  LIG1       -0.0375
     32 H          -1.6908   10.2881   -0.1330 H       1  LIG1        0.0278
     33 H          -1.2236    9.7010   -1.7286 H       1  LIG1        0.0278
     34 H          -0.0386    9.7114   -0.4213 H       1  LIG1        0.0278
     35 C          -3.6917    8.7440    0.9096 C.ar    1  LIG1        0.0396
     36 C          -4.5105    9.5610    0.1720 C.ar    1  LIG1        0.0230
     37 C          -5.4539   10.3018    0.9666 C.ar    1  LIG1       -0.0297
     38 C          -5.3289   10.0027    2.2878 C.ar    1  LIG1       -0.0197
     39 S          -4.0726    8.8701    2.6021 S.2     1  LIG1       -0.0947
     40 H          -5.9118   10.4065    3.1039 H       1  LIG1        0.0696
     41 S          -4.3765    9.7054   -1.5925 S.3     1  LIG1       -0.1412
     42 H          -5.6943    9.6628   -1.8545 H       1  LIG1        0.1071
     43 C          -6.4528   11.2662    0.4048 C.3     1  LIG1       -0.0382
     44 H          -6.9919   11.7769    1.2047 H       1  LIG1        0.0278
     45 H          -7.1950   10.7602   -0.2223 H       1  LIG1        0.0278
     46 H          -5.9636   12.0206   -0.2179 H       1  LIG1        0.0278
@<TRIPOS>BOND
     1     6     1    1
     2     5     1   ar
     3     5     4   ar
     4    30    29    1
     5     1     2   ar
     6    42    41    1
     7    33    31    1
     8    41    36    1
     9    29    25    1
    10     2     7    1
    11     2     3   ar
    12     4    13    1
    13     4     3   ar
    14    17    13   ar
    15    17    16   ar
    16    31    34    1
    17    31    26    1
    18    31    32    1
    19    13    14   ar
    20    25    26   ar
    21    25    24   ar
    22     7     8    1
    23     3     9    1
    24    26    27   ar
    25    45    43    1
    26    46    43    1
    27    16    24    1
    28    16    15   ar
    29    24    28   ar
    30    19    18    1
    31    14    15   ar
    32    14    18    1
    33    36    35   ar
    34    36    37   ar
    35    15    20    1
    36    22    20    1
    37    43    37    1
    38    43    44    1
    39    27    28   ar
    40    27    35    1
    41    35    39   ar
    42    37    38   ar
    43    20    21    1
    44    20    23    1
    45     9    11    1
    46     9    10    1
    47     9    12    1
    48    38    39   ar
    49    38    40    1
