@<TRIPOS>MOLECULE
mol_data/opt/cam/geoms/mol2/5gi5gi5gi.out
 35 37 0 0 0
SMALL
GASTEIGER

@<TRIPOS>ATOM
      1 C          -1.6978   -1.5802   -1.5969 C.ar    1  LIG1       -0.0103
      2 C          -0.8780   -1.7902   -0.5304 C.ar    1  LIG1        0.0153
      3 C          -0.4047   -0.5744    0.0748 C.ar    1  LIG1       -0.0220
      4 C          -0.8771    0.5300   -0.5844 C.ar    1  LIG1        0.0309
      5 S          -1.9165    0.0917   -1.9139 S.2     1  LIG1       -0.0947
      6 H          -2.1754   -2.3304   -2.2099 H       1  LIG1        0.0704
      7 S          -0.5534   -3.4237    0.0924 S.3     1  LIG1       -0.1418
      8 H           0.7789   -3.4272   -0.0979 H       1  LIG1        0.1071
      9 C           0.4658   -0.5442    1.2920 C.3     1  LIG1       -0.0376
     10 H           0.4860    0.4516    1.7373 H       1  LIG1        0.0278
     11 H           1.4975   -0.8228    1.0531 H       1  LIG1        0.0278
     12 H           0.1014   -1.2553    2.0376 H       1  LIG1        0.0278
     13 C          -0.6243    1.9396   -0.2954 C.ar    1  LIG1        0.0402
     14 C           0.5686    2.6149   -0.2582 C.ar    1  LIG1        0.0236
     15 C           0.4392    4.0090    0.0652 C.ar    1  LIG1       -0.0214
     16 C          -0.8711    4.3715    0.2316 C.ar    1  LIG1        0.0315
     17 S          -1.9423    3.0153    0.0489 S.2     1  LIG1       -0.0858
     18 S           2.1262    1.8120   -0.5445 S.3     1  LIG1       -0.1412
     19 H           2.6466    2.7632   -1.3391 H       1  LIG1        0.1071
     20 C           1.6084    4.9308    0.2217 C.3     1  LIG1       -0.0375
     21 H           1.3065    5.8687    0.6897 H       1  LIG1        0.0278
     22 H           2.0627    5.1758   -0.7445 H       1  LIG1        0.0278
     23 H           2.3821    4.4666    0.8393 H       1  LIG1        0.0278
     24 C          -1.4165    5.6915    0.5398 C.ar    1  LIG1        0.0396
     25 C          -1.3073    6.8598   -0.1710 C.ar    1  LIG1        0.0230
     26 C          -1.9901    7.9712    0.4362 C.ar    1  LIG1       -0.0297
     27 C          -2.6149    7.5984    1.5857 C.ar    1  LIG1       -0.0197
     28 S          -2.3699    5.9402    1.9735 S.2     1  LIG1       -0.0947
     29 H          -3.2039    8.2269    2.2389 H       1  LIG1        0.0696
     30 S          -0.3738    6.9774   -1.6767 S.3     1  LIG1       -0.1412
     31 H          -1.2734    7.7029   -2.3632 H       1  LIG1        0.1071
     32 C          -2.0182    9.3553   -0.1355 C.3     1  LIG1       -0.0382
     33 H          -2.5181   10.0466    0.5453 H       1  LIG1        0.0278
     34 H          -2.5541    9.3877   -1.0905 H       1  LIG1        0.0278
     35 H          -1.0055    9.7249   -0.3204 H       1  LIG1        0.0278
@<TRIPOS>BOND
     1    31    30    1
     2     6     1    1
     3     5     1   ar
     4     5     4   ar
     5    30    25    1
     6     1     2   ar
     7    19    18    1
     8    34    32    1
     9    22    20    1
    10     4    13    1
    11     4     3   ar
    12    18    14    1
    13     2     3   ar
    14     2     7    1
    15    35    32    1
    16    13    14   ar
    17    13    17   ar
    18    14    15   ar
    19    25    26   ar
    20    25    24   ar
    21    32    26    1
    22    32    33    1
    23     8     7    1
    24    17    16   ar
    25    15    20    1
    26    15    16   ar
    27     3     9    1
    28    20    21    1
    29    20    23    1
    30    16    24    1
    31    26    27   ar
    32    24    28   ar
    33    11     9    1
    34     9    10    1
    35     9    12    1
    36    27    28   ar
    37    27    29    1
