@<TRIPOS>MOLECULE
mol_data/opt/cam/geoms/mol2/5gi5gi-5gi5gi.out
 46 49 0 0 0
SMALL
GASTEIGER

@<TRIPOS>ATOM
      1 C          -1.1164   -1.3665   -2.4227 C.ar    1  LIG1       -0.0103
      2 C          -0.9015   -1.6628   -1.1113 C.ar    1  LIG1        0.0153
      3 C          -0.6594   -0.5032   -0.2957 C.ar    1  LIG1       -0.0220
      4 C          -0.6797    0.6463   -1.0411 C.ar    1  LIG1        0.0309
      5 S          -1.0227    0.3209   -2.7191 S.2     1  LIG1       -0.0947
      6 H          -1.3191   -2.0621   -3.2237 H       1  LIG1        0.0704
      7 S          -1.0410   -3.3239   -0.4929 S.3     1  LIG1       -0.1418
      8 H           0.2196   -3.4532   -0.0394 H       1  LIG1        0.1071
      9 C          -0.4482   -0.5663    1.1847 C.3     1  LIG1       -0.0376
     10 H          -0.5464    0.4207    1.6391 H       1  LIG1        0.0278
     11 H           0.5483   -0.9479    1.4307 H       1  LIG1        0.0278
     12 H          -1.1767   -1.2387    1.6446 H       1  LIG1        0.0278
     13 C          -0.4698    2.0222   -0.5967 C.ar    1  LIG1        0.0402
     14 C           0.6252    2.5764    0.0154 C.ar    1  LIG1        0.0236
     15 C           0.4799    3.9739    0.3157 C.ar    1  LIG1       -0.0214
     16 C          -0.7251    4.4622   -0.1155 C.ar    1  LIG1        0.0315
     17 S          -1.7032    3.2193   -0.8359 S.2     1  LIG1       -0.0858
     18 S           2.0662    1.6256    0.4316 S.3     1  LIG1       -0.1412
     19 H           2.9725    2.5161   -0.0076 H       1  LIG1        0.1071
     20 C           1.5196    4.7739    1.0370 C.3     1  LIG1       -0.0375
     21 H           1.1153    5.7306    1.3706 H       1  LIG1        0.0278
     22 H           2.3828    4.9862    0.3969 H       1  LIG1        0.0278
     23 H           1.8853    4.2268    1.9100 H       1  LIG1        0.0278
     24 C          -1.2399    5.8260   -0.0178 C.ar    1  LIG1        0.0402
     25 C          -0.7152    6.9873   -0.5251 C.ar    1  LIG1        0.0236
     26 C          -1.4982    8.1561   -0.2334 C.ar    1  LIG1       -0.0214
     27 C          -2.6338    7.8441    0.4662 C.ar    1  LIG1        0.0315
     28 S          -2.7287    6.1445    0.8154 S.2     1  LIG1       -0.0858
     29 S           0.8160    7.0286   -1.4234 S.3     1  LIG1       -0.1412
     30 H           0.3937    7.8362   -2.4115 H       1  LIG1        0.1071
     31 C          -1.0924    9.5410   -0.6317 C.3     1  LIG1       -0.0375
     32 H          -1.6905   10.2886   -0.1090 H       1  LIG1        0.0278
     33 H          -1.2225    9.7077   -1.7066 H       1  LIG1        0.0278
     34 H          -0.0381    9.7129   -0.3986 H       1  LIG1        0.0278
     35 C          -3.6920    8.7405    0.9264 C.ar    1  LIG1        0.0396
     36 C          -4.5104    9.5604    0.1916 C.ar    1  LIG1        0.0230
     37 C          -5.4542   10.2982    0.9886 C.ar    1  LIG1       -0.0297
     38 C          -5.3300    9.9939    2.3086 C.ar    1  LIG1       -0.0197
     39 S          -4.0739    8.8600    2.6192 S.2     1  LIG1       -0.0947
     40 H          -5.9133   10.3945    3.1259 H       1  LIG1        0.0696
     41 S          -4.3754    9.7117   -1.5723 S.3     1  LIG1       -0.1412
     42 H          -5.6930    9.6702   -1.8351 H       1  LIG1        0.1071
     43 C          -6.4528   11.2648    0.4299 C.3     1  LIG1       -0.0382
     44 H          -6.9923   11.7723    1.2315 H       1  LIG1        0.0278
     45 H          -7.1947   10.7613   -0.1996 H       1  LIG1        0.0278
     46 H          -5.9632   12.0216   -0.1896 H       1  LIG1        0.0278
@<TRIPOS>BOND
     1     6     1    1
     2     5     1   ar
     3     5     4   ar
     4     1     2   ar
     5    30    29    1
     6    42    41    1
     7    33    31    1
     8    41    36    1
     9    29    25    1
    10     2     7    1
    11     2     3   ar
    12     4    13    1
    13     4     3   ar
    14    17    13   ar
    15    17    16   ar
    16    31    34    1
    17    31    26    1
    18    31    32    1
    19    13    14   ar
    20    25    26   ar
    21    25    24   ar
    22     7     8    1
    23     3     9    1
    24    26    27   ar
    25    45    43    1
    26    46    43    1
    27    16    24    1
    28    16    15   ar
    29    24    28   ar
    30    19    18    1
    31    14    15   ar
    32    14    18    1
    33    36    35   ar
    34    36    37   ar
    35    15    20    1
    36    22    20    1
    37    43    37    1
    38    43    44    1
    39    27    28   ar
    40    27    35    1
    41    35    39   ar
    42    37    38   ar
    43    20    21    1
    44    20    23    1
    45     9    11    1
    46     9    10    1
    47     9    12    1
    48    38    39   ar
    49    38    40    1
