@<TRIPOS>MOLECULE
mol_data/opt/cam/geoms/mol2/5gi5gi-.out
 24 25 0 0 0
SMALL
GASTEIGER

@<TRIPOS>ATOM
      1 C          -1.9803   -1.6838   -0.8341 C.ar    1  LIG1       -0.0103
      2 C          -0.7743   -1.7999   -0.2134 C.ar    1  LIG1        0.0153
      3 C          -0.2332   -0.5411    0.2244 C.ar    1  LIG1       -0.0220
      4 C          -1.0572    0.5016   -0.1085 C.ar    1  LIG1        0.0309
      5 S          -2.4973   -0.0498   -0.9219 S.2     1  LIG1       -0.0947
      6 H          -2.5817   -2.4812   -1.2453 H       1  LIG1        0.0704
      7 S          -0.0391   -3.3856    0.1129 S.3     1  LIG1       -0.1418
      8 H           1.0908   -3.2085   -0.5965 H       1  LIG1        0.1071
      9 C           1.0540   -0.4139    0.9776 C.3     1  LIG1       -0.0376
     10 H           1.1460    0.5720    1.4354 H       1  LIG1        0.0278
     11 H           1.9184   -0.5574    0.3207 H       1  LIG1        0.0278
     12 H           1.1124   -1.1727    1.7620 H       1  LIG1        0.0278
     13 C          -0.8663    1.9283    0.1419 C.ar    1  LIG1        0.0396
     14 C           0.1470    2.7523   -0.2772 C.ar    1  LIG1        0.0230
     15 C           0.0014    4.1157    0.1596 C.ar    1  LIG1       -0.0297
     16 C          -1.1376    4.2829    0.8842 C.ar    1  LIG1       -0.0197
     17 S          -2.0241    2.8219    1.0843 S.2     1  LIG1       -0.0947
     18 H          -1.4975    5.2013    1.3267 H       1  LIG1        0.0696
     19 S           1.5210    2.1633   -1.2351 S.3     1  LIG1       -0.1412
     20 H           1.5645    3.1947   -2.0960 H       1  LIG1        0.1071
     21 C           0.9742    5.2096   -0.1575 C.3     1  LIG1       -0.0382
     22 H           0.6987    6.1341    0.3529 H       1  LIG1        0.0278
     23 H           1.0074    5.4232   -1.2316 H       1  LIG1        0.0278
     24 H           1.9878    4.9356    0.1491 H       1  LIG1        0.0278
@<TRIPOS>BOND
     1    20    19    1
     2     6     1    1
     3    19    14    1
     4    23    21    1
     5     5     1   ar
     6     5     4   ar
     7     1     2   ar
     8     8     7    1
     9    14    13   ar
    10    14    15   ar
    11     2     7    1
    12     2     3   ar
    13    21    24    1
    14    21    15    1
    15    21    22    1
    16     4    13    1
    17     4     3   ar
    18    13    17   ar
    19    15    16   ar
    20     3     9    1
    21    11     9    1
    22    16    17   ar
    23    16    18    1
    24     9    10    1
    25     9    12    1
