@<TRIPOS>MOLECULE
mol_data/opt/cam/geoms/mol2/5gi5gi5gi5gi-.out
 46 49 0 0 0
SMALL
GASTEIGER

@<TRIPOS>ATOM
      1 C          -1.0963   -1.3813   -2.4021 C.ar    1  LIG1       -0.0103
      2 C          -0.8914   -1.6694   -1.0873 C.ar    1  LIG1        0.0153
      3 C          -0.6558   -0.5047   -0.2772 C.ar    1  LIG1       -0.0220
      4 C          -0.6706    0.6401   -1.0298 C.ar    1  LIG1        0.0309
      5 S          -1.0006    0.3042   -2.7083 S.2     1  LIG1       -0.0947
      6 H          -1.2927   -2.0819   -3.2004 H       1  LIG1        0.0704
      7 S          -1.0354   -3.3266   -0.4597 S.3     1  LIG1       -0.1418
      8 H           0.2216   -3.4528    0.0044 H       1  LIG1        0.1071
      9 C          -0.4561   -0.5585    1.2052 C.3     1  LIG1       -0.0376
     10 H          -0.5578    0.4312    1.6527 H       1  LIG1        0.0278
     11 H           0.5385   -0.9385    1.4613 H       1  LIG1        0.0278
     12 H          -1.1881   -1.2281    1.6636 H       1  LIG1        0.0278
     13 C          -0.4644    2.0188   -0.5924 C.ar    1  LIG1        0.0402
     14 C           0.6258    2.5770    0.0247 C.ar    1  LIG1        0.0236
     15 C           0.4779    3.9763    0.3151 C.ar    1  LIG1       -0.0214
     16 C          -0.7238    4.4617   -0.1284 C.ar    1  LIG1        0.0315
     17 S          -1.6962    3.2141   -0.8485 S.2     1  LIG1       -0.0858
     18 S           2.0636    1.6292    0.4579 S.3     1  LIG1       -0.1412
     19 H           2.9732    2.5171    0.0201 H       1  LIG1        0.1071
     20 C           1.5118    4.7810    1.0395 C.3     1  LIG1       -0.0375
     21 H           1.1048    5.7397    1.3640 H       1  LIG1        0.0278
     22 H           2.3799    4.9896    0.4047 H       1  LIG1        0.0278
     23 H           1.8710    4.2395    1.9186 H       1  LIG1        0.0278
     24 C          -1.2396    5.8260   -0.0431 C.ar    1  LIG1        0.0402
     25 C          -0.7113    6.9842   -0.5536 C.ar    1  LIG1        0.0236
     26 C          -1.4967    8.1546   -0.2752 C.ar    1  LIG1       -0.0214
     27 C          -2.6376    7.8467    0.4176 C.ar    1  LIG1        0.0315
     28 S          -2.7349    6.1493    0.7766 S.2     1  LIG1       -0.0858
     29 S           0.8268    7.0203   -1.4402 S.3     1  LIG1       -0.1412
     30 H           0.4120    7.8216   -2.4366 H       1  LIG1        0.1071
     31 C          -1.0880    9.5371   -0.6790 C.3     1  LIG1       -0.0375
     32 H          -1.6904   10.2878   -0.1655 H       1  LIG1        0.0278
     33 H          -1.2099    9.6971   -1.7558 H       1  LIG1        0.0278
     34 H          -0.0357    9.7107   -0.4388 H       1  LIG1        0.0278
     35 C          -3.6995    8.7457    0.8641 C.ar    1  LIG1        0.0396
     36 C          -4.5123    9.5608    0.1178 C.ar    1  LIG1        0.0230
     37 C          -5.4624   10.3033    0.9029 C.ar    1  LIG1       -0.0297
     38 C          -5.3483   10.0073    2.2258 C.ar    1  LIG1       -0.0197
     39 S          -4.0945    8.8757    2.5531 S.2     1  LIG1       -0.0947
     40 H          -5.9380   10.4128    3.0360 H       1  LIG1        0.0696
     41 S          -4.3638    9.7012   -1.6458 S.3     1  LIG1       -0.1412
     42 H          -5.6793    9.6577   -1.9186 H       1  LIG1        0.1071
     43 C          -6.4569   11.2662    0.3306 C.3     1  LIG1       -0.0382
     44 H          -7.0026   11.7786    1.1248 H       1  LIG1        0.0278
     45 H          -7.1937   10.7586   -0.3015 H       1  LIG1        0.0278
     46 H          -5.9626   12.0193   -0.2898 H       1  LIG1        0.0278
@<TRIPOS>BOND
     1     6     1    1
     2     5     1   ar
     3     5     4   ar
     4    30    29    1
     5     1     2   ar
     6    42    41    1
     7    33    31    1
     8    41    36    1
     9    29    25    1
    10     2     7    1
    11     2     3   ar
    12     4    13    1
    13     4     3   ar
    14    17    13   ar
    15    17    16   ar
    16    31    34    1
    17    31    26    1
    18    31    32    1
    19    13    14   ar
    20    25    26   ar
    21    25    24   ar
    22     7     8    1
    23    45    43    1
    24    46    43    1
    25     3     9    1
    26    26    27   ar
    27    16    24    1
    28    16    15   ar
    29    24    28   ar
    30    19    18    1
    31    14    15   ar
    32    14    18    1
    33    36    35   ar
    34    36    37   ar
    35    15    20    1
    36    43    37    1
    37    43    44    1
    38    22    20    1
    39    27    28   ar
    40    27    35    1
    41    35    39   ar
    42    37    38   ar
    43    20    21    1
    44    20    23    1
    45     9    11    1
    46     9    10    1
    47     9    12    1
    48    38    39   ar
    49    38    40    1
