@<TRIPOS>MOLECULE
mol_data/opt/cam/geoms/mol2/5gi5gi-5gi-5gi.out
 46 49 0 0 0
SMALL
GASTEIGER

@<TRIPOS>ATOM
      1 C          -1.0956   -1.3623   -2.4343 C.ar    1  LIG1       -0.0103
      2 C          -0.8927   -1.6610   -1.1215 C.ar    1  LIG1        0.0153
      3 C          -0.6577   -0.5028   -0.3018 C.ar    1  LIG1       -0.0220
      4 C          -0.6711    0.6479   -1.0453 C.ar    1  LIG1        0.0309
      5 S          -0.9990    0.3256   -2.7269 S.2     1  LIG1       -0.0947
      6 H          -1.2912   -2.0565   -3.2384 H       1  LIG1        0.0704
      7 S          -1.0381   -3.3231   -0.5073 S.3     1  LIG1       -0.1418
      8 H           0.2182   -3.4534   -0.0426 H       1  LIG1        0.1071
      9 C          -0.4600   -0.5685    1.1804 C.3     1  LIG1       -0.0376
     10 H          -0.5620    0.4177    1.6356 H       1  LIG1        0.0278
     11 H           0.5341   -0.9509    1.4347 H       1  LIG1        0.0278
     12 H          -1.1929   -1.2415    1.6325 H       1  LIG1        0.0278
     13 C          -0.4650    2.0231   -0.5967 C.ar    1  LIG1        0.0402
     14 C           0.6246    2.5759    0.0263 C.ar    1  LIG1        0.0236
     15 C           0.4769    3.9729    0.3277 C.ar    1  LIG1       -0.0214
     16 C          -0.7241    4.4623   -0.1135 C.ar    1  LIG1        0.0315
     17 S          -1.6959    3.2208   -0.8448 S.2     1  LIG1       -0.0858
     18 S           2.0615    1.6241    0.4539 S.3     1  LIG1       -0.1412
     19 H           2.9720    2.5152    0.0244 H       1  LIG1        0.1071
     20 C           1.5101    4.7714    1.0598 C.3     1  LIG1       -0.0375
     21 H           1.1030    5.7276    1.3914 H       1  LIG1        0.0278
     22 H           2.3791    4.9847    0.4279 H       1  LIG1        0.0278
     23 H           1.8678    4.2228    1.9352 H       1  LIG1        0.0278
     24 C          -1.2395    5.8260   -0.0181 C.ar    1  LIG1        0.0402
     25 C          -0.7101    6.9880   -0.5186 C.ar    1  LIG1        0.0236
     26 C          -1.4955    8.1566   -0.2319 C.ar    1  LIG1       -0.0214
     27 C          -2.6374    7.8436    0.4568 C.ar    1  LIG1        0.0315
     28 S          -2.7358    6.1434    0.8022 S.2     1  LIG1       -0.0858
     29 S           0.8292    7.0306   -1.4029 S.3     1  LIG1       -0.1412
     30 H           0.4160    7.8400   -2.3934 H       1  LIG1        0.1071
     31 C          -1.0857    9.5421   -0.6241 C.3     1  LIG1       -0.0375
     32 H          -1.6885   10.2889   -0.1055 H       1  LIG1        0.0278
     33 H          -1.2061    9.7106   -1.6999 H       1  LIG1        0.0278
     34 H          -0.0336    9.7133   -0.3812 H       1  LIG1        0.0278
     35 C          -3.6996    8.7393    0.9090 C.ar    1  LIG1        0.0396
     36 C          -4.5111    9.5607    0.1683 C.ar    1  LIG1        0.0230
     37 C          -5.4620   10.2973    0.9579 C.ar    1  LIG1       -0.0297
     38 C          -5.3497    9.9906    2.2785 C.ar    1  LIG1       -0.0197
     39 S          -4.0967    8.8560    2.5985 S.2     1  LIG1       -0.0947
     40 H          -5.9403   10.3899    3.0912 H       1  LIG1        0.0696
     41 S          -4.3601    9.7151   -1.5940 S.3     1  LIG1       -0.1412
     42 H          -5.6753    9.6743   -1.8689 H       1  LIG1        0.1071
     43 C          -6.4552   11.2651    0.3920 C.3     1  LIG1       -0.0382
     44 H          -7.0018   11.7713    1.1895 H       1  LIG1        0.0278
     45 H          -7.1915   10.7628   -0.2451 H       1  LIG1        0.0278
     46 H          -5.9599   12.0229   -0.2217 H       1  LIG1        0.0278
@<TRIPOS>BOND
     1     6     1    1
     2     5     1   ar
     3     5     4   ar
     4     1     2   ar
     5    30    29    1
     6    42    41    1
     7    33    31    1
     8    41    36    1
     9    29    25    1
    10     2     7    1
    11     2     3   ar
    12     4    13    1
    13     4     3   ar
    14    17    13   ar
    15    17    16   ar
    16    31    34    1
    17    31    26    1
    18    31    32    1
    19    13    14   ar
    20    25    26   ar
    21    25    24   ar
    22     7     8    1
    23     3     9    1
    24    45    43    1
    25    26    27   ar
    26    46    43    1
    27    16    24    1
    28    16    15   ar
    29    24    28   ar
    30    19    18    1
    31    14    15   ar
    32    14    18    1
    33    36    35   ar
    34    36    37   ar
    35    15    20    1
    36    43    37    1
    37    43    44    1
    38    22    20    1
    39    27    28   ar
    40    27    35    1
    41    35    39   ar
    42    37    38   ar
    43    20    21    1
    44    20    23    1
    45     9    11    1
    46     9    12    1
    47     9    10    1
    48    38    39   ar
    49    38    40    1
