@<TRIPOS>MOLECULE
mol_data/opt/cam/geoms/mol2/5gi5gi-5gi.out
 35 37 0 0 0
SMALL
GASTEIGER

@<TRIPOS>ATOM
      1 C          -1.7071   -1.5697   -1.6167 C.ar    1  LIG1       -0.0103
      2 C          -0.8814   -1.7867   -0.5562 C.ar    1  LIG1        0.0153
      3 C          -0.4047   -0.5748    0.0543 C.ar    1  LIG1       -0.0220
      4 C          -0.8807    0.5338   -0.5950 C.ar    1  LIG1        0.0309
      5 S          -1.9274    0.1043   -1.9216 S.2     1  LIG1       -0.0947
      6 H          -2.1882   -2.3158   -2.2320 H       1  LIG1        0.0704
      7 S          -0.5536   -3.4242    0.0542 S.3     1  LIG1       -0.1418
      8 H           0.7777   -3.4265   -0.1435 H       1  LIG1        0.1071
      9 C           0.4725   -0.5526    1.2669 C.3     1  LIG1       -0.0376
     10 H           0.4953    0.4402    1.7185 H       1  LIG1        0.0278
     11 H           1.5029   -0.8296    1.0204 H       1  LIG1        0.0278
     12 H           0.1122   -1.2686    2.0098 H       1  LIG1        0.0278
     13 C          -0.6262    1.9415   -0.2983 C.ar    1  LIG1        0.0402
     14 C           0.5670    2.6166   -0.2633 C.ar    1  LIG1        0.0236
     15 C           0.4396    4.0085    0.0699 C.ar    1  LIG1       -0.0214
     16 C          -0.8698    4.3699    0.2459 C.ar    1  LIG1        0.0315
     17 S          -1.9421    3.0151    0.0603 S.2     1  LIG1       -0.0858
     18 S           2.1229    1.8155   -0.5635 S.3     1  LIG1       -0.1412
     19 H           2.6391    2.7718   -1.3547 H       1  LIG1        0.1071
     20 C           1.6097    4.9292    0.2260 C.3     1  LIG1       -0.0375
     21 H           1.3104    5.8641    0.7017 H       1  LIG1        0.0278
     22 H           2.0587    5.1805   -0.7412 H       1  LIG1        0.0278
     23 H           2.3867    4.4609    0.8362 H       1  LIG1        0.0278
     24 C          -1.4133    5.6880    0.5657 C.ar    1  LIG1        0.0396
     25 C          -1.3079    6.8609   -0.1380 C.ar    1  LIG1        0.0230
     26 C          -1.9873    7.9683    0.4802 C.ar    1  LIG1       -0.0297
     27 C          -2.6058    7.5880    1.6306 C.ar    1  LIG1       -0.0197
     28 S          -2.3588    5.9273    2.0062 S.2     1  LIG1       -0.0947
     29 H          -3.1912    8.2123    2.2911 H       1  LIG1        0.0696
     30 S          -0.3827    6.9883   -1.6481 S.3     1  LIG1       -0.1412
     31 H          -1.2861    7.7182   -2.3248 H       1  LIG1        0.1071
     32 C          -2.0185    9.3562   -0.0824 C.3     1  LIG1       -0.0382
     33 H          -2.5145   10.0430    0.6057 H       1  LIG1        0.0278
     34 H          -2.5595    9.3948   -1.0342 H       1  LIG1        0.0278
     35 H          -1.0068    9.7269   -0.2704 H       1  LIG1        0.0278
@<TRIPOS>BOND
     1    31    30    1
     2     6     1    1
     3     5     1   ar
     4     5     4   ar
     5    30    25    1
     6     1     2   ar
     7    19    18    1
     8    34    32    1
     9    22    20    1
    10     4    13    1
    11     4     3   ar
    12    18    14    1
    13     2     7    1
    14     2     3   ar
    15    13    14   ar
    16    13    17   ar
    17    35    32    1
    18    14    15   ar
    19     8     7    1
    20    25    26   ar
    21    25    24   ar
    22    32    26    1
    23    32    33    1
    24     3     9    1
    25    17    16   ar
    26    15    20    1
    27    15    16   ar
    28    20    21    1
    29    20    23    1
    30    16    24    1
    31    26    27   ar
    32    24    28   ar
    33    11     9    1
    34     9    10    1
    35     9    12    1
    36    27    28   ar
    37    27    29    1
