@<TRIPOS>MOLECULE
mol_data/opt/cam/geoms/mol2/5gi5gi5gi-5gi.out
 46 49 0 0 0
SMALL
GASTEIGER

@<TRIPOS>ATOM
      1 C          -1.0692   -1.3685   -2.4319 C.ar    1  LIG1       -0.0103
      2 C          -0.8774   -1.6634   -1.1167 C.ar    1  LIG1        0.0153
      3 C          -0.6505   -0.5028   -0.2981 C.ar    1  LIG1       -0.0220
      4 C          -0.6583    0.6459   -1.0449 C.ar    1  LIG1        0.0309
      5 S          -0.9714    0.3187   -2.7283 S.2     1  LIG1       -0.0947
      6 H          -1.2573   -2.0650   -3.2358 H       1  LIG1        0.0704
      7 S          -1.0268   -3.3239   -0.4992 S.3     1  LIG1       -0.1418
      8 H           0.2255   -3.4520   -0.0233 H       1  LIG1        0.1071
      9 C          -0.4655   -0.5644    1.1859 C.3     1  LIG1       -0.0376
     10 H          -0.5723    0.4230    1.6375 H       1  LIG1        0.0278
     11 H           0.5266   -0.9452    1.4499 H       1  LIG1        0.0278
     12 H          -1.2018   -1.2367    1.6335 H       1  LIG1        0.0278
     13 C          -0.4572    2.0224   -0.5982 C.ar    1  LIG1        0.0402
     14 C           0.6265    2.5778    0.0327 C.ar    1  LIG1        0.0236
     15 C           0.4751    3.9755    0.3290 C.ar    1  LIG1       -0.0214
     16 C          -0.7224    4.4627   -0.1239 C.ar    1  LIG1        0.0315
     17 S          -1.6869    3.2184   -0.8603 S.2     1  LIG1       -0.0858
     18 S           2.0604    1.6284    0.4754 S.3     1  LIG1       -0.1412
     19 H           2.9739    2.5190    0.0513 H       1  LIG1        0.1071
     20 C           1.5013    4.7768    1.0679 C.3     1  LIG1       -0.0375
     21 H           1.0906    5.7336    1.3933 H       1  LIG1        0.0278
     22 H           2.3756    4.9891    0.4429 H       1  LIG1        0.0278
     23 H           1.8518    4.2309    1.9478 H       1  LIG1        0.0278
     24 C          -1.2397    5.8263   -0.0367 C.ar    1  LIG1        0.0402
     25 C          -0.7069    6.9873   -0.5357 C.ar    1  LIG1        0.0236
     26 C          -1.4956    8.1560   -0.2591 C.ar    1  LIG1       -0.0214
     27 C          -2.6432    7.8440    0.4206 C.ar    1  LIG1        0.0315
     28 S          -2.7432    6.1446    0.7697 S.2     1  LIG1       -0.0858
     29 S           0.8400    7.0288   -1.4068 S.3     1  LIG1       -0.1412
     30 H           0.4348    7.8351   -2.4030 H       1  LIG1        0.1071
     31 C          -1.0836    9.5408   -0.6515 C.3     1  LIG1       -0.0375
     32 H          -1.6914   10.2885   -0.1402 H       1  LIG1        0.0278
     33 H          -1.1948    9.7063   -1.7287 H       1  LIG1        0.0278
     34 H          -0.0338    9.7136   -0.4000 H       1  LIG1        0.0278
     35 C          -3.7100    8.7401    0.8612 C.ar    1  LIG1        0.0396
     36 C          -4.5157    9.5588    0.1111 C.ar    1  LIG1        0.0230
     37 C          -5.4740   10.2967    0.8906 C.ar    1  LIG1       -0.0297
     38 C          -5.3729    9.9938    2.2129 C.ar    1  LIG1       -0.0197
     39 S          -4.1218    8.8611    2.5468 S.2     1  LIG1       -0.0947
     40 H          -5.9708   10.3948    3.0194 H       1  LIG1        0.0696
     41 S          -4.3496    9.7085   -1.6502 S.3     1  LIG1       -0.1412
     42 H          -5.6624    9.6659   -1.9363 H       1  LIG1        0.1071
     43 C          -6.4631   11.2621    0.3134 C.3     1  LIG1       -0.0382
     44 H          -7.0170   11.7701    1.1048 H       1  LIG1        0.0278
     45 H          -7.1934   10.7575   -0.3286 H       1  LIG1        0.0278
     46 H          -5.9631   12.0187   -0.2981 H       1  LIG1        0.0278
@<TRIPOS>BOND
     1     6     1    1
     2     5     1   ar
     3     5     4   ar
     4     1     2   ar
     5    30    29    1
     6    42    41    1
     7    33    31    1
     8    41    36    1
     9    29    25    1
    10     2     7    1
    11     2     3   ar
    12     4    13    1
    13     4     3   ar
    14    17    13   ar
    15    17    16   ar
    16    31    34    1
    17    31    26    1
    18    31    32    1
    19    13    14   ar
    20    25    26   ar
    21    25    24   ar
    22     7     8    1
    23    45    43    1
    24     3     9    1
    25    46    43    1
    26    26    27   ar
    27    16    24    1
    28    16    15   ar
    29    24    28   ar
    30    14    15   ar
    31    14    18    1
    32    19    18    1
    33    36    35   ar
    34    36    37   ar
    35    43    37    1
    36    43    44    1
    37    15    20    1
    38    27    28   ar
    39    27    35    1
    40    22    20    1
    41    35    39   ar
    42    37    38   ar
    43    20    21    1
    44    20    23    1
    45     9    11    1
    46     9    12    1
    47     9    10    1
    48    38    39   ar
    49    38    40    1
