@<TRIPOS>MOLECULE
mol_data/opt/cam/geoms/mol2/5gi5gi.out
 24 25 0 0 0
SMALL
GASTEIGER

@<TRIPOS>ATOM
      1 C          -1.9746   -1.6816   -0.8475 C.ar    1  LIG1       -0.0103
      2 C          -0.7728   -1.7993   -0.2189 C.ar    1  LIG1        0.0153
      3 C          -0.2348   -0.5416    0.2258 C.ar    1  LIG1       -0.0220
      4 C          -1.0565    0.5019   -0.1101 C.ar    1  LIG1        0.0309
      5 S          -2.4910   -0.0474   -0.9347 S.2     1  LIG1       -0.0947
      6 H          -2.5732   -2.4780   -1.2648 H       1  LIG1        0.0704
      7 S          -0.0399   -3.3858    0.1084 S.3     1  LIG1       -0.1418
      8 H           1.0948   -3.2070   -0.5928 H       1  LIG1        0.1071
      9 C           1.0473   -0.4164    0.9881 C.3     1  LIG1       -0.0376
     10 H           1.1362    0.5684    1.4491 H       1  LIG1        0.0278
     11 H           1.9161   -0.5582    0.3368 H       1  LIG1        0.0278
     12 H           1.1003   -1.1772    1.7709 H       1  LIG1        0.0278
     13 C          -0.8673    1.9280    0.1453 C.ar    1  LIG1        0.0396
     14 C           0.1488    2.7530   -0.2649 C.ar    1  LIG1        0.0230
     15 C           0.0002    4.1152    0.1744 C.ar    1  LIG1       -0.0297
     16 C          -1.1437    4.2807    0.8917 C.ar    1  LIG1       -0.0197
     17 S          -2.0315    2.8192    1.0820 S.2     1  LIG1       -0.0947
     18 H          -1.5066    5.1979    1.3340 H       1  LIG1        0.0696
     19 S           1.5294    2.1664   -1.2148 S.3     1  LIG1       -0.1412
     20 H           1.5787    3.2000   -2.0728 H       1  LIG1        0.1071
     21 C           0.9752    5.2100   -0.1333 C.3     1  LIG1       -0.0382
     22 H           0.6962    6.1332    0.3775 H       1  LIG1        0.0278
     23 H           1.0157    5.4263   -1.2065 H       1  LIG1        0.0278
     24 H           1.9867    4.9352    0.1795 H       1  LIG1        0.0278
@<TRIPOS>BOND
     1    20    19    1
     2     6     1    1
     3    19    14    1
     4    23    21    1
     5     5     1   ar
     6     5     4   ar
     7     1     2   ar
     8     8     7    1
     9    14    13   ar
    10    14    15   ar
    11     2     7    1
    12     2     3   ar
    13    21    15    1
    14    21    24    1
    15    21    22    1
    16     4    13    1
    17     4     3   ar
    18    13    17   ar
    19    15    16   ar
    20     3     9    1
    21    11     9    1
    22    16    17   ar
    23    16    18    1
    24     9    10    1
    25     9    12    1
