@<TRIPOS>MOLECULE
mol_data/opt/cam/geoms/mol2/5gl.out
 14 14 0 0 0
SMALL
GASTEIGER

@<TRIPOS>ATOM
      1 C          -2.2607   -1.7281    0.2531 C.ar    1  LIG1       -0.0075
      2 C          -0.9956   -1.9499   -0.1926 C.ar    1  LIG1        0.0535
      3 C          -0.2360   -0.7327   -0.2827 C.ar    1  LIG1        0.1402
      4 C          -0.9445    0.3655    0.0923 C.ar    1  LIG1        0.0185
      5 S          -2.5430   -0.0550    0.5756 S.2     1  LIG1       -0.1002
      6 H          -3.0483   -2.4523    0.3989 H       1  LIG1        0.0705
      7 H          -0.6051    1.3904    0.0966 H       1  LIG1        0.0730
      8 S          -0.3264   -3.5361   -0.5985 S.3     1  LIG1       -0.1386
      9 H           0.6255   -3.0478   -1.4127 H       1  LIG1        0.1072
     10 O           1.0472   -0.7100   -0.7508 O.3     1  LIG1       -0.4935
     11 C           2.0381   -0.8285    0.2660 C.3     1  LIG1        0.0789
     12 H           3.0051   -0.8135   -0.2379 H       1  LIG1        0.0660
     13 H           1.9790    0.0104    0.9674 H       1  LIG1        0.0660
     14 H           1.9284   -1.7673    0.8195 H       1  LIG1        0.0660
@<TRIPOS>BOND
     1     9     8    1
     2    10     3    1
     3    10    11    1
     4     8     2    1
     5     3     2   ar
     6     3     4   ar
     7    12    11    1
     8     2     1   ar
     9     4     7    1
    10     4     5   ar
    11     1     6    1
    12     1     5   ar
    13    11    14    1
    14    11    13    1
