@<TRIPOS>MOLECULE
mol_data/opt/cam/geoms/mol2/5gl5gl5gl5gl.out
 50 53 0 0 0
SMALL
GASTEIGER

@<TRIPOS>ATOM
      1 C           0.0185   -1.9987   -2.2547 C.ar    1  LIG1       -0.0069
      2 C           0.7927   -2.0251   -1.1373 C.ar    1  LIG1        0.0542
      3 C           0.6688   -0.8209   -0.3707 C.ar    1  LIG1        0.1484
      4 C          -0.2020    0.0886   -0.9093 C.ar    1  LIG1        0.0698
      5 S          -0.8719   -0.5278   -2.3918 S.2     1  LIG1       -0.0912
      6 H          -0.0881   -2.7687   -3.0045 H       1  LIG1        0.0706
      7 S           1.8716   -3.3482   -0.6797 S.3     1  LIG1       -0.1386
      8 H           1.9456   -2.9841    0.6120 H       1  LIG1        0.1072
      9 O           1.3516   -0.6390    0.7958 O.3     1  LIG1       -0.4928
     10 C           2.5421    0.1399    0.6672 C.3     1  LIG1        0.0789
     11 H           2.9786    0.1993    1.6640 H       1  LIG1        0.0660
     12 H           3.2482   -0.3397   -0.0182 H       1  LIG1        0.0660
     13 H           2.3105    1.1469    0.3082 H       1  LIG1        0.0660
     14 C          -0.5677    1.3913   -0.3817 C.ar    1  LIG1        0.0468
     15 C          -0.8614    1.7494    0.9079 C.ar    1  LIG1        0.0626
     16 C          -1.1925    3.1360    1.0168 C.ar    1  LIG1        0.1491
     17 C          -1.1900    3.8262   -0.1725 C.ar    1  LIG1        0.0704
     18 S          -0.6899    2.7566   -1.4566 S.2     1  LIG1       -0.0822
     19 S          -0.9074    0.6523    2.2933 S.3     1  LIG1       -0.1380
     20 H          -1.8514    1.3652    2.9357 H       1  LIG1        0.1072
     21 O          -1.5638    3.7016    2.2016 O.3     1  LIG1       -0.4928
     22 C          -0.4693    4.0786    3.0458 C.3     1  LIG1        0.0789
     23 H          -0.9114    4.5045    3.9461 H       1  LIG1        0.0660
     24 H           0.1360    3.2064    3.3067 H       1  LIG1        0.0660
     25 H           0.1541    4.8308    2.5544 H       1  LIG1        0.0660
     26 C          -1.5477    5.2199   -0.3717 C.ar    1  LIG1        0.0468
     27 C          -1.5096    5.9994   -1.5083 C.ar    1  LIG1        0.0626
     28 C          -1.9259    7.3477   -1.2733 C.ar    1  LIG1        0.1491
     29 C          -2.2975    7.5955    0.0182 C.ar    1  LIG1        0.0704
     30 S          -2.1439    6.1584    0.9806 S.2     1  LIG1       -0.0822
     31 S          -0.9655    5.5400   -3.1337 S.3     1  LIG1       -0.1380
     32 H          -1.8126    4.5113   -3.3171 H       1  LIG1        0.1072
     33 O          -1.9222    8.2956   -2.2490 O.3     1  LIG1       -0.4928
     34 C          -3.1504    8.4231   -2.9597 C.3     1  LIG1        0.0789
     35 H          -3.0068    9.2313   -3.6765 H       1  LIG1        0.0660
     36 H          -3.3883    7.4987   -3.4948 H       1  LIG1        0.0660
     37 H          -3.9694    8.6774   -2.2789 H       1  LIG1        0.0660
     38 C          -2.7725    8.8441    0.5893 C.ar    1  LIG1        0.0462
     39 C          -2.2984   10.1175    0.4048 C.ar    1  LIG1        0.0619
     40 C          -3.0257   11.0834    1.1837 C.ar    1  LIG1        0.1408
     41 C          -4.0129   10.5385    1.9406 C.ar    1  LIG1        0.0191
     42 S          -4.1149    8.8369    1.7095 S.2     1  LIG1       -0.0912
     43 H          -4.6724   11.0567    2.6205 H       1  LIG1        0.0731
     44 S          -0.9250   10.5759   -0.6072 S.3     1  LIG1       -0.1380
     45 H          -0.6440   11.6656    0.1318 H       1  LIG1        0.1072
     46 O          -2.6915   12.4072    1.2011 O.3     1  LIG1       -0.4935
     47 C          -3.3211   13.1791    0.1822 C.3     1  LIG1        0.0789
     48 H          -2.9551   14.2001    0.2944 H       1  LIG1        0.0660
     49 H          -3.0634   12.8060   -0.8145 H       1  LIG1        0.0660
     50 H          -4.4097   13.1661    0.3024 H       1  LIG1        0.0660
@<TRIPOS>BOND
     1    35    34    1
     2    36    34    1
     3    32    31    1
     4    31    27    1
     5     6     1    1
     6    34    37    1
     7    34    33    1
     8     5     1   ar
     9     5     4   ar
    10     1     2   ar
    11    33    28    1
    12    27    28   ar
    13    27    26   ar
    14    18    14   ar
    15    18    17   ar
    16    28    29   ar
    17     2     7    1
    18     2     3   ar
    19     4    14    1
    20     4     3   ar
    21    49    47    1
    22     7     8    1
    23    44    45    1
    24    44    39    1
    25    14    15   ar
    26    26    17    1
    27    26    30   ar
    28     3     9    1
    29    17    16   ar
    30    12    10    1
    31    29    38    1
    32    29    30   ar
    33    47    48    1
    34    47    50    1
    35    47    46    1
    36    13    10    1
    37    39    38   ar
    38    39    40   ar
    39    38    42   ar
    40    10     9    1
    41    10    11    1
    42    15    16   ar
    43    15    19    1
    44    16    21    1
    45    40    46    1
    46    40    41   ar
    47    42    41   ar
    48    41    43    1
    49    21    22    1
    50    19    20    1
    51    25    22    1
    52    22    24    1
    53    22    23    1
