@<TRIPOS>MOLECULE
mol_data/opt/cam/geoms/mol2/5gl5gl-5gl-5gl-.out
 50 53 0 0 0
SMALL
GASTEIGER

@<TRIPOS>ATOM
      1 C          -2.0431   -2.0694    0.9905 C.ar    1  LIG1       -0.0069
      2 C          -0.9816   -2.1352    0.1437 C.ar    1  LIG1        0.0542
      3 C          -0.3624   -0.8560   -0.0409 C.ar    1  LIG1        0.1484
      4 C          -0.9534    0.1510    0.6746 C.ar    1  LIG1        0.0698
      5 S          -2.3038   -0.4694    1.5792 S.2     1  LIG1       -0.0912
      6 H          -2.6861   -2.8761    1.3103 H       1  LIG1        0.0706
      7 S          -0.4326   -3.5954   -0.6874 S.3     1  LIG1       -0.1386
      8 H           0.7805   -3.0983   -0.9839 H       1  LIG1        0.1072
      9 O           0.7291   -0.7027   -0.8444 O.3     1  LIG1       -0.4928
     10 C           0.4505   -0.1341   -2.1239 C.3     1  LIG1        0.0789
     11 H           1.4038   -0.0807   -2.6493 H       1  LIG1        0.0660
     12 H          -0.2471   -0.7639   -2.6854 H       1  LIG1        0.0660
     13 H           0.0338    0.8719   -2.0208 H       1  LIG1        0.0660
     14 C          -0.5705    1.5519    0.7326 C.ar    1  LIG1        0.0468
     15 C           0.6790    2.1034    0.8535 C.ar    1  LIG1        0.0626
     16 C           0.6361    3.5351    0.9001 C.ar    1  LIG1        0.1491
     17 C          -0.6243    4.0630    0.8362 C.ar    1  LIG1        0.0704
     18 S          -1.7986    2.7912    0.6787 S.2     1  LIG1       -0.0822
     19 S           2.2003    1.2133    0.9643 S.3     1  LIG1       -0.1380
     20 H           2.8299    2.2096    1.6135 H       1  LIG1        0.1072
     21 O           1.7670    4.2844    1.0399 O.3     1  LIG1       -0.4928
     22 C           2.3132    4.7595   -0.1903 C.3     1  LIG1        0.0789
     23 H           3.2029    5.3328    0.0698 H       1  LIG1        0.0660
     24 H           2.5899    3.9241   -0.8414 H       1  LIG1        0.0660
     25 H           1.5982    5.4071   -0.7066 H       1  LIG1        0.0660
     26 C          -1.0075    5.4629    0.8767 C.ar    1  LIG1        0.0468
     27 C          -0.5447    6.4653    1.6891 C.ar    1  LIG1        0.0626
     28 C          -1.1956    7.7116    1.4276 C.ar    1  LIG1        0.1491
     29 C          -2.1530    7.6651    0.4456 C.ar    1  LIG1        0.0704
     30 S          -2.2421    6.0529   -0.2045 S.2     1  LIG1       -0.0822
     31 S           0.6692    6.2892    2.9609 S.3     1  LIG1       -0.1380
     32 H           0.1629    7.2957    3.6974 H       1  LIG1        0.1072
     33 O          -0.9336    8.8318    2.1639 O.3     1  LIG1       -0.4928
     34 C           0.1542    9.6164    1.6683 C.3     1  LIG1        0.0789
     35 H           0.2659   10.4560    2.3543 H       1  LIG1        0.0660
     36 H           1.0775    9.0298    1.6492 H       1  LIG1        0.0660
     37 H          -0.0678    9.9916    0.6651 H       1  LIG1        0.0660
     38 C          -3.0166    8.7501    0.0096 C.ar    1  LIG1        0.0462
     39 C          -3.7600    8.8677   -1.1390 C.ar    1  LIG1        0.0619
     40 C          -4.5217   10.0845   -1.1770 C.ar    1  LIG1        0.1408
     41 C          -4.3501   10.8633   -0.0770 C.ar    1  LIG1        0.0191
     42 S          -3.2499   10.1460    1.0416 S.2     1  LIG1       -0.0912
     43 H          -4.7924   11.8234    0.1376 H       1  LIG1        0.0731
     44 S          -3.8086    7.7120   -2.4767 S.3     1  LIG1       -0.1380
     45 H          -4.7428    8.3937   -3.1591 H       1  LIG1        0.1072
     46 O          -5.2988   10.3270   -2.2599 O.3     1  LIG1       -0.4935
     47 C          -6.0404   11.5305   -2.2433 C.3     1  LIG1        0.0789
     48 H          -6.6082   11.5589   -3.1724 H       1  LIG1        0.0660
     49 H          -6.7295   11.5549   -1.3916 H       1  LIG1        0.0660
     50 H          -5.3755   12.4004   -2.1945 H       1  LIG1        0.0660
@<TRIPOS>BOND
     1    48    47    1
     2    45    44    1
     3    12    10    1
     4    11    10    1
     5    44    39    1
     6    46    47    1
     7    46    40    1
     8    47    50    1
     9    47    49    1
    10    10    13    1
    11    10     9    1
    12    40    39   ar
    13    40    41   ar
    14    39    38   ar
    15     8     7    1
    16     9     3    1
    17    24    22    1
    18    25    22    1
    19     7     2    1
    20    30    29   ar
    21    30    26   ar
    22    22    23    1
    23    22    21    1
    24    41    43    1
    25    41    42   ar
    26     3     2   ar
    27     3     4   ar
    28    38    29    1
    29    38    42   ar
    30     2     1   ar
    31    29    28   ar
    32    37    34    1
    33     4    14    1
    34     4     5   ar
    35    18    14   ar
    36    18    17   ar
    37    14    15   ar
    38    17    26    1
    39    17    16   ar
    40    15    16   ar
    41    15    19    1
    42    26    27   ar
    43    16    21    1
    44    19    20    1
    45     1     6    1
    46     1     5   ar
    47    28    27   ar
    48    28    33    1
    49    36    34    1
    50    34    33    1
    51    34    35    1
    52    27    31    1
    53    31    32    1
