@<TRIPOS>MOLECULE
mol_data/opt/cam/geoms/mol2/5gl5gl.out
 26 27 0 0 0
SMALL
GASTEIGER

@<TRIPOS>ATOM
      1 C          -2.3648   -1.9487    0.5042 C.ar    1  LIG1       -0.0069
      2 C          -1.0171   -2.1184    0.5593 C.ar    1  LIG1        0.0542
      3 C          -0.3120   -0.8923    0.3263 C.ar    1  LIG1        0.1484
      4 C          -1.1314    0.1831    0.1114 C.ar    1  LIG1        0.0698
      5 S          -2.7980   -0.3110    0.1784 S.2     1  LIG1       -0.0912
      6 H          -3.1326   -2.6951    0.6449 H       1  LIG1        0.0706
      7 S          -0.1960   -3.6594    0.8337 S.3     1  LIG1       -0.1386
      8 H           0.9776   -3.0953    1.1669 H       1  LIG1        0.1072
      9 O           1.0510   -0.8393    0.3517 O.3     1  LIG1       -0.4928
     10 C           1.6680   -0.7896   -0.9344 C.3     1  LIG1        0.0789
     11 H           2.7431   -0.7617   -0.7575 H       1  LIG1        0.0660
     12 H           1.4129   -1.6770   -1.5227 H       1  LIG1        0.0660
     13 H           1.3641    0.1099   -1.4775 H       1  LIG1        0.0660
     14 C          -0.7497    1.5647   -0.1332 C.ar    1  LIG1        0.0462
     15 C           0.2001    2.3236    0.5000 C.ar    1  LIG1        0.0619
     16 C           0.2527    3.6655   -0.0154 C.ar    1  LIG1        0.1408
     17 C          -0.6476    3.9019   -1.0044 C.ar    1  LIG1        0.0191
     18 S          -1.5674    2.4939   -1.3663 S.2     1  LIG1       -0.0912
     19 H          -0.8132    4.8337   -1.5239 H       1  LIG1        0.0731
     20 S           1.2316    1.7913    1.8316 S.3     1  LIG1       -0.1380
     21 H           1.3829    3.0369    2.3184 H       1  LIG1        0.1072
     22 O           1.0858    4.6135    0.5055 O.3     1  LIG1       -0.4935
     23 C           2.3734    4.6546   -0.1031 C.3     1  LIG1        0.0789
     24 H           2.9364    5.4336    0.4118 H       1  LIG1        0.0660
     25 H           2.8936    3.6968    0.0038 H       1  LIG1        0.0660
     26 H           2.2925    4.9047   -1.1663 H       1  LIG1        0.0660
@<TRIPOS>BOND
     1    19    17    1
     2    12    10    1
     3    13    10    1
     4    18    17   ar
     5    18    14   ar
     6    26    23    1
     7    17    16   ar
     8    10    11    1
     9    10     9    1
    10    14     4    1
    11    14    15   ar
    12    23    25    1
    13    23    24    1
    14    23    22    1
    15    16    15   ar
    16    16    22    1
    17     4     5   ar
    18     4     3   ar
    19     5     1   ar
    20     3     9    1
    21     3     2   ar
    22    15    20    1
    23     1     2   ar
    24     1     6    1
    25     2     7    1
    26     7     8    1
    27    20    21    1
