@<TRIPOS>MOLECULE
mol_data/opt/cam/geoms/mol2/5gl5gl5gl5gl-.out
 50 53 0 0 0
SMALL
GASTEIGER

@<TRIPOS>ATOM
      1 C          -0.7871   -2.4165   -1.2588 C.ar    1  LIG1       -0.0069
      2 C           0.2463   -2.2642   -0.3884 C.ar    1  LIG1        0.0542
      3 C           0.3444   -0.9202    0.0980 C.ar    1  LIG1        0.1484
      4 C          -0.6181   -0.0821   -0.3989 C.ar    1  LIG1        0.0698
      5 S          -1.6561   -0.9457   -1.4960 S.2     1  LIG1       -0.0912
      6 H          -1.0949   -3.3167   -1.7698 H       1  LIG1        0.0706
      7 S           1.3835   -3.5374    0.0710 S.3     1  LIG1       -0.1386
      8 H           1.7891   -2.9198    1.1938 H       1  LIG1        0.1072
      9 O           1.3070   -0.5494    0.9912 O.3     1  LIG1       -0.4928
     10 C           2.4310    0.1084    0.4061 C.3     1  LIG1        0.0789
     11 H           3.1138    0.3359    1.2246 H       1  LIG1        0.0660
     12 H           2.9280   -0.5429   -0.3200 H       1  LIG1        0.0660
     13 H           2.1254    1.0373   -0.0843 H       1  LIG1        0.0660
     14 C          -0.8128    1.3260   -0.1005 C.ar    1  LIG1        0.0468
     15 C          -0.7676    1.9668    1.1098 C.ar    1  LIG1        0.0626
     16 C          -1.0371    3.3659    0.9872 C.ar    1  LIG1        0.1491
     17 C          -1.3105    3.7887   -0.2904 C.ar    1  LIG1        0.0704
     18 S          -1.1922    2.4401   -1.3874 S.2     1  LIG1       -0.0822
     19 S          -0.4735    1.1979    2.6735 S.3     1  LIG1       -0.1380
     20 H          -1.1964    2.1085    3.3517 H       1  LIG1        0.1072
     21 O          -1.1026    4.1900    2.0736 O.3     1  LIG1       -0.4928
     22 C           0.1594    4.7191    2.4917 C.3     1  LIG1        0.0789
     23 H          -0.0427    5.3396    3.3644 H       1  LIG1        0.0660
     24 H           0.8470    3.9122    2.7608 H       1  LIG1        0.0660
     25 H           0.5991    5.3348    1.7019 H       1  LIG1        0.0660
     26 C          -1.6755    5.1302   -0.7082 C.ar    1  LIG1        0.0468
     27 C          -1.7489    5.6727   -1.9694 C.ar    1  LIG1        0.0626
     28 C          -2.1667    7.0380   -1.9572 C.ar    1  LIG1        0.1491
     29 C          -2.4187    7.5405   -0.7084 C.ar    1  LIG1        0.0704
     30 S          -2.1395    6.3164    0.4928 S.2     1  LIG1       -0.0822
     31 S          -1.3732    4.8574   -3.4928 S.3     1  LIG1       -0.1380
     32 H          -2.0074    5.7800   -4.2375 H       1  LIG1        0.1072
     33 O          -2.3335    7.7433   -3.1171 O.3     1  LIG1       -0.4928
     34 C          -1.1998    8.5312   -3.4886 C.3     1  LIG1        0.0789
     35 H          -1.4551    9.0135   -4.4322 H       1  LIG1        0.0660
     36 H          -0.9957    9.2943   -2.7326 H       1  LIG1        0.0660
     37 H          -0.3161    7.8996   -3.6230 H       1  LIG1        0.0660
     38 C          -2.8997    8.8715   -0.3741 C.ar    1  LIG1        0.0462
     39 C          -2.7327    9.5960    0.7797 C.ar    1  LIG1        0.0619
     40 C          -3.4091   10.8622    0.7323 C.ar    1  LIG1        0.1408
     41 C          -4.0683   11.0799   -0.4365 C.ar    1  LIG1        0.0191
     42 S          -3.8860    9.7505   -1.5208 S.2     1  LIG1       -0.0912
     43 H          -4.6367   11.9476   -0.7315 H       1  LIG1        0.0731
     44 S          -1.7875    9.1052    2.1927 S.3     1  LIG1       -0.1380
     45 H          -1.9896   10.2597    2.8482 H       1  LIG1        0.1072
     46 O          -3.3186   11.6850    1.8048 O.3     1  LIG1       -0.4935
     47 C          -4.0004   12.9195    1.7075 C.3     1  LIG1        0.0789
     48 H          -3.8293   13.4443    2.6466 H       1  LIG1        0.0660
     49 H          -3.6109   13.5191    0.8769 H       1  LIG1        0.0660
     50 H          -5.0759   12.7631    1.5662 H       1  LIG1        0.0660
@<TRIPOS>BOND
     1    35    34    1
     2    32    31    1
     3    37    34    1
     4    31    27    1
     5    34    33    1
     6    34    36    1
     7    33    28    1
     8    27    28   ar
     9    27    26   ar
    10    28    29   ar
    11     6     1    1
    12    42    41   ar
    13    42    38   ar
    14     5     1   ar
    15     5     4   ar
    16    18    17   ar
    17    18    14   ar
    18     1     2   ar
    19    43    41    1
    20    29    38    1
    21    29    30   ar
    22    26    17    1
    23    26    30   ar
    24    41    40   ar
    25     4    14    1
    26     4     3   ar
    27     2     7    1
    28     2     3   ar
    29    38    39   ar
    30    12    10    1
    31    17    16   ar
    32    14    15   ar
    33    13    10    1
    34     7     8    1
    35     3     9    1
    36    10     9    1
    37    10    11    1
    38    40    39   ar
    39    40    46    1
    40    39    44    1
    41    49    47    1
    42    16    15   ar
    43    16    21    1
    44    15    19    1
    45    50    47    1
    46    25    22    1
    47    47    46    1
    48    47    48    1
    49    21    22    1
    50    44    45    1
    51    22    24    1
    52    22    23    1
    53    19    20    1
