@<TRIPOS>MOLECULE
mol_data/opt/cam/geoms/mol2/5gl5gl-5gl-.out
 38 40 0 0 0
SMALL
GASTEIGER

@<TRIPOS>ATOM
      1 C          -2.2169   -2.0755    1.0760 C.ar    1  LIG1       -0.0069
      2 C          -0.9355   -2.2527    0.6577 C.ar    1  LIG1        0.0542
      3 C          -0.2796   -1.0059    0.3952 C.ar    1  LIG1        0.1484
      4 C          -1.0658    0.0908    0.6292 C.ar    1  LIG1        0.0698
      5 S          -2.6444   -0.4071    1.1647 S.2     1  LIG1       -0.0912
      6 H          -2.9360   -2.8345    1.3469 H       1  LIG1        0.0706
      7 S          -0.1550   -3.8188    0.4078 S.3     1  LIG1       -0.1386
      8 H           1.0927   -3.3193    0.4256 H       1  LIG1        0.1072
      9 O           1.0178   -0.9580   -0.0233 O.3     1  LIG1       -0.4928
     10 C           1.1830   -0.7089   -1.4191 C.3     1  LIG1        0.0789
     11 H           2.2569   -0.7059   -1.6045 H       1  LIG1        0.0660
     12 H           0.7067   -1.4955   -2.0133 H       1  LIG1        0.0660
     13 H           0.7625    0.2628   -1.6936 H       1  LIG1        0.0660
     14 C          -0.7123    1.4932    0.4845 C.ar    1  LIG1        0.0468
     15 C           0.4334    2.1413    0.8677 C.ar    1  LIG1        0.0626
     16 C           0.3883    3.5425    0.5679 C.ar    1  LIG1        0.1491
     17 C          -0.7779    3.9567   -0.0135 C.ar    1  LIG1        0.0704
     18 S          -1.8465    2.6049   -0.2404 S.2     1  LIG1       -0.0822
     19 S           1.8282    1.4033    1.6605 S.3     1  LIG1       -0.1380
     20 H           2.2176    2.5585    2.2302 H       1  LIG1        0.1072
     21 O           1.4166    4.3798    0.8866 O.3     1  LIG1       -0.4928
     22 C           2.3422    4.6049   -0.1760 C.3     1  LIG1        0.0789
     23 H           3.0976    5.2869    0.2138 H       1  LIG1        0.0660
     24 H           2.8157    3.6673   -0.4848 H       1  LIG1        0.0660
     25 H           1.8419    5.0641   -1.0340 H       1  LIG1        0.0660
     26 C          -1.1465    5.3028   -0.4187 C.ar    1  LIG1        0.0462
     27 C          -0.9707    6.4871    0.2495 C.ar    1  LIG1        0.0619
     28 C          -1.5104    7.6039   -0.4788 C.ar    1  LIG1        0.1408
     29 C          -2.0853    7.2552   -1.6588 C.ar    1  LIG1        0.0191
     30 S          -1.9629    5.5630   -1.9419 S.2     1  LIG1       -0.0912
     31 H          -2.5761    7.9112   -2.3621 H       1  LIG1        0.0731
     32 S          -0.2310    6.6796    1.8419 S.3     1  LIG1       -0.1380
     33 H          -0.9286    7.7970    2.1190 H       1  LIG1        0.1072
     34 O          -1.4997    8.8741    0.0213 O.3     1  LIG1       -0.4935
     35 C          -0.3227    9.6134   -0.2928 C.3     1  LIG1        0.0789
     36 H          -0.4346   10.5908    0.1773 H       1  LIG1        0.0660
     37 H           0.5723    9.1195    0.0996 H       1  LIG1        0.0660
     38 H          -0.2209    9.7387   -1.3761 H       1  LIG1        0.0660
@<TRIPOS>BOND
     1    31    29    1
     2    12    10    1
     3    30    29   ar
     4    30    26   ar
     5    13    10    1
     6    29    28   ar
     7    11    10    1
     8    10     9    1
     9    38    35    1
    10    25    22    1
    11    24    22    1
    12    28    34    1
    13    28    27   ar
    14    26    17    1
    15    26    27   ar
    16    35    34    1
    17    35    37    1
    18    35    36    1
    19    18    17   ar
    20    18    14   ar
    21    22    23    1
    22    22    21    1
    23     9     3    1
    24    17    16   ar
    25    27    32    1
    26     3     4   ar
    27     3     2   ar
    28     7     8    1
    29     7     2    1
    30    14     4    1
    31    14    15   ar
    32    16    15   ar
    33    16    21    1
    34     4     5   ar
    35     2     1   ar
    36    15    19    1
    37     1     5   ar
    38     1     6    1
    39    19    20    1
    40    32    33    1
