@<TRIPOS>MOLECULE
mol_data/opt/cam/geoms/mol2/5gl5gl-5gl5gl-.out
 50 53 0 0 0
SMALL
GASTEIGER

@<TRIPOS>ATOM
      1 C          -1.6651   -2.0288    2.0604 C.ar    1  LIG1       -0.0069
      2 C          -0.7381   -2.2243    1.0854 C.ar    1  LIG1        0.0542
      3 C          -0.2253   -0.9864    0.5770 C.ar    1  LIG1        0.1484
      4 C          -0.7593    0.1210    1.1799 C.ar    1  LIG1        0.0698
      5 S          -1.9242   -0.3542    2.3816 S.2     1  LIG1       -0.0912
      6 H          -2.2067   -2.7780    2.6189 H       1  LIG1        0.0706
      7 S          -0.2362   -3.7995    0.4598 S.3     1  LIG1       -0.1386
      8 H           0.9078   -3.3411   -0.0767 H       1  LIG1        0.1072
      9 O           0.7244   -0.9530   -0.4015 O.3     1  LIG1       -0.4928
     10 C           0.2143   -0.7060   -1.7116 C.3     1  LIG1        0.0789
     11 H           1.0739   -0.7112   -2.3816 H       1  LIG1        0.0660
     12 H          -0.4909   -1.4892   -2.0082 H       1  LIG1        0.0660
     13 H          -0.2801    0.2687   -1.7591 H       1  LIG1        0.0660
     14 C          -0.4504    1.5172    0.9198 C.ar    1  LIG1        0.0468
     15 C           0.7706    2.1140    0.7387 C.ar    1  LIG1        0.0626
     16 C           0.6561    3.5277    0.5324 C.ar    1  LIG1        0.1491
     17 C          -0.6263    4.0011    0.5756 C.ar    1  LIG1        0.0704
     18 S          -1.7390    2.6919    0.8392 S.2     1  LIG1       -0.0822
     19 S           2.3384    1.3015    0.7666 S.3     1  LIG1       -0.1380
     20 H           3.0001    2.4162    1.1276 H       1  LIG1        0.1072
     21 O           1.7508    4.3209    0.3558 O.3     1  LIG1       -0.4928
     22 C           2.0948    4.5562   -1.0091 C.3     1  LIG1        0.0789
     23 H           2.9672    5.2092   -0.9974 H       1  LIG1        0.0660
     24 H           2.3427    3.6178   -1.5157 H       1  LIG1        0.0660
     25 H           1.2733    5.0518   -1.5354 H       1  LIG1        0.0660
     26 C          -1.0778    5.3735    0.4235 C.ar    1  LIG1        0.0468
     27 C          -0.5580    6.5222    0.9624 C.ar    1  LIG1        0.0626
     28 C          -1.3133    7.6828    0.5915 C.ar    1  LIG1        0.1491
     29 C          -2.3983    7.4206   -0.1982 C.ar    1  LIG1        0.0704
     30 S          -2.4963    5.7185   -0.5349 S.2     1  LIG1       -0.0822
     31 S           0.8543    6.6303    2.0169 S.3     1  LIG1       -0.1380
     32 H           0.4325    7.7678    2.5992 H       1  LIG1        0.1072
     33 O          -0.9850    8.9286    1.0384 O.3     1  LIG1       -0.4928
     34 C          -0.1597    9.6752    0.1450 C.3     1  LIG1        0.0789
     35 H           0.0215   10.6367    0.6252 H       1  LIG1        0.0660
     36 H           0.7926    9.1628   -0.0253 H       1  LIG1        0.0660
     37 H          -0.6687    9.8330   -0.8107 H       1  LIG1        0.0660
     38 C          -3.3682    8.3645   -0.7280 C.ar    1  LIG1        0.0462
     39 C          -3.9862    9.4154   -0.1006 C.ar    1  LIG1        0.0619
     40 C          -4.9153   10.0908   -0.9667 C.ar    1  LIG1        0.1408
     41 C          -4.9941    9.5461   -2.2082 C.ar    1  LIG1        0.0191
     42 S          -3.9197    8.2138   -2.3795 S.2     1  LIG1       -0.0912
     43 H          -5.6350    9.8621   -3.0176 H       1  LIG1        0.0731
     44 S          -3.7578    9.8986    1.5828 S.3     1  LIG1       -0.1380
     45 H          -4.9885   10.4351    1.6790 H       1  LIG1        0.1072
     46 O          -5.6868   11.1318   -0.5376 O.3     1  LIG1       -0.4935
     47 C          -5.0739   12.4100   -0.6842 C.3     1  LIG1        0.0789
     48 H          -5.7815   13.1410   -0.2921 H       1  LIG1        0.0660
     49 H          -4.1378   12.4680   -0.1191 H       1  LIG1        0.0660
     50 H          -4.8733   12.6252   -1.7391 H       1  LIG1        0.0660
@<TRIPOS>BOND
     1    43    41    1
     2    11    10    1
     3    42    41   ar
     4    42    38   ar
     5    41    40   ar
     6    12    10    1
     7    13    10    1
     8    50    47    1
     9    10     9    1
    10    25    22    1
    11    24    22    1
    12    22    23    1
    13    22    21    1
    14    40    46    1
    15    40    39   ar
    16    37    34    1
    17    38    29    1
    18    38    39   ar
    19    47    46    1
    20    47    48    1
    21    47    49    1
    22    30    29   ar
    23    30    26   ar
    24     9     3    1
    25    29    28   ar
    26    39    44    1
    27     8     7    1
    28    36    34    1
    29    34    35    1
    30    34    33    1
    31    21    16    1
    32    26    17    1
    33    26    27   ar
    34     7     2    1
    35    16    17   ar
    36    16    15   ar
    37    17    18   ar
    38     3     2   ar
    39     3     4   ar
    40    28    27   ar
    41    28    33    1
    42    15    19    1
    43    15    14   ar
    44    19    20    1
    45    18    14   ar
    46    14     4    1
    47    27    31    1
    48     2     1   ar
    49     4     5   ar
    50    44    45    1
    51    31    32    1
    52     1     5   ar
    53     1     6    1
