@<TRIPOS>MOLECULE
mol_data/opt/cam/geoms/mol2/5gl5gl-5gl-5gl.out
 50 53 0 0 0
SMALL
GASTEIGER

@<TRIPOS>ATOM
      1 C          -1.7058   -2.0412    2.0069 C.ar    1  LIG1       -0.0069
      2 C          -0.7573   -2.2303    1.0515 C.ar    1  LIG1        0.0542
      3 C          -0.2342   -0.9892    0.5619 C.ar    1  LIG1        0.1484
      4 C          -0.7822    0.1143    1.1595 C.ar    1  LIG1        0.0698
      5 S          -1.9731   -0.3687    2.3322 S.2     1  LIG1       -0.0912
      6 H          -2.2591   -2.7940    2.5488 H       1  LIG1        0.0706
      7 S          -0.2406   -3.8016    0.4278 S.3     1  LIG1       -0.1386
      8 H           0.9146   -3.3393   -0.0805 H       1  LIG1        0.1072
      9 O           0.7369   -0.9494   -0.3950 O.3     1  LIG1       -0.4928
     10 C           0.2557   -0.6949   -1.7147 C.3     1  LIG1        0.0789
     11 H           1.1300   -0.6957   -2.3654 H       1  LIG1        0.0660
     12 H          -0.4422   -1.4766   -2.0315 H       1  LIG1        0.0660
     13 H          -0.2381    0.2798   -1.7672 H       1  LIG1        0.0660
     14 C          -0.4685    1.5122    0.9146 C.ar    1  LIG1        0.0468
     15 C           0.7558    2.1107    0.7642 C.ar    1  LIG1        0.0626
     16 C           0.6450    3.5256    0.5639 C.ar    1  LIG1        0.1491
     17 C          -0.6384    3.9980    0.5814 C.ar    1  LIG1        0.0704
     18 S          -1.7558    2.6867    0.8125 S.2     1  LIG1       -0.0822
     19 S           2.3231    1.2989    0.8219 S.3     1  LIG1       -0.1380
     20 H           2.9759    2.4118    1.2041 H       1  LIG1        0.1072
     21 O           1.7428    4.3204    0.4163 O.3     1  LIG1       -0.4928
     22 C           2.1167    4.5640   -0.9393 C.3     1  LIG1        0.0789
     23 H           2.9883    5.2174   -0.9044 H       1  LIG1        0.0660
     24 H           2.3764    3.6288   -1.4458 H       1  LIG1        0.0660
     25 H           1.3068    5.0623   -1.4807 H       1  LIG1        0.0660
     26 C          -1.0873    5.3711    0.4276 C.ar    1  LIG1        0.0468
     27 C          -0.5803    6.5168    0.9847 C.ar    1  LIG1        0.0626
     28 C          -1.3280    7.6792    0.6041 C.ar    1  LIG1        0.1491
     29 C          -2.3951    7.4211   -0.2110 C.ar    1  LIG1        0.0704
     30 S          -2.4844    5.7210   -0.5599 S.2     1  LIG1       -0.0822
     31 S           0.8082    6.6194    2.0708 S.3     1  LIG1       -0.1380
     32 H           0.3728    7.7531    2.6504 H       1  LIG1        0.1072
     33 O          -1.0105    8.9224    1.0656 O.3     1  LIG1       -0.4928
     34 C          -0.1661    9.6749    0.1951 C.3     1  LIG1        0.0789
     35 H           0.0037   10.6336    0.6849 H       1  LIG1        0.0660
     36 H           0.7900    9.1640    0.0429 H       1  LIG1        0.0660
     37 H          -0.6540    9.8381   -0.7707 H       1  LIG1        0.0660
     38 C          -3.3536    8.3677   -0.7565 C.ar    1  LIG1        0.0462
     39 C          -3.9861    9.4144   -0.1367 C.ar    1  LIG1        0.0619
     40 C          -4.8962   10.0945   -1.0191 C.ar    1  LIG1        0.1408
     41 C          -4.9471    9.5572   -2.2653 C.ar    1  LIG1        0.0191
     42 S          -3.8683    8.2266   -2.4207 S.2     1  LIG1       -0.0912
     43 H          -5.5702    9.8778   -3.0868 H       1  LIG1        0.0731
     44 S          -3.7953    9.8877    1.5542 S.3     1  LIG1       -0.1380
     45 H          -5.0282   10.4230    1.6263 H       1  LIG1        0.1072
     46 O          -5.6778   11.1326   -0.6010 O.3     1  LIG1       -0.4935
     47 C          -5.0626   12.4119   -0.7264 C.3     1  LIG1        0.0789
     48 H          -5.7792   13.1402   -0.3457 H       1  LIG1        0.0660
     49 H          -4.1393   12.4670   -0.1404 H       1  LIG1        0.0660
     50 H          -4.8388   12.6336   -1.7753 H       1  LIG1        0.0660
@<TRIPOS>BOND
     1    43    41    1
     2    42    41   ar
     3    42    38   ar
     4    11    10    1
     5    41    40   ar
     6    12    10    1
     7    50    47    1
     8    13    10    1
     9    10     9    1
    10    25    22    1
    11    24    22    1
    12    40    46    1
    13    40    39   ar
    14    22    23    1
    15    22    21    1
    16    37    34    1
    17    38    29    1
    18    38    39   ar
    19    47    46    1
    20    47    48    1
    21    47    49    1
    22    30    29   ar
    23    30    26   ar
    24     9     3    1
    25    29    28   ar
    26    39    44    1
    27     8     7    1
    28    36    34    1
    29    34    35    1
    30    34    33    1
    31    21    16    1
    32    26    17    1
    33    26    27   ar
    34     7     2    1
    35     3     2   ar
    36     3     4   ar
    37    16    17   ar
    38    16    15   ar
    39    17    18   ar
    40    28    27   ar
    41    28    33    1
    42    15    19    1
    43    15    14   ar
    44    18    14   ar
    45    19    20    1
    46    14     4    1
    47    27    31    1
    48     2     1   ar
    49     4     5   ar
    50    44    45    1
    51     1     5   ar
    52     1     6    1
    53    31    32    1
