@<TRIPOS>MOLECULE
mol_data/opt/cam/geoms/mol2/5gl5gl5gl-5gl.out
 50 53 0 0 0
SMALL
GASTEIGER

@<TRIPOS>ATOM
      1 C          -1.6971   -2.0152    2.0789 C.ar    1  LIG1       -0.0069
      2 C          -0.7587   -2.2177    1.1162 C.ar    1  LIG1        0.0542
      3 C          -0.2387   -0.9836    0.6061 C.ar    1  LIG1        0.1484
      4 C          -0.7786    0.1281    1.1957 C.ar    1  LIG1        0.0698
      5 S          -1.9583   -0.3384    2.3863 S.2     1  LIG1       -0.0912
      6 H          -2.2462   -2.7603    2.6355 H       1  LIG1        0.0706
      7 S          -0.2511   -3.7974    0.5066 S.3     1  LIG1       -0.1386
      8 H           0.8996   -3.3435   -0.0191 H       1  LIG1        0.1072
      9 O           0.7228   -0.9573   -0.3611 O.3     1  LIG1       -0.4928
     10 C           0.2285   -0.7181   -1.6788 C.3     1  LIG1        0.0789
     11 H           1.0961   -0.7285   -2.3384 H       1  LIG1        0.0660
     12 H          -0.4739   -1.5025   -1.9788 H       1  LIG1        0.0660
     13 H          -0.2642    0.2567   -1.7382 H       1  LIG1        0.0660
     14 C          -0.4651    1.5223    0.9304 C.ar    1  LIG1        0.0468
     15 C           0.7587    2.1167    0.7602 C.ar    1  LIG1        0.0626
     16 C           0.6481    3.5293    0.5437 C.ar    1  LIG1        0.1491
     17 C          -0.6342    4.0042    0.5686 C.ar    1  LIG1        0.0704
     18 S          -1.7514    2.6978    0.8271 S.2     1  LIG1       -0.0822
     19 S           2.3251    1.3028    0.8119 S.3     1  LIG1       -0.1380
     20 H           2.9836    2.4191    1.1737 H       1  LIG1        0.1072
     21 O           1.7457    4.3202    0.3752 O.3     1  LIG1       -0.4928
     22 C           2.1062    4.5465   -0.9871 C.3     1  LIG1        0.0789
     23 H           2.9792    5.1987   -0.9690 H       1  LIG1        0.0660
     24 H           2.3591    3.6047   -1.4847 H       1  LIG1        0.0660
     25 H           1.2916    5.0396   -1.5262 H       1  LIG1        0.0660
     26 C          -1.0824    5.3760    0.4025 C.ar    1  LIG1        0.0468
     27 C          -0.5677    6.5276    0.9403 C.ar    1  LIG1        0.0626
     28 C          -1.3174    7.6866    0.5531 C.ar    1  LIG1        0.1491
     29 C          -2.3931    7.4205   -0.2479 C.ar    1  LIG1        0.0704
     30 S          -2.4889    5.7164   -0.5749 S.2     1  LIG1       -0.0822
     31 S           0.8320    6.6409    2.0108 S.3     1  LIG1       -0.1380
     32 H           0.4045    7.7825    2.5809 H       1  LIG1        0.1072
     33 O          -0.9930    8.9348    0.9960 O.3     1  LIG1       -0.4928
     34 C          -0.1563    9.6750    0.1078 C.3     1  LIG1        0.0789
     35 H           0.0202   10.6393    0.5840 H       1  LIG1        0.0660
     36 H           0.7974    9.1605   -0.0479 H       1  LIG1        0.0660
     37 H          -0.6537    9.8272   -0.8549 H       1  LIG1        0.0660
     38 C          -3.3556    8.3620   -0.7951 C.ar    1  LIG1        0.0462
     39 C          -3.9799    9.4174   -0.1818 C.ar    1  LIG1        0.0619
     40 C          -4.8978   10.0883   -1.0631 C.ar    1  LIG1        0.1408
     41 C          -4.9625    9.5358   -2.3021 C.ar    1  LIG1        0.0191
     42 S          -3.8875    8.2015   -2.4521 S.2     1  LIG1       -0.0912
     43 H          -5.5933    9.8474   -3.1210 H       1  LIG1        0.0731
     44 S          -3.7711    9.9110    1.5011 S.3     1  LIG1       -0.1380
     45 H          -5.0023   10.4494    1.5793 H       1  LIG1        0.1072
     46 O          -5.6734   11.1328   -0.6498 O.3     1  LIG1       -0.4935
     47 C          -5.0574   12.4094   -0.7972 C.3     1  LIG1        0.0789
     48 H          -5.7688   13.1436   -0.4182 H       1  LIG1        0.0660
     49 H          -4.1280   12.4700   -0.2213 H       1  LIG1        0.0660
     50 H          -4.8439   12.6178   -1.8510 H       1  LIG1        0.0660
@<TRIPOS>BOND
     1    43    41    1
     2    42    41   ar
     3    42    38   ar
     4    11    10    1
     5    41    40   ar
     6    12    10    1
     7    50    47    1
     8    13    10    1
     9    10     9    1
    10    25    22    1
    11    24    22    1
    12    40    46    1
    13    40    39   ar
    14    22    23    1
    15    22    21    1
    16    37    34    1
    17    47    46    1
    18    47    48    1
    19    47    49    1
    20    38    29    1
    21    38    39   ar
    22    30    29   ar
    23    30    26   ar
    24     9     3    1
    25    29    28   ar
    26    39    44    1
    27    36    34    1
    28     8     7    1
    29    34    35    1
    30    34    33    1
    31    21    16    1
    32    26    17    1
    33    26    27   ar
    34     7     2    1
    35    16    17   ar
    36    16    15   ar
    37    28    27   ar
    38    28    33    1
    39    17    18   ar
    40     3     2   ar
    41     3     4   ar
    42    15    19    1
    43    15    14   ar
    44    19    20    1
    45    18    14   ar
    46    14     4    1
    47    27    31    1
    48     2     1   ar
    49     4     5   ar
    50    44    45    1
    51    31    32    1
    52     1     5   ar
    53     1     6    1
