@<TRIPOS>MOLECULE
mol_data/opt/cam/geoms/mol2/5gl5gl-5gl5gl.out
 50 53 0 0 0
SMALL
GASTEIGER

@<TRIPOS>ATOM
      1 C          -1.7115   -2.0574    1.9519 C.ar    1  LIG1       -0.0069
      2 C          -0.7588   -2.2384    0.9991 C.ar    1  LIG1        0.0542
      3 C          -0.2342   -0.9931    0.5219 C.ar    1  LIG1        0.1484
      4 C          -0.7851    0.1052    1.1259 C.ar    1  LIG1        0.0698
      5 S          -1.9809   -0.3877    2.2895 S.2     1  LIG1       -0.0912
      6 H          -2.2669   -2.8148    2.4852 H       1  LIG1        0.0706
      7 S          -0.2387   -3.8044    0.3649 S.3     1  LIG1       -0.1386
      8 H           0.9185   -3.3376   -0.1345 H       1  LIG1        0.1072
      9 O           0.7412   -0.9453   -0.4305 O.3     1  LIG1       -0.4928
     10 C           0.2656   -0.6803   -1.7501 C.3     1  LIG1        0.0789
     11 H           1.1427   -0.6755   -2.3971 H       1  LIG1        0.0660
     12 H          -0.4306   -1.4598   -2.0763 H       1  LIG1        0.0660
     13 H          -0.2285    0.2946   -1.7970 H       1  LIG1        0.0660
     14 C          -0.4710    1.5052    0.8937 C.ar    1  LIG1        0.0468
     15 C           0.7537    2.1053    0.7534 C.ar    1  LIG1        0.0626
     16 C           0.6431    3.5218    0.5640 C.ar    1  LIG1        0.1491
     17 C          -0.6405    3.9936    0.5799 C.ar    1  LIG1        0.0704
     18 S          -1.7583    2.6800    0.7955 S.2     1  LIG1       -0.0822
     19 S           2.3211    1.2937    0.8114 S.3     1  LIG1       -0.1380
     20 H           2.9718    2.4037    1.2054 H       1  LIG1        0.1072
     21 O           1.7412    4.3182    0.4277 O.3     1  LIG1       -0.4928
     22 C           2.1210    4.5729   -0.9243 C.3     1  LIG1        0.0789
     23 H           2.9921    5.2263   -0.8803 H       1  LIG1        0.0660
     24 H           2.3833    3.6419   -1.4372 H       1  LIG1        0.0660
     25 H           1.3132    5.0753   -1.4651 H       1  LIG1        0.0660
     26 C          -1.0894    5.3676    0.4352 C.ar    1  LIG1        0.0468
     27 C          -0.5852    6.5090    1.0037 C.ar    1  LIG1        0.0626
     28 C          -1.3318    7.6742    0.6293 C.ar    1  LIG1        0.1491
     29 C          -2.3952    7.4223   -0.1926 C.ar    1  LIG1        0.0704
     30 S          -2.4823    5.7250   -0.5555 S.2     1  LIG1       -0.0822
     31 S           0.7985    6.6034    2.0966 S.3     1  LIG1       -0.1380
     32 H           0.3601    7.7322    2.6835 H       1  LIG1        0.1072
     33 O          -1.0168    8.9138    1.1021 O.3     1  LIG1       -0.4928
     34 C          -0.1689    9.6735    0.2415 C.3     1  LIG1        0.0789
     35 H          -0.0016   10.6283    0.7397 H       1  LIG1        0.0660
     36 H           0.7881    9.1642    0.0893 H       1  LIG1        0.0660
     37 H          -0.6526    9.8443   -0.7251 H       1  LIG1        0.0660
     38 C          -3.3517    8.3728   -0.7345 C.ar    1  LIG1        0.0462
     39 C          -3.9873    9.4143   -0.1091 C.ar    1  LIG1        0.0619
     40 C          -4.8939   10.1011   -0.9899 C.ar    1  LIG1        0.1408
     41 C          -4.9392    9.5739   -2.2406 C.ar    1  LIG1        0.0191
     42 S          -3.8591    8.2450   -2.4021 S.2     1  LIG1       -0.0912
     43 H          -5.5588    9.9008   -3.0622 H       1  LIG1        0.0731
     44 S          -3.8041    9.8740    1.5864 S.3     1  LIG1       -0.1380
     45 H          -5.0375   10.4082    1.6575 H       1  LIG1        0.1072
     46 O          -5.6777   11.1355   -0.5668 O.3     1  LIG1       -0.4935
     47 C          -5.0625   12.4160   -0.6792 C.3     1  LIG1        0.0789
     48 H          -5.7811   13.1409   -0.2958 H       1  LIG1        0.0660
     49 H          -4.1417   12.4668   -0.0888 H       1  LIG1        0.0660
     50 H          -4.8343   12.6462   -1.7254 H       1  LIG1        0.0660
@<TRIPOS>BOND
     1    43    41    1
     2    42    41   ar
     3    42    38   ar
     4    11    10    1
     5    41    40   ar
     6    12    10    1
     7    13    10    1
     8    10     9    1
     9    50    47    1
    10    25    22    1
    11    24    22    1
    12    40    46    1
    13    40    39   ar
    14    22    23    1
    15    22    21    1
    16    38    29    1
    17    38    39   ar
    18    37    34    1
    19    47    46    1
    20    47    48    1
    21    47    49    1
    22    30    29   ar
    23    30    26   ar
    24     9     3    1
    25    29    28   ar
    26     8     7    1
    27    39    44    1
    28    36    34    1
    29    34    35    1
    30    34    33    1
    31     7     2    1
    32    21    16    1
    33    26    17    1
    34    26    27   ar
    35     3     2   ar
    36     3     4   ar
    37    16    17   ar
    38    16    15   ar
    39    17    18   ar
    40    28    27   ar
    41    28    33    1
    42    15    19    1
    43    15    14   ar
    44    18    14   ar
    45    19    20    1
    46    14     4    1
    47     2     1   ar
    48    27    31    1
    49     4     5   ar
    50    44    45    1
    51     1     5   ar
    52     1     6    1
    53    31    32    1
