@<TRIPOS>MOLECULE
mol_data/opt/cam/geoms/mol2/5gl5gl-.out
 26 27 0 0 0
SMALL
GASTEIGER

@<TRIPOS>ATOM
      1 C          -2.3585   -1.9437    0.5564 C.ar    1  LIG1       -0.0069
      2 C          -1.0103   -2.1121    0.6018 C.ar    1  LIG1        0.0542
      3 C          -0.3080   -0.8886    0.3476 C.ar    1  LIG1        0.1484
      4 C          -1.1299    0.1836    0.1267 C.ar    1  LIG1        0.0698
      5 S          -2.7955   -0.3104    0.2143 S.2     1  LIG1       -0.0912
      6 H          -3.1246   -2.6887    0.7129 H       1  LIG1        0.0706
      7 S          -0.1859   -3.6492    0.8879 S.3     1  LIG1       -0.1386
      8 H           0.9902   -3.0805    1.2038 H       1  LIG1        0.1072
      9 O           1.0552   -0.8347    0.3605 O.3     1  LIG1       -0.4928
     10 C           1.6609   -0.8003   -0.9314 C.3     1  LIG1        0.0789
     11 H           2.7375   -0.7697   -0.7643 H       1  LIG1        0.0660
     12 H           1.4011   -1.6949   -1.5067 H       1  LIG1        0.0660
     13 H           1.3518    0.0924   -1.4828 H       1  LIG1        0.0660
     14 C          -0.7511    1.5623   -0.1382 C.ar    1  LIG1        0.0462
     15 C           0.2037    2.3295    0.4773 C.ar    1  LIG1        0.0619
     16 C           0.2510    3.6649   -0.0550 C.ar    1  LIG1        0.1408
     17 C          -0.6580    3.8887   -1.0389 C.ar    1  LIG1        0.0191
     18 S          -1.5801    2.4759   -1.3755 S.2     1  LIG1       -0.0912
     19 H          -0.8287    4.8140   -1.5684 H       1  LIG1        0.0731
     20 S           1.2471    1.8140    1.8063 S.3     1  LIG1       -0.1380
     21 H           1.4019    3.0656    2.2764 H       1  LIG1        0.1072
     22 O           1.0880    4.6196    0.4470 O.3     1  LIG1       -0.4935
     23 C           2.3703    4.6539   -0.1734 C.3     1  LIG1        0.0789
     24 H           2.9373    5.4394    0.3270 H       1  LIG1        0.0660
     25 H           2.8919    3.6978   -0.0593 H       1  LIG1        0.0660
     26 H           2.2799    4.8909   -1.2389 H       1  LIG1        0.0660
@<TRIPOS>BOND
     1    19    17    1
     2    12    10    1
     3    13    10    1
     4    18    17   ar
     5    18    14   ar
     6    26    23    1
     7    17    16   ar
     8    10    11    1
     9    10     9    1
    10    23    25    1
    11    23    24    1
    12    23    22    1
    13    14     4    1
    14    14    15   ar
    15    16    22    1
    16    16    15   ar
    17     4     5   ar
    18     4     3   ar
    19     5     1   ar
    20     3     9    1
    21     3     2   ar
    22    15    20    1
    23     1     2   ar
    24     1     6    1
    25     2     7    1
    26     7     8    1
    27    20    21    1
