@<TRIPOS>MOLECULE
mol_data/opt/cam/geoms/mol2/5gl5gl5gl-.out
 38 40 0 0 0
SMALL
GASTEIGER

@<TRIPOS>ATOM
      1 C          -2.1998   -2.0601    1.1753 C.ar    1  LIG1       -0.0069
      2 C          -0.9294   -2.2441    0.7277 C.ar    1  LIG1        0.0542
      3 C          -0.2778   -1.0013    0.4366 C.ar    1  LIG1        0.1484
      4 C          -1.0560    0.0993    0.6786 C.ar    1  LIG1        0.0698
      5 S          -2.6220   -0.3899    1.2575 S.2     1  LIG1       -0.0912
      6 H          -2.9135   -2.8147    1.4714 H       1  LIG1        0.0706
      7 S          -0.1581   -3.8143    0.4747 S.3     1  LIG1       -0.1386
      8 H           1.0905   -3.3172    0.4569 H       1  LIG1        0.1072
      9 O           1.0090   -0.9604   -0.0139 O.3     1  LIG1       -0.4928
     10 C           1.1405   -0.7257   -1.4158 C.3     1  LIG1        0.0789
     11 H           2.2096   -0.7267   -1.6274 H       1  LIG1        0.0660
     12 H           0.6484   -1.5172   -1.9902 H       1  LIG1        0.0660
     13 H           0.7152    0.2441   -1.6897 H       1  LIG1        0.0660
     14 C          -0.7036    1.4994    0.5112 C.ar    1  LIG1        0.0468
     15 C           0.4523    2.1490    0.8596 C.ar    1  LIG1        0.0626
     16 C           0.4024    3.5472    0.5468 C.ar    1  LIG1        0.1491
     17 C          -0.7769    3.9579   -0.0100 C.ar    1  LIG1        0.0704
     18 S          -1.8532    2.6061   -0.1970 S.2     1  LIG1       -0.0822
     19 S           1.8647    1.4161    1.6256 S.3     1  LIG1       -0.1380
     20 H           2.2701    2.5762    2.1738 H       1  LIG1        0.1072
     21 O           1.4397    4.3855    0.8318 O.3     1  LIG1       -0.4928
     22 C           2.3395    4.5979   -0.2554 C.3     1  LIG1        0.0789
     23 H           3.1054    5.2823    0.1089 H       1  LIG1        0.0660
     24 H           2.8036    3.6563   -0.5661 H       1  LIG1        0.0660
     25 H           1.8192    5.0495   -1.1055 H       1  LIG1        0.0660
     26 C          -1.1528    5.3006   -0.4198 C.ar    1  LIG1        0.0462
     27 C          -0.9585    6.4912    0.2319 C.ar    1  LIG1        0.0619
     28 C          -1.5139    7.6018   -0.4943 C.ar    1  LIG1        0.1408
     29 C          -2.1181    7.2424   -1.6563 C.ar    1  LIG1        0.0191
     30 S          -2.0058    5.5472   -1.9251 S.2     1  LIG1       -0.0912
     31 H          -2.6248    7.8922   -2.3540 H       1  LIG1        0.0731
     32 S          -0.1797    6.6982    1.8037 S.3     1  LIG1       -0.1380
     33 H          -0.8683    7.8198    2.0864 H       1  LIG1        0.1072
     34 O          -1.4886    8.8768   -0.0074 O.3     1  LIG1       -0.4935
     35 C          -0.3183    9.6106   -0.3578 C.3     1  LIG1        0.0789
     36 H          -0.4169   10.5929    0.1050 H       1  LIG1        0.0660
     37 H           0.5852    9.1188    0.0176 H       1  LIG1        0.0660
     38 H          -0.2428    9.7247   -1.4444 H       1  LIG1        0.0660
@<TRIPOS>BOND
     1    31    29    1
     2    12    10    1
     3    30    29   ar
     4    30    26   ar
     5    13    10    1
     6    29    28   ar
     7    11    10    1
     8    38    35    1
     9    10     9    1
    10    25    22    1
    11    24    22    1
    12    28    34    1
    13    28    27   ar
    14    26    17    1
    15    26    27   ar
    16    35    34    1
    17    35    37    1
    18    35    36    1
    19    22    23    1
    20    22    21    1
    21    18    17   ar
    22    18    14   ar
    23     9     3    1
    24    17    16   ar
    25    27    32    1
    26     3     4   ar
    27     3     2   ar
    28     8     7    1
    29     7     2    1
    30    14     4    1
    31    14    15   ar
    32    16    21    1
    33    16    15   ar
    34     4     5   ar
    35     2     1   ar
    36    15    19    1
    37     1     5   ar
    38     1     6    1
    39    19    20    1
    40    32    33    1
