@<TRIPOS>MOLECULE
mol_data/opt/cam/geoms/mol2/5gl5gl5gl.out
 38 40 0 0 0
SMALL
GASTEIGER

@<TRIPOS>ATOM
      1 C          -2.4090   -1.8807   -0.3194 C.ar    1  LIG1       -0.0069
      2 C          -1.0730   -2.1273   -0.2659 C.ar    1  LIG1        0.0542
      3 C          -0.3168   -0.9347   -0.0224 C.ar    1  LIG1        0.1484
      4 C          -1.0877    0.1885    0.1164 C.ar    1  LIG1        0.0698
      5 S          -2.7702   -0.2127   -0.0703 S.2     1  LIG1       -0.0912
      6 H          -3.2070   -2.5896   -0.4837 H       1  LIG1        0.0706
      7 S          -0.3199   -3.7076   -0.5117 S.3     1  LIG1       -0.1386
      8 H           0.8435   -3.3620    0.0659 H       1  LIG1        0.1072
      9 O           1.0436   -0.9586    0.0787 O.3     1  LIG1       -0.4928
     10 C           1.7304   -0.5330   -1.0985 C.3     1  LIG1        0.0789
     11 H           2.7948   -0.6115   -0.8781 H       1  LIG1        0.0660
     12 H           1.4802   -1.1762   -1.9484 H       1  LIG1        0.0660
     13 H           1.4824    0.5047   -1.3397 H       1  LIG1        0.0660
     14 C          -0.6452    1.5454    0.3874 C.ar    1  LIG1        0.0468
     15 C           0.2902    1.9861    1.2867 C.ar    1  LIG1        0.0626
     16 C           0.4269    3.4096    1.2662 C.ar    1  LIG1        0.1491
     17 C          -0.4004    4.0529    0.3805 C.ar    1  LIG1        0.0704
     18 S          -1.3556    2.8798   -0.4811 S.2     1  LIG1       -0.0822
     19 S           1.2132    0.9678    2.3975 S.3     1  LIG1       -0.1380
     20 H           1.3459    1.9437    3.3148 H       1  LIG1        0.1072
     21 O           1.2581    4.0681    2.1274 O.3     1  LIG1       -0.4928
     22 C           2.5996    4.2097    1.6533 C.3     1  LIG1        0.0789
     23 H           3.1511    4.7254    2.4393 H       1  LIG1        0.0660
     24 H           3.0501    3.2301    1.4680 H       1  LIG1        0.0660
     25 H           2.6234    4.8082    0.7380 H       1  LIG1        0.0660
     26 C          -0.5309    5.4875    0.1851 C.ar    1  LIG1        0.0462
     27 C          -1.0946    6.1802   -0.8581 C.ar    1  LIG1        0.0619
     28 C          -1.0650    7.6012   -0.6525 C.ar    1  LIG1        0.1408
     29 C          -0.4886    7.9648    0.5228 C.ar    1  LIG1        0.0191
     30 S           0.0448    6.5901    1.4185 S.2     1  LIG1       -0.0912
     31 H          -0.3312    8.9588    0.9108 H       1  LIG1        0.0731
     32 S          -1.7755    5.4796   -2.3322 S.3     1  LIG1       -0.1380
     33 H          -2.1998    6.6594   -2.8129 H       1  LIG1        0.1072
     34 O          -1.5890    8.4040   -1.6100 O.3     1  LIG1       -0.4935
     35 C          -1.5522    9.7935   -1.3525 C.3     1  LIG1        0.0789
     36 H          -2.0172   10.2809   -2.2085 H       1  LIG1        0.0660
     37 H          -2.1114   10.0386   -0.4425 H       1  LIG1        0.0660
     38 H          -0.5198   10.1459   -1.2475 H       1  LIG1        0.0660
@<TRIPOS>BOND
     1    33    32    1
     2    32    27    1
     3    36    35    1
     4    12    10    1
     5    34    35    1
     6    34    28    1
     7    35    38    1
     8    35    37    1
     9    13    10    1
    10    10    11    1
    11    10     9    1
    12    27    28   ar
    13    27    26   ar
    14    28    29   ar
    15     7     2    1
    16     7     8    1
    17     6     1    1
    18    18    17   ar
    19    18    14   ar
    20     1     2   ar
    21     1     5   ar
    22     2     3   ar
    23     5     4   ar
    24     3     9    1
    25     3     4   ar
    26     4    14    1
    27    26    17    1
    28    26    30   ar
    29    17    16   ar
    30    14    15   ar
    31    29    31    1
    32    29    30   ar
    33    25    22    1
    34    16    15   ar
    35    16    21    1
    36    15    19    1
    37    24    22    1
    38    22    21    1
    39    22    23    1
    40    19    20    1
