@<TRIPOS>MOLECULE
mol_data/opt/cam/geoms/mol2/5gl5gl5gl-5gl-.out
 50 53 0 0 0
SMALL
GASTEIGER

@<TRIPOS>ATOM
      1 C          -1.9547   -2.0246    1.3058 C.ar    1  LIG1       -0.0069
      2 C          -0.9736   -2.1257    0.3701 C.ar    1  LIG1        0.0542
      3 C          -0.3727   -0.8566    0.0835 C.ar    1  LIG1        0.1484
      4 C          -0.8963    0.1784    0.8115 C.ar    1  LIG1        0.0698
      5 S          -2.1604   -0.4030    1.8560 S.2     1  LIG1       -0.0912
      6 H          -2.5669   -2.8164    1.7116 H       1  LIG1        0.0706
      7 S          -0.5024   -3.6176   -0.4524 S.3     1  LIG1       -0.1386
      8 H           0.6798   -3.1368   -0.8741 H       1  LIG1        0.1072
      9 O           0.6424   -0.7371   -0.8198 O.3     1  LIG1       -0.4928
     10 C           0.2501   -0.2157   -2.0895 C.3     1  LIG1        0.0789
     11 H           1.1524   -0.1851   -2.6999 H       1  LIG1        0.0660
     12 H          -0.4951   -0.8637   -2.5622 H       1  LIG1        0.0660
     13 H          -0.1557    0.7949   -1.9871 H       1  LIG1        0.0660
     14 C          -0.5089    1.5790    0.7830 C.ar    1  LIG1        0.0468
     15 C           0.7468    2.1296    0.7707 C.ar    1  LIG1        0.0626
     16 C           0.7091    3.5622    0.7680 C.ar    1  LIG1        0.1491
     17 C          -0.5516    4.0924    0.7981 C.ar    1  LIG1        0.0704
     18 S          -1.7361    2.8202    0.7939 S.2     1  LIG1       -0.0822
     19 S           2.2714    1.2382    0.7773 S.3     1  LIG1       -0.1380
     20 H           2.9573    2.2552    1.3302 H       1  LIG1        0.1072
     21 O           1.8484    4.3117    0.7778 O.3     1  LIG1       -0.4928
     22 C           2.2822    4.7389   -0.5133 C.3     1  LIG1        0.0789
     23 H           3.1920    5.3179   -0.3556 H       1  LIG1        0.0660
     24 H           2.4988    3.8789   -1.1551 H       1  LIG1        0.0660
     25 H           1.5240    5.3697   -0.9870 H       1  LIG1        0.0660
     26 C          -0.9288    5.4943    0.8210 C.ar    1  LIG1        0.0468
     27 C          -0.3942    6.5241    1.5509 C.ar    1  LIG1        0.0626
     28 C          -1.0653    7.7625    1.3030 C.ar    1  LIG1        0.1491
     29 C          -2.1071    7.6836    0.4135 C.ar    1  LIG1        0.0704
     30 S          -2.2553    6.0490   -0.1659 S.2     1  LIG1       -0.0822
     31 S           0.9291    6.3902    2.7141 S.3     1  LIG1       -0.1380
     32 H           0.4917    7.4250    3.4554 H       1  LIG1        0.1072
     33 O          -0.7374    8.9080    1.9709 O.3     1  LIG1       -0.4928
     34 C           0.3019    9.6695    1.3508 C.3     1  LIG1        0.0789
     35 H           0.4754   10.5334    1.9924 H       1  LIG1        0.0660
     36 H           1.2193    9.0790    1.2705 H       1  LIG1        0.0660
     37 H          -0.0093   10.0084    0.3584 H       1  LIG1        0.0660
     38 C          -3.0058    8.7552    0.0170 C.ar    1  LIG1        0.0462
     39 C          -3.8495    8.8333   -1.0636 C.ar    1  LIG1        0.0619
     40 C          -4.6108   10.0509   -1.0780 C.ar    1  LIG1        0.1408
     41 C          -4.3405   10.8690   -0.0275 C.ar    1  LIG1        0.0191
     42 S          -3.1445   10.1890    1.0134 S.2     1  LIG1       -0.0912
     43 H          -4.7611   11.8380    0.1903 H       1  LIG1        0.0731
     44 S          -4.0190    7.6293   -2.3479 S.3     1  LIG1       -0.1380
     45 H          -5.0104    8.2891   -2.9682 H       1  LIG1        0.1072
     46 O          -5.4820   10.2564   -2.0949 O.3     1  LIG1       -0.4935
     47 C          -6.2184   11.4626   -2.0563 C.3     1  LIG1        0.0789
     48 H          -6.8676   11.4590   -2.9309 H       1  LIG1        0.0660
     49 H          -6.8281   11.5210   -1.1475 H       1  LIG1        0.0660
     50 H          -5.5514   12.3311   -2.0997 H       1  LIG1        0.0660
@<TRIPOS>BOND
     1    45    44    1
     2    48    47    1
     3    11    10    1
     4    12    10    1
     5    44    39    1
     6    50    47    1
     7    46    47    1
     8    46    40    1
     9    10    13    1
    10    10     9    1
    11    47    49    1
    12    24    22    1
    13    40    39   ar
    14    40    41   ar
    15    39    38   ar
    16    25    22    1
    17     8     7    1
    18     9     3    1
    19    22    23    1
    20    22    21    1
    21     7     2    1
    22    30    29   ar
    23    30    26   ar
    24    41    43    1
    25    41    42   ar
    26    38    29    1
    27    38    42   ar
    28     3     2   ar
    29     3     4   ar
    30    37    34    1
    31     2     1   ar
    32    29    28   ar
    33    16    15   ar
    34    16    21    1
    35    16    17   ar
    36    15    19    1
    37    15    14   ar
    38    19    20    1
    39    14    18   ar
    40    14     4    1
    41    18    17   ar
    42    17    26    1
    43     4     5   ar
    44    26    27   ar
    45    36    34    1
    46    28    27   ar
    47    28    33    1
    48     1     6    1
    49     1     5   ar
    50    34    33    1
    51    34    35    1
    52    27    31    1
    53    31    32    1
