@<TRIPOS>MOLECULE
mol_data/opt/cam/geoms/mol2/5gl5gl-5gl.out
 38 40 0 0 0
SMALL
GASTEIGER

@<TRIPOS>ATOM
      1 C          -2.1979   -2.0638    1.1618 C.ar    1  LIG1       -0.0069
      2 C          -0.9248   -2.2457    0.7209 C.ar    1  LIG1        0.0542
      3 C          -0.2736   -1.0018    0.4339 C.ar    1  LIG1        0.1484
      4 C          -1.0548    0.0975    0.6723 C.ar    1  LIG1        0.0698
      5 S          -2.6231   -0.3944    1.2426 S.2     1  LIG1       -0.0912
      6 H          -2.9119   -2.8197    1.4537 H       1  LIG1        0.0706
      7 S          -0.1497   -3.8146    0.4713 S.3     1  LIG1       -0.1386
      8 H           1.0982   -3.3156    0.4605 H       1  LIG1        0.1072
      9 O           1.0156   -0.9586   -0.0097 O.3     1  LIG1       -0.4928
     10 C           1.1542   -0.7232   -1.4108 C.3     1  LIG1        0.0789
     11 H           2.2244   -0.7225   -1.6167 H       1  LIG1        0.0660
     12 H           0.6664   -1.5152   -1.9881 H       1  LIG1        0.0660
     13 H           0.7288    0.2461   -1.6866 H       1  LIG1        0.0660
     14 C          -0.7037    1.4982    0.5073 C.ar    1  LIG1        0.0468
     15 C           0.4494    2.1494    0.8623 C.ar    1  LIG1        0.0626
     16 C           0.3990    3.5477    0.5499 C.ar    1  LIG1        0.1491
     17 C          -0.7780    3.9569   -0.0131 C.ar    1  LIG1        0.0704
     18 S          -1.8511    2.6035   -0.2065 S.2     1  LIG1       -0.0822
     19 S           1.8588    1.4184    1.6355 S.3     1  LIG1       -0.1380
     20 H           2.2594    2.5788    2.1864 H       1  LIG1        0.1072
     21 O           1.4335    4.3874    0.8408 O.3     1  LIG1       -0.4928
     22 C           2.3388    4.6018   -0.2414 C.3     1  LIG1        0.0789
     23 H           3.1017    5.2872    0.1273 H       1  LIG1        0.0660
     24 H           2.8060    3.6610   -0.5501 H       1  LIG1        0.0660
     25 H           1.8224    5.0530   -1.0941 H       1  LIG1        0.0660
     26 C          -1.1537    5.2992   -0.4243 C.ar    1  LIG1        0.0462
     27 C          -0.9648    6.4898    0.2290 C.ar    1  LIG1        0.0619
     28 C          -1.5179    7.5998   -0.4997 C.ar    1  LIG1        0.1408
     29 C          -2.1153    7.2400   -1.6651 C.ar    1  LIG1        0.0191
     30 S          -1.9989    5.5451   -1.9340 S.2     1  LIG1       -0.0912
     31 H          -2.6192    7.8894   -2.3652 H       1  LIG1        0.0731
     32 S          -0.1948    6.6972    1.8051 S.3     1  LIG1       -0.1380
     33 H          -0.8866    7.8176    2.0846 H       1  LIG1        0.1072
     34 O          -1.4972    8.8747   -0.0121 O.3     1  LIG1       -0.4935
     35 C          -0.3262    9.6104   -0.3557 C.3     1  LIG1        0.0789
     36 H          -0.4288   10.5923    0.1070 H       1  LIG1        0.0660
     37 H           0.5760    9.1198    0.0243 H       1  LIG1        0.0660
     38 H          -0.2450    9.7251   -1.4419 H       1  LIG1        0.0660
@<TRIPOS>BOND
     1    31    29    1
     2    12    10    1
     3    30    29   ar
     4    30    26   ar
     5    13    10    1
     6    29    28   ar
     7    11    10    1
     8    38    35    1
     9    10     9    1
    10    25    22    1
    11    24    22    1
    12    28    34    1
    13    28    27   ar
    14    26    17    1
    15    26    27   ar
    16    35    34    1
    17    35    37    1
    18    35    36    1
    19    22    23    1
    20    22    21    1
    21    18    17   ar
    22    18    14   ar
    23    17    16   ar
    24     9     3    1
    25    27    32    1
    26     3     4   ar
    27     3     2   ar
    28     8     7    1
    29     7     2    1
    30    14     4    1
    31    14    15   ar
    32    16    21    1
    33    16    15   ar
    34     4     5   ar
    35     2     1   ar
    36    15    19    1
    37     1     5   ar
    38     1     6    1
    39    19    20    1
    40    32    33    1
