@<TRIPOS>MOLECULE
mol_data/opt/cam/geoms/mol2/5ha.out
 11 11 0 0 0
SMALL
GASTEIGER

@<TRIPOS>ATOM
      1 C          -2.0809   -1.6823   -0.0360 C.ar    1  LIG1       -0.0037
      2 C          -0.7157   -1.6709   -0.0495 C.ar    1  LIG1        0.0316
      3 C          -0.1910   -0.3364   -0.0143 C.ar    1  LIG1       -0.0340
      4 C          -1.1624    0.6112    0.0245 C.ar    1  LIG1       -0.0225
      5 S          -2.7379   -0.0827    0.0317 S.2     1  LIG1       -0.1032
      6 H          -2.7355   -2.5414   -0.0519 H       1  LIG1        0.0712
      7 H          -1.0378    1.6839    0.0572 H       1  LIG1        0.0694
      8 N           0.1142   -2.7965   -0.0329 N.pl3   1  LIG1       -0.3576
      9 H          -0.3496   -3.6500   -0.3108 H       1  LIG1        0.1423
     10 H           0.9720   -2.6744   -0.5532 H       1  LIG1        0.1423
     11 H           0.8696   -0.1138   -0.0086 H       1  LIG1        0.0641
@<TRIPOS>BOND
     1    10     8    1
     2     9     8    1
     3     6     1    1
     4     2     1   ar
     5     2     8    1
     6     2     3   ar
     7     1     5   ar
     8     3    11    1
     9     3     4   ar
    10     4     5   ar
    11     4     7    1
