@<TRIPOS>MOLECULE
mol_data/opt/cam/geoms/mol2/5ha5ha5ha-5ha.out
 38 41 0 0 0
SMALL
GASTEIGER

@<TRIPOS>ATOM
      1 C          -1.5872   -1.8242   -1.4234 C.ar    1  LIG1       -0.0031
      2 C          -0.7934   -1.9245   -0.3180 C.ar    1  LIG1        0.0323
      3 C          -0.4604   -0.6427    0.2257 C.ar    1  LIG1       -0.0257
      4 C          -1.0012    0.4052   -0.4711 C.ar    1  LIG1        0.0295
      5 S          -1.9319   -0.1753   -1.8232 S.2     1  LIG1       -0.0942
      6 H          -2.0054   -2.6267   -2.0133 H       1  LIG1        0.0712
      7 N          -0.3965   -3.1148    0.2973 N.pl3   1  LIG1       -0.3575
      8 H          -0.4620   -3.9283   -0.2978 H       1  LIG1        0.1423
      9 H           0.5113   -3.0642    0.7379 H       1  LIG1        0.1423
     10 H           0.1018   -0.5117    1.1429 H       1  LIG1        0.0647
     11 C          -0.8453    1.8225   -0.2054 C.ar    1  LIG1        0.0471
     12 C           0.2741    2.4577    0.2815 C.ar    1  LIG1        0.0406
     13 C           0.0871    3.8640    0.4353 C.ar    1  LIG1       -0.0250
     14 C          -1.1581    4.2975    0.0617 C.ar    1  LIG1        0.0301
     15 S          -2.1338    2.9676   -0.4904 S.2     1  LIG1       -0.0853
     16 N           1.4607    1.8193    0.6365 N.pl3   1  LIG1       -0.3570
     17 H           1.5888    0.9264    0.1769 H       1  LIG1        0.1424
     18 H           2.2793    2.4046    0.5447 H       1  LIG1        0.1424
     19 H           0.8331    4.5191    0.8698 H       1  LIG1        0.0648
     20 C          -1.6642    5.6549    0.0757 C.ar    1  LIG1        0.0472
     21 C          -0.9529    6.8091   -0.1646 C.ar    1  LIG1        0.0406
     22 C          -1.7574    7.9830   -0.0611 C.ar    1  LIG1       -0.0250
     23 C          -3.0678    7.7264    0.2448 C.ar    1  LIG1        0.0301
     24 S          -3.3401    6.0178    0.4132 S.2     1  LIG1       -0.0853
     25 N           0.4111    6.8612   -0.4411 N.pl3   1  LIG1       -0.3570
     26 H           0.7754    6.0032   -0.8359 H       1  LIG1        0.1424
     27 H           0.6839    7.6660   -0.9879 H       1  LIG1        0.1424
     28 H          -1.3600    8.9871   -0.1528 H       1  LIG1        0.0648
     29 C          -4.1429    8.6866    0.4040 C.ar    1  LIG1        0.0465
     30 C          -4.3161    9.8604   -0.2955 C.ar    1  LIG1        0.0400
     31 C          -5.4905   10.5688    0.1103 C.ar    1  LIG1       -0.0334
     32 C          -6.1804    9.9307    1.0901 C.ar    1  LIG1       -0.0219
     33 S          -5.4262    8.4614    1.5668 S.2     1  LIG1       -0.0942
     34 H          -7.0946   10.2516    1.5682 H       1  LIG1        0.0694
     35 N          -3.4513   10.3415   -1.2764 N.pl3   1  LIG1       -0.3571
     36 H          -2.8966    9.6153   -1.7125 H       1  LIG1        0.1424
     37 H          -3.9082   10.9191   -1.9688 H       1  LIG1        0.1424
     38 H          -5.7920   11.5157   -0.3220 H       1  LIG1        0.0641
@<TRIPOS>BOND
     1     6     1    1
     2    37    35    1
     3     5     1   ar
     4     5     4   ar
     5    36    35    1
     6     1     2   ar
     7    35    30    1
     8    27    25    1
     9    26    25    1
    10    15    11   ar
    11    15    14   ar
    12     4    11    1
    13     4     3   ar
    14    25    21    1
    15    38    31    1
    16     2     3   ar
    17     2     7    1
    18     8     7    1
    19    30    31   ar
    20    30    29   ar
    21    11    12   ar
    22    21    22   ar
    23    21    20   ar
    24    28    22    1
    25    22    23   ar
    26    14    20    1
    27    14    13   ar
    28    20    24   ar
    29    31    32   ar
    30    17    16    1
    31     3    10    1
    32    23    29    1
    33    23    24   ar
    34    12    13   ar
    35    12    16    1
    36     7     9    1
    37    29    33   ar
    38    13    19    1
    39    18    16    1
    40    32    33   ar
    41    32    34    1
