@<TRIPOS>MOLECULE
mol_data/opt/cam/geoms/mol2/5ha5ha-5ha-5ha-.out
 38 41 0 0 0
SMALL
GASTEIGER

@<TRIPOS>ATOM
      1 C          -1.5998   -1.8224   -1.4185 C.ar    1  LIG1       -0.0031
      2 C          -0.7956   -1.9242   -0.3207 C.ar    1  LIG1        0.0323
      3 C          -0.4577   -0.6431    0.2216 C.ar    1  LIG1       -0.0257
      4 C          -1.0051    0.4057   -0.4687 C.ar    1  LIG1        0.0295
      5 S          -1.9484   -0.1730   -1.8127 S.2     1  LIG1       -0.0942
      6 H          -2.0233   -2.6241   -2.0056 H       1  LIG1        0.0712
      7 N          -0.3928   -3.1153    0.2891 N.pl3   1  LIG1       -0.3575
      8 H          -0.4638   -3.9279   -0.3065 H       1  LIG1        0.1423
      9 H           0.5190   -3.0652    0.7212 H       1  LIG1        0.1423
     10 H           0.1132   -0.5133    1.1337 H       1  LIG1        0.0647
     11 C          -0.8469    1.8227   -0.2024 C.ar    1  LIG1        0.0471
     12 C           0.2770    2.4573    0.2748 C.ar    1  LIG1        0.0406
     13 C           0.0913    3.8634    0.4323 C.ar    1  LIG1       -0.0250
     14 C          -1.1574    4.2973    0.0710 C.ar    1  LIG1        0.0301
     15 S          -2.1380    2.9680   -0.4737 S.2     1  LIG1       -0.0853
     16 N           1.4670    1.8186    0.6177 N.pl3   1  LIG1       -0.3570
     17 H           1.5908    0.9263    0.1558 H       1  LIG1        0.1424
     18 H           2.2847    2.4041    0.5191 H       1  LIG1        0.1424
     19 H           0.8413    4.5180    0.8607 H       1  LIG1        0.0648
     20 C          -1.6635    5.6546    0.0917 C.ar    1  LIG1        0.0472
     21 C          -0.9546    6.8092   -0.1537 C.ar    1  LIG1        0.0406
     22 C          -1.7582    7.9828   -0.0409 C.ar    1  LIG1       -0.0250
     23 C          -3.0656    7.7257    0.2770 C.ar    1  LIG1        0.0301
     24 S          -3.3362    6.0168    0.4454 S.2     1  LIG1       -0.0853
     25 N           0.4068    6.8618   -0.4429 N.pl3   1  LIG1       -0.3570
     26 H           0.7675    6.0045   -0.8423 H       1  LIG1        0.1424
     27 H           0.6743    7.6675   -0.9911 H       1  LIG1        0.1424
     28 H          -1.3618    8.9872   -0.1349 H       1  LIG1        0.0648
     29 C          -4.1393    8.6856    0.4476 C.ar    1  LIG1        0.0465
     30 C          -4.3191    9.8603   -0.2486 C.ar    1  LIG1        0.0400
     31 C          -5.4898   10.5680    0.1692 C.ar    1  LIG1       -0.0334
     32 C          -6.1704    9.9284    1.1546 C.ar    1  LIG1       -0.0219
     33 S          -5.4115    8.4586    1.6221 S.2     1  LIG1       -0.0942
     34 H          -7.0801   10.2486    1.6416 H       1  LIG1        0.0694
     35 N          -3.4636   10.3429   -1.2369 N.pl3   1  LIG1       -0.3571
     36 H          -2.9130    9.6174   -1.6792 H       1  LIG1        0.1424
     37 H          -3.9271   10.9214   -1.9241 H       1  LIG1        0.1424
     38 H          -5.7954   11.5154   -0.2589 H       1  LIG1        0.0641
@<TRIPOS>BOND
     1     6     1    1
     2    37    35    1
     3     5     1   ar
     4     5     4   ar
     5    36    35    1
     6     1     2   ar
     7    35    30    1
     8    27    25    1
     9    26    25    1
    10    15    11   ar
    11    15    14   ar
    12     4    11    1
    13     4     3   ar
    14    25    21    1
    15     2     3   ar
    16     2     7    1
    17     8     7    1
    18    38    31    1
    19    30    31   ar
    20    30    29   ar
    21    11    12   ar
    22    21    22   ar
    23    21    20   ar
    24    28    22    1
    25    22    23   ar
    26    14    20    1
    27    14    13   ar
    28    20    24   ar
    29    17    16    1
    30    31    32   ar
    31     3    10    1
    32    12    13   ar
    33    12    16    1
    34    23    24   ar
    35    23    29    1
    36     7     9    1
    37    13    19    1
    38    29    33   ar
    39    18    16    1
    40    32    33   ar
    41    32    34    1
