@<TRIPOS>MOLECULE
mol_data/opt/cam/geoms/mol2/5ha5ha-5ha-.out
 29 31 0 0 0
SMALL
GASTEIGER

@<TRIPOS>ATOM
      1 C          -1.8698   -1.8259   -0.9450 C.ar    1  LIG1       -0.0031
      2 C          -0.8026   -1.8728   -0.0958 C.ar    1  LIG1        0.0323
      3 C          -0.3646   -0.5664    0.2931 C.ar    1  LIG1       -0.0257
      4 C          -1.0993    0.4462   -0.2644 C.ar    1  LIG1        0.0295
      5 S          -2.3491   -0.1986   -1.2906 S.2     1  LIG1       -0.0942
      6 H          -2.4136   -2.6561   -1.3715 H       1  LIG1        0.0712
      7 N          -0.2248   -3.0329    0.4268 N.pl3   1  LIG1       -0.3575
      8 H          -0.4313   -3.8695   -0.1002 H       1  LIG1        0.1423
      9 H           0.7673   -2.9531    0.5999 H       1  LIG1        0.1423
     10 H           0.4232   -0.3922    1.0168 H       1  LIG1        0.0647
     11 C          -0.9107    1.8749   -0.0982 C.ar    1  LIG1        0.0471
     12 C           0.2837    2.5437    0.0410 C.ar    1  LIG1        0.0406
     13 C           0.1113    3.9524    0.1942 C.ar    1  LIG1       -0.0250
     14 C          -1.1981    4.3524    0.1634 C.ar    1  LIG1        0.0301
     15 S          -2.2553    2.9895   -0.0550 S.2     1  LIG1       -0.0853
     16 N           1.5374    1.9368    0.0770 N.pl3   1  LIG1       -0.3570
     17 H           1.5562    1.0279   -0.3684 H       1  LIG1        0.1424
     18 H           2.2848    2.5292   -0.2570 H       1  LIG1        0.1424
     19 H           0.9313    4.6359    0.3812 H       1  LIG1        0.0648
     20 C          -1.7129    5.7042    0.2724 C.ar    1  LIG1        0.0465
     21 C          -1.1337    6.8537   -0.2169 C.ar    1  LIG1        0.0400
     22 C          -1.9144    8.0194    0.0618 C.ar    1  LIG1       -0.0334
     23 C          -3.0558    7.7407    0.7421 C.ar    1  LIG1       -0.0219
     24 S          -3.2174    6.0635    1.0830 S.2     1  LIG1       -0.0942
     25 H          -3.8129    8.4373    1.0721 H       1  LIG1        0.0694
     26 N           0.0852    6.9106   -0.8903 N.pl3   1  LIG1       -0.3571
     27 H           0.3432    6.0335   -1.3253 H       1  LIG1        0.1424
     28 H           0.1479    7.6772   -1.5462 H       1  LIG1        0.1424
     29 H          -1.6196    9.0177   -0.2397 H       1  LIG1        0.0641
@<TRIPOS>BOND
     1    28    26    1
     2     6     1    1
     3    27    26    1
     4     5     1   ar
     5     5     4   ar
     6     1     2   ar
     7    26    21    1
     8    17    16    1
     9     4    11    1
    10     4     3   ar
    11    18    16    1
    12    29    22    1
    13    21    22   ar
    14    21    20   ar
    15     8     7    1
    16    11    15   ar
    17    11    12   ar
    18     2     3   ar
    19     2     7    1
    20    15    14   ar
    21    12    16    1
    22    12    13   ar
    23    22    23   ar
    24    14    13   ar
    25    14    20    1
    26    13    19    1
    27    20    24   ar
    28     3    10    1
    29     7     9    1
    30    23    25    1
    31    23    24   ar
