@<TRIPOS>MOLECULE
mol_data/opt/cam/geoms/mol2/5ha5ha5ha-.out
 29 31 0 0 0
SMALL
GASTEIGER

@<TRIPOS>ATOM
      1 C          -1.8615   -1.8285   -0.9477 C.ar    1  LIG1       -0.0031
      2 C          -0.8022   -1.8730   -0.0885 C.ar    1  LIG1        0.0323
      3 C          -0.3678   -0.5656    0.3007 C.ar    1  LIG1       -0.0257
      4 C          -1.0972    0.4455   -0.2664 C.ar    1  LIG1        0.0295
      5 S          -2.3374   -0.2021   -1.3024 S.2     1  LIG1       -0.0942
      6 H          -2.4012   -2.6599   -1.3769 H       1  LIG1        0.0712
      7 N          -0.2294   -3.0316    0.4427 N.pl3   1  LIG1       -0.3575
      8 H          -0.4309   -3.8698   -0.0837 H       1  LIG1        0.1423
      9 H           0.7611   -2.9514    0.6248 H       1  LIG1        0.1423
     10 H           0.4133   -0.3893    1.0312 H       1  LIG1        0.0647
     11 C          -0.9100    1.8746   -0.1025 C.ar    1  LIG1        0.0471
     12 C           0.2830    2.5439    0.0458 C.ar    1  LIG1        0.0406
     13 C           0.1093    3.9529    0.1934 C.ar    1  LIG1       -0.0250
     14 C          -1.1998    4.3530    0.1494 C.ar    1  LIG1        0.0301
     15 S          -2.2550    2.9895   -0.0750 S.2     1  LIG1       -0.0853
     16 N           1.5363    1.9370    0.0952 N.pl3   1  LIG1       -0.3570
     17 H           1.5592    1.0268   -0.3474 H       1  LIG1        0.1424
     18 H           2.2868    2.5285   -0.2336 H       1  LIG1        0.1424
     19 H           0.9275    4.6370    0.3861 H       1  LIG1        0.0648
     20 C          -1.7155    5.7050    0.2497 C.ar    1  LIG1        0.0465
     21 C          -1.1317    6.8532   -0.2375 C.ar    1  LIG1        0.0400
     22 C          -1.9150    8.0196    0.0307 C.ar    1  LIG1       -0.0334
     23 C          -3.0626    7.7429    0.7012 C.ar    1  LIG1       -0.0219
     24 S          -3.2274    6.0666    1.0453 S.2     1  LIG1       -0.0942
     25 H          -3.8227    8.4405    1.0221 H       1  LIG1        0.0694
     26 N           0.0934    6.9081   -0.8996 N.pl3   1  LIG1       -0.3571
     27 H           0.3553    6.0297   -1.3298 H       1  LIG1        0.1424
     28 H           0.1622    7.6728   -1.5571 H       1  LIG1        0.1424
     29 H          -1.6173    9.0171   -0.2709 H       1  LIG1        0.0641
@<TRIPOS>BOND
     1    28    26    1
     2     6     1    1
     3    27    26    1
     4     5     1   ar
     5     5     4   ar
     6     1     2   ar
     7    26    21    1
     8    17    16    1
     9    29    22    1
    10     4    11    1
    11     4     3   ar
    12    21    22   ar
    13    21    20   ar
    14    18    16    1
    15    11    15   ar
    16    11    12   ar
    17     2     3   ar
    18     2     7    1
    19     8     7    1
    20    15    14   ar
    21    22    23   ar
    22    12    16    1
    23    12    13   ar
    24    14    13   ar
    25    14    20    1
    26    13    19    1
    27    20    24   ar
    28     3    10    1
    29     7     9    1
    30    23    25    1
    31    23    24   ar
