@<TRIPOS>MOLECULE
mol_data/opt/cam/geoms/mol2/5ha5ha-5ha5ha.out
 38 41 0 0 0
SMALL
GASTEIGER

@<TRIPOS>ATOM
      1 C          -1.6087   -1.8210   -1.4175 C.ar    1  LIG1       -0.0031
      2 C          -0.7975   -1.9239   -0.3249 C.ar    1  LIG1        0.0323
      3 C          -0.4562   -0.6433    0.2165 C.ar    1  LIG1       -0.0257
      4 C          -1.0079    0.4062   -0.4693 C.ar    1  LIG1        0.0295
      5 S          -1.9597   -0.1712   -1.8079 S.2     1  LIG1       -0.0942
      6 H          -2.0360   -2.6221   -2.0027 H       1  LIG1        0.0712
      7 N          -0.3910   -3.1156    0.2812 N.pl3   1  LIG1       -0.3575
      8 H          -0.4658   -3.9277   -0.3147 H       1  LIG1        0.1423
      9 H           0.5236   -3.0660    0.7076 H       1  LIG1        0.1423
     10 H           0.1204   -0.5144    1.1251 H       1  LIG1        0.0647
     11 C          -0.8479    1.8229   -0.2026 C.ar    1  LIG1        0.0471
     12 C           0.2791    2.4570    0.2681 C.ar    1  LIG1        0.0406
     13 C           0.0945    3.8629    0.4281 C.ar    1  LIG1       -0.0250
     14 C          -1.1565    4.2972    0.0752 C.ar    1  LIG1        0.0301
     15 S          -2.1407    2.9686   -0.4647 S.2     1  LIG1       -0.0853
     16 N           1.4711    1.8178    0.6028 N.pl3   1  LIG1       -0.3570
     17 H           1.5920    0.9260    0.1392 H       1  LIG1        0.1424
     18 H           2.2882    2.4034    0.4996 H       1  LIG1        0.1424
     19 H           0.8472    4.5171    0.8524 H       1  LIG1        0.0648
     20 C          -1.6624    5.6546    0.1004 C.ar    1  LIG1        0.0472
     21 C          -0.9550    6.8094   -0.1483 C.ar    1  LIG1        0.0406
     22 C          -1.7578    7.9829   -0.0294 C.ar    1  LIG1       -0.0250
     23 C          -3.0631    7.7255    0.2965 C.ar    1  LIG1        0.0301
     24 S          -3.3328    6.0165    0.4651 S.2     1  LIG1       -0.0853
     25 N           0.4046    6.8622   -0.4461 N.pl3   1  LIG1       -0.3570
     26 H           0.7626    6.0052   -0.8487 H       1  LIG1        0.1424
     27 H           0.6687    7.6683   -0.9951 H       1  LIG1        0.1424
     28 H          -1.3619    8.9873   -0.1249 H       1  LIG1        0.0648
     29 C          -4.1357    8.6853    0.4749 C.ar    1  LIG1        0.0465
     30 C          -4.3199    9.8607   -0.2191 C.ar    1  LIG1        0.0400
     31 C          -5.4878   10.5680    0.2068 C.ar    1  LIG1       -0.0334
     32 C          -6.1622    9.9276    1.1959 C.ar    1  LIG1       -0.0219
     33 S          -5.4005    8.4573    1.6572 S.2     1  LIG1       -0.0942
     34 H          -7.0688   10.2473    1.6890 H       1  LIG1        0.0694
     35 N          -3.4706   10.3442   -1.2123 N.pl3   1  LIG1       -0.3571
     36 H          -2.9229    9.6191   -1.6587 H       1  LIG1        0.1424
     37 H          -3.9384   10.9234   -1.8960 H       1  LIG1        0.1424
     38 H          -5.7961   11.5159   -0.2184 H       1  LIG1        0.0641
@<TRIPOS>BOND
     1     6     1    1
     2    37    35    1
     3     5     1   ar
     4     5     4   ar
     5    36    35    1
     6     1     2   ar
     7    35    30    1
     8    27    25    1
     9    26    25    1
    10     4    11    1
    11     4     3   ar
    12    15    11   ar
    13    15    14   ar
    14    25    21    1
    15     2     3   ar
    16     2     7    1
    17     8     7    1
    18    30    31   ar
    19    30    29   ar
    20    38    31    1
    21    11    12   ar
    22    21    22   ar
    23    21    20   ar
    24    28    22    1
    25    22    23   ar
    26    14    20    1
    27    14    13   ar
    28    20    24   ar
    29    17    16    1
    30    31    32   ar
    31     3    10    1
    32    12    13   ar
    33    12    16    1
    34     7     9    1
    35    23    24   ar
    36    23    29    1
    37    13    19    1
    38    29    33   ar
    39    18    16    1
    40    32    33   ar
    41    32    34    1
