@<TRIPOS>MOLECULE
mol_data/opt/cam/geoms/mol2/5ha5ha-5ha-5ha.out
 38 41 0 0 0
SMALL
GASTEIGER

@<TRIPOS>ATOM
      1 C          -1.5984   -1.8200   -1.4253 C.ar    1  LIG1       -0.0031
      2 C          -0.7957   -1.9237   -0.3266 C.ar    1  LIG1        0.0323
      3 C          -0.4584   -0.6436    0.2183 C.ar    1  LIG1       -0.0257
      4 C          -1.0048    0.4065   -0.4710 C.ar    1  LIG1        0.0295
      5 S          -1.9463   -0.1699   -1.8173 S.2     1  LIG1       -0.0942
      6 H          -2.0213   -2.6207   -2.0143 H       1  LIG1        0.0712
      7 N          -0.3939   -3.1159    0.2818 N.pl3   1  LIG1       -0.3575
      8 H          -0.4642   -3.9275   -0.3153 H       1  LIG1        0.1423
      9 H           0.5173   -3.0666    0.7152 H       1  LIG1        0.1423
     10 H           0.1112   -0.5153    1.1314 H       1  LIG1        0.0647
     11 C          -0.8468    1.8230   -0.2021 C.ar    1  LIG1        0.0471
     12 C           0.2766    2.4567    0.2777 C.ar    1  LIG1        0.0406
     13 C           0.0908    3.8625    0.4373 C.ar    1  LIG1       -0.0250
     14 C          -1.1573    4.2971    0.0750 C.ar    1  LIG1        0.0301
     15 S          -2.1374    2.9689   -0.4733 S.2     1  LIG1       -0.0853
     16 N           1.4660    1.8172    0.6212 N.pl3   1  LIG1       -0.3570
     17 H           1.5904    0.9257    0.1579 H       1  LIG1        0.1424
     18 H           2.2838    2.4028    0.5247 H       1  LIG1        0.1424
     19 H           0.8403    4.5163    0.8678 H       1  LIG1        0.0648
     20 C          -1.6633    5.6545    0.0972 C.ar    1  LIG1        0.0472
     21 C          -0.9539    6.8094   -0.1452 C.ar    1  LIG1        0.0406
     22 C          -1.7576    7.9829   -0.0317 C.ar    1  LIG1       -0.0250
     23 C          -3.0654    7.7254    0.2840 C.ar    1  LIG1        0.0301
     24 S          -3.3364    6.0163    0.4493 S.2     1  LIG1       -0.0853
     25 N           0.4079    6.8623   -0.4325 N.pl3   1  LIG1       -0.3570
     26 H           0.7690    6.0056   -0.8328 H       1  LIG1        0.1424
     27 H           0.6763    7.6688   -0.9789 H       1  LIG1        0.1424
     28 H          -1.3609    8.9874   -0.1234 H       1  LIG1        0.0648
     29 C          -4.1393    8.6851    0.4547 C.ar    1  LIG1        0.0465
     30 C          -4.3180    9.8610   -0.2398 C.ar    1  LIG1        0.0400
     31 C          -5.4891   10.5682    0.1776 C.ar    1  LIG1       -0.0334
     32 C          -6.1712    9.9271    1.1610 C.ar    1  LIG1       -0.0219
     33 S          -5.4131    8.4564    1.6271 S.2     1  LIG1       -0.0942
     34 H          -7.0815   10.2466    1.6473 H       1  LIG1        0.0694
     35 N          -3.4611   10.3451   -1.2261 N.pl3   1  LIG1       -0.3571
     36 H          -2.9100    9.6204   -1.6688 H       1  LIG1        0.1424
     37 H          -3.9235   10.9249   -1.9130 H       1  LIG1        0.1424
     38 H          -5.7940   11.5164   -0.2494 H       1  LIG1        0.0641
@<TRIPOS>BOND
     1     6     1    1
     2    37    35    1
     3     5     1   ar
     4     5     4   ar
     5    36    35    1
     6     1     2   ar
     7    35    30    1
     8    27    25    1
     9    26    25    1
    10    15    11   ar
    11    15    14   ar
    12     4    11    1
    13     4     3   ar
    14    25    21    1
    15     2     3   ar
    16     2     7    1
    17     8     7    1
    18    38    31    1
    19    30    31   ar
    20    30    29   ar
    21    11    12   ar
    22    21    22   ar
    23    21    20   ar
    24    28    22    1
    25    22    23   ar
    26    14    20    1
    27    14    13   ar
    28    20    24   ar
    29    17    16    1
    30    31    32   ar
    31     3    10    1
    32    12    13   ar
    33    12    16    1
    34     7     9    1
    35    23    24   ar
    36    23    29    1
    37    13    19    1
    38    29    33   ar
    39    18    16    1
    40    32    33   ar
    41    32    34    1
