@<TRIPOS>MOLECULE
mol_data/opt/cam/geoms/mol2/5ha5ha5ha5ha.out
 38 41 0 0 0
SMALL
GASTEIGER

@<TRIPOS>ATOM
      1 C          -1.5976   -1.8252   -1.4155 C.ar    1  LIG1       -0.0031
      2 C          -0.7953   -1.9247   -0.3162 C.ar    1  LIG1        0.0323
      3 C          -0.4582   -0.6425    0.2240 C.ar    1  LIG1       -0.0257
      4 C          -1.0044    0.4049   -0.4694 C.ar    1  LIG1        0.0295
      5 S          -1.9454   -0.1766   -1.8138 S.2     1  LIG1       -0.0942
      6 H          -2.0202   -2.6281   -2.0017 H       1  LIG1        0.0712
      7 N          -0.3936   -3.1145    0.2969 N.pl3   1  LIG1       -0.3575
      8 H          -0.4637   -3.9284   -0.2972 H       1  LIG1        0.1423
      9 H           0.5175   -3.0636    0.7304 H       1  LIG1        0.1423
     10 H           0.1111   -0.5108    1.1368 H       1  LIG1        0.0647
     11 C          -0.8465    1.8224   -0.2059 C.ar    1  LIG1        0.0471
     12 C           0.2767    2.4580    0.2719 C.ar    1  LIG1        0.0406
     13 C           0.0908    3.8644    0.4261 C.ar    1  LIG1       -0.0250
     14 C          -1.1572    4.2976    0.0619 C.ar    1  LIG1        0.0301
     15 S          -2.1371    2.9673   -0.4818 S.2     1  LIG1       -0.0853
     16 N           1.4660    1.8198    0.6181 N.pl3   1  LIG1       -0.3570
     17 H           1.5906    0.9266    0.1583 H       1  LIG1        0.1424
     18 H           2.2839    2.4051    0.5197 H       1  LIG1        0.1424
     19 H           0.8401    4.5198    0.8544 H       1  LIG1        0.0648
     20 C          -1.6633    5.6550    0.0788 C.ar    1  LIG1        0.0472
     21 C          -0.9539    6.8091   -0.1678 C.ar    1  LIG1        0.0406
     22 C          -1.7576    7.9830   -0.0589 C.ar    1  LIG1       -0.0250
     23 C          -3.0655    7.7266    0.2573 C.ar    1  LIG1        0.0301
     24 S          -3.3365    6.0180    0.4290 S.2     1  LIG1       -0.0853
     25 N           0.4080    6.8610   -0.4548 N.pl3   1  LIG1       -0.3570
     26 H           0.7693    6.0028   -0.8518 H       1  LIG1        0.1424
     27 H           0.6765    7.6654   -1.0042 H       1  LIG1        0.1424
     28 H          -1.3609    8.9871   -0.1543 H       1  LIG1        0.0648
     29 C          -4.1395    8.6869    0.4241 C.ar    1  LIG1        0.0465
     30 C          -4.3181    9.8601   -0.2749 C.ar    1  LIG1        0.0400
     31 C          -5.4893   10.5688    0.1395 C.ar    1  LIG1       -0.0334
     32 C          -6.1717    9.9314    1.1251 C.ar    1  LIG1       -0.0219
     33 S          -5.4137    8.4625    1.5970 S.2     1  LIG1       -0.0942
     34 H          -7.0821   10.2526    1.6099 H       1  LIG1        0.0694
     35 N          -3.4609   10.3406   -1.2627 N.pl3   1  LIG1       -0.3571
     36 H          -2.9096    9.6141   -1.7025 H       1  LIG1        0.1424
     37 H          -3.9231   10.9177   -1.9520 H       1  LIG1        0.1424
     38 H          -5.7942   11.5154   -0.2912 H       1  LIG1        0.0641
@<TRIPOS>BOND
     1     6     1    1
     2    37    35    1
     3     5     1   ar
     4     5     4   ar
     5    36    35    1
     6     1     2   ar
     7    35    30    1
     8    27    25    1
     9    26    25    1
    10    15    11   ar
    11    15    14   ar
    12     4    11    1
    13     4     3   ar
    14    25    21    1
    15     2     3   ar
    16     2     7    1
    17     8     7    1
    18    38    31    1
    19    30    31   ar
    20    30    29   ar
    21    11    12   ar
    22    21    22   ar
    23    21    20   ar
    24    28    22    1
    25    22    23   ar
    26    14    20    1
    27    14    13   ar
    28    20    24   ar
    29    31    32   ar
    30    17    16    1
    31     3    10    1
    32    23    29    1
    33    23    24   ar
    34    12    13   ar
    35    12    16    1
    36     7     9    1
    37    29    33   ar
    38    13    19    1
    39    18    16    1
    40    32    33   ar
    41    32    34    1
