@<TRIPOS>MOLECULE
mol_data/opt/cam/geoms/mol2/5ha5ha-.out
 20 21 0 0 0
SMALL
GASTEIGER

@<TRIPOS>ATOM
      1 C          -2.0332   -1.7729   -0.4850 C.ar    1  LIG1       -0.0031
      2 C          -0.7628   -1.7888    0.0128 C.ar    1  LIG1        0.0323
      3 C          -0.2646   -0.4696    0.2614 C.ar    1  LIG1       -0.0257
      4 C          -1.1570    0.5204   -0.0512 C.ar    1  LIG1        0.0294
      5 S          -2.6354   -0.1601   -0.6675 S.2     1  LIG1       -0.0942
      6 H          -2.6557   -2.6187   -0.7381 H       1  LIG1        0.0712
      7 N          -0.0263   -2.9312    0.3370 N.pl3   1  LIG1       -0.3575
      8 H          -0.3562   -3.7749   -0.1098 H       1  LIG1        0.1423
      9 H           0.9704   -2.8244    0.2109 H       1  LIG1        0.1423
     10 H           0.6978   -0.2712    0.7188 H       1  LIG1        0.0647
     11 C          -0.9642    1.9556    0.0587 C.ar    1  LIG1        0.0465
     12 C           0.1952    2.6566   -0.1824 C.ar    1  LIG1        0.0400
     13 C           0.0326    4.0647    0.0125 C.ar    1  LIG1       -0.0334
     14 C          -1.2269    4.4043    0.3881 C.ar    1  LIG1       -0.0219
     15 S          -2.2530    3.0323    0.5361 S.2     1  LIG1       -0.0942
     16 H          -1.6083    5.3933    0.5972 H       1  LIG1        0.0694
     17 N           1.4129    2.0860   -0.5504 N.pl3   1  LIG1       -0.3571
     18 H           1.3123    1.1714   -0.9731 H       1  LIG1        0.1424
     19 H           1.9855    2.6926   -1.1216 H       1  LIG1        0.1424
     20 H           0.8355    4.7796   -0.1246 H       1  LIG1        0.0641
@<TRIPOS>BOND
     1    19    17    1
     2    18    17    1
     3     6     1    1
     4     5     1   ar
     5     5     4   ar
     6    17    12    1
     7     1     2   ar
     8    12    13   ar
     9    12    11   ar
    10    20    13    1
    11     8     7    1
    12     4    11    1
    13     4     3   ar
    14    13    14   ar
    15     2     3   ar
    16     2     7    1
    17    11    15   ar
    18     9     7    1
    19     3    10    1
    20    14    15   ar
    21    14    16    1
