@<TRIPOS>MOLECULE
mol_data/opt/cam/geoms/mol2/5ha5ha5ha-5ha-.out
 38 41 0 0 0
SMALL
GASTEIGER

@<TRIPOS>ATOM
      1 C          -1.5886   -1.8266   -1.4166 C.ar    1  LIG1       -0.0031
      2 C          -0.7932   -1.9250   -0.3120 C.ar    1  LIG1        0.0323
      3 C          -0.4597   -0.6422    0.2290 C.ar    1  LIG1       -0.0257
      4 C          -1.0016    0.4045   -0.4688 C.ar    1  LIG1        0.0295
      5 S          -1.9340   -0.1784   -1.8186 S.2     1  LIG1       -0.0942
      6 H          -2.0075   -2.6301   -2.0046 H       1  LIG1        0.0712
      7 N          -0.3954   -3.1142    0.3047 N.pl3   1  LIG1       -0.3575
      8 H          -0.4616   -3.9287   -0.2890 H       1  LIG1        0.1423
      9 H           0.5130   -3.0628    0.7439 H       1  LIG1        0.1423
     10 H           0.1038   -0.5096    1.1453 H       1  LIG1        0.0647
     11 C          -0.8455    1.8223   -0.2056 C.ar    1  LIG1        0.0471
     12 C           0.2746    2.4584    0.2786 C.ar    1  LIG1        0.0406
     13 C           0.0876    3.8649    0.4303 C.ar    1  LIG1       -0.0250
     14 C          -1.1581    4.2976    0.0577 C.ar    1  LIG1        0.0301
     15 S          -2.1344    2.9667   -0.4908 S.2     1  LIG1       -0.0853
     16 N           1.4617    1.8207    0.6330 N.pl3   1  LIG1       -0.3570
     17 H           1.5893    0.9270    0.1748 H       1  LIG1        0.1424
     18 H           2.2802    2.4059    0.5392 H       1  LIG1        0.1424
     19 H           0.8342    4.5208    0.8627 H       1  LIG1        0.0648
     20 C          -1.6644    5.6550    0.0701 C.ar    1  LIG1        0.0472
     21 C          -0.9535    6.8089   -0.1731 C.ar    1  LIG1        0.0406
     22 C          -1.7580    7.9828   -0.0704 C.ar    1  LIG1       -0.0250
     23 C          -3.0679    7.7267    0.2378 C.ar    1  LIG1        0.0301
     24 S          -3.3399    6.0182    0.4093 S.2     1  LIG1       -0.0853
     25 N           0.4101    6.8606   -0.4515 N.pl3   1  LIG1       -0.3570
     26 H           0.7740    6.0021   -0.8454 H       1  LIG1        0.1424
     27 H           0.6821    7.6646   -1.0000 H       1  LIG1        0.1424
     28 H          -1.3609    8.9869   -0.1643 H       1  LIG1        0.0648
     29 C          -4.1430    8.6870    0.3969 C.ar    1  LIG1        0.0465
     30 C          -4.3172    9.8596   -0.3043 C.ar    1  LIG1        0.0400
     31 C          -5.4911   10.5685    0.1019 C.ar    1  LIG1       -0.0334
     32 C          -6.1796    9.9320    1.0838 C.ar    1  LIG1       -0.0219
     33 S          -5.4245    8.4636    1.5618 S.2     1  LIG1       -0.0942
     34 H          -7.0932   10.2536    1.5625 H       1  LIG1        0.0694
     35 N          -3.4538   10.3392   -1.2872 N.pl3   1  LIG1       -0.3571
     36 H          -2.8997    9.6124   -1.7228 H       1  LIG1        0.1424
     37 H          -3.9117   10.9156   -1.9799 H       1  LIG1        0.1424
     38 H          -5.7933   11.5147   -0.3315 H       1  LIG1        0.0641
@<TRIPOS>BOND
     1     6     1    1
     2    37    35    1
     3     5     1   ar
     4     5     4   ar
     5    36    35    1
     6     1     2   ar
     7    35    30    1
     8    27    25    1
     9    26    25    1
    10    15    11   ar
    11    15    14   ar
    12     4    11    1
    13     4     3   ar
    14    25    21    1
    15    38    31    1
    16     2     3   ar
    17     2     7    1
    18    30    31   ar
    19    30    29   ar
    20     8     7    1
    21    11    12   ar
    22    21    22   ar
    23    21    20   ar
    24    28    22    1
    25    22    23   ar
    26    14    20    1
    27    14    13   ar
    28    20    24   ar
    29    31    32   ar
    30    17    16    1
    31     3    10    1
    32    23    29    1
    33    23    24   ar
    34    12    13   ar
    35    12    16    1
    36     7     9    1
    37    29    33   ar
    38    13    19    1
    39    18    16    1
    40    32    33   ar
    41    32    34    1
