@<TRIPOS>MOLECULE
mol_data/opt/cam/geoms/mol2/5ha5ha-5ha5ha-.out
 38 41 0 0 0
SMALL
GASTEIGER

@<TRIPOS>ATOM
      1 C          -1.6101   -1.8233   -1.4106 C.ar    1  LIG1       -0.0031
      2 C          -0.7973   -1.9243   -0.3190 C.ar    1  LIG1        0.0323
      3 C          -0.4553   -0.6428    0.2197 C.ar    1  LIG1       -0.0257
      4 C          -1.0082    0.4055   -0.4670 C.ar    1  LIG1        0.0295
      5 S          -1.9619   -0.1743   -1.8032 S.2     1  LIG1       -0.0942
      6 H          -2.0382   -2.6255   -1.9938 H       1  LIG1        0.0712
      7 N          -0.3897   -3.1150    0.2885 N.pl3   1  LIG1       -0.3575
      8 H          -0.4653   -3.9280   -0.3060 H       1  LIG1        0.1423
      9 H           0.5254   -3.0645    0.7134 H       1  LIG1        0.1423
     10 H           0.1226   -0.5123    1.1273 H       1  LIG1        0.0647
     11 C          -0.8480    1.8226   -0.2029 C.ar    1  LIG1        0.0471
     12 C           0.2796    2.4577    0.2651 C.ar    1  LIG1        0.0406
     13 C           0.0950    3.8638    0.4230 C.ar    1  LIG1       -0.0250
     14 C          -1.1565    4.2974    0.0712 C.ar    1  LIG1        0.0301
     15 S          -2.1413    2.9677   -0.4650 S.2     1  LIG1       -0.0853
     16 N           1.4722    1.8192    0.5991 N.pl3   1  LIG1       -0.3570
     17 H           1.5925    0.9267    0.1369 H       1  LIG1        0.1424
     18 H           2.2890    2.4048    0.4938 H       1  LIG1        0.1424
     19 H           0.8482    4.5188    0.8451 H       1  LIG1        0.0648
     20 C          -1.6626    5.6547    0.0948 C.ar    1  LIG1        0.0472
     21 C          -0.9557    6.8092   -0.1568 C.ar    1  LIG1        0.0406
     22 C          -1.7585    7.9828   -0.0387 C.ar    1  LIG1       -0.0250
     23 C          -3.0633    7.7258    0.2895 C.ar    1  LIG1        0.0301
     24 S          -3.3325    6.0170    0.4613 S.2     1  LIG1       -0.0853
     25 N           0.4034    6.8617   -0.4567 N.pl3   1  LIG1       -0.3570
     26 H           0.7610    6.0041   -0.8583 H       1  LIG1        0.1424
     27 H           0.6666    7.6670   -1.0075 H       1  LIG1        0.1424
     28 H          -1.3629    8.9871   -0.1365 H       1  LIG1        0.0648
     29 C          -4.1358    8.6857    0.4679 C.ar    1  LIG1        0.0465
     30 C          -4.3211    9.8599   -0.2278 C.ar    1  LIG1        0.0400
     31 C          -5.4885   10.5679    0.1987 C.ar    1  LIG1       -0.0334
     32 C          -6.1614    9.9290    1.1898 C.ar    1  LIG1       -0.0219
     33 S          -5.3988    8.4595    1.6524 S.2     1  LIG1       -0.0942
     34 H          -7.0673   10.2494    1.6837 H       1  LIG1        0.0694
     35 N          -3.4734   10.3419   -1.2230 N.pl3   1  LIG1       -0.3571
     36 H          -2.9262    9.6162   -1.6691 H       1  LIG1        0.1424
     37 H          -3.9422   10.9199   -1.9070 H       1  LIG1        0.1424
     38 H          -5.7975   11.5150   -0.2277 H       1  LIG1        0.0641
@<TRIPOS>BOND
     1     6     1    1
     2    37    35    1
     3     5     1   ar
     4     5     4   ar
     5    36    35    1
     6     1     2   ar
     7    35    30    1
     8    27    25    1
     9    26    25    1
    10     4    11    1
    11     4     3   ar
    12    15    11   ar
    13    15    14   ar
    14    25    21    1
    15     2     3   ar
    16     2     7    1
    17     8     7    1
    18    30    31   ar
    19    30    29   ar
    20    38    31    1
    21    11    12   ar
    22    21    22   ar
    23    21    20   ar
    24    28    22    1
    25    22    23   ar
    26    14    20    1
    27    14    13   ar
    28    20    24   ar
    29    17    16    1
    30    31    32   ar
    31     3    10    1
    32    12    13   ar
    33    12    16    1
    34     7     9    1
    35    23    24   ar
    36    23    29    1
    37    13    19    1
    38    29    33   ar
    39    18    16    1
    40    32    33   ar
    41    32    34    1
