@<TRIPOS>MOLECULE
mol_data/opt/cam/geoms/mol2/5ha5ha.out
 20 21 0 0 0
SMALL
GASTEIGER

@<TRIPOS>ATOM
      1 C          -2.0292   -1.7723   -0.4977 C.ar    1  LIG1       -0.0031
      2 C          -0.7642   -1.7891    0.0139 C.ar    1  LIG1        0.0323
      3 C          -0.2684   -0.4703    0.2689 C.ar    1  LIG1       -0.0257
      4 C          -1.1569    0.5203   -0.0526 C.ar    1  LIG1        0.0294
      5 S          -2.6288   -0.1591   -0.6854 S.2     1  LIG1       -0.0942
      6 H          -2.6492   -2.6176   -0.7582 H       1  LIG1        0.0712
      7 N          -0.0317   -2.9320    0.3451 N.pl3   1  LIG1       -0.3575
      8 H          -0.3571   -3.7753   -0.1059 H       1  LIG1        0.1423
      9 H           0.9663   -2.8255    0.2300 H       1  LIG1        0.1423
     10 H           0.6891   -0.2726    0.7369 H       1  LIG1        0.0647
     11 C          -0.9648    1.9553    0.0605 C.ar    1  LIG1        0.0465
     12 C           0.1974    2.6561   -0.1675 C.ar    1  LIG1        0.0400
     13 C           0.0333    4.0641    0.0268 C.ar    1  LIG1       -0.0334
     14 C          -1.2301    4.4039    0.3890 C.ar    1  LIG1       -0.0219
     15 S          -2.2582    3.0322    0.5248 S.2     1  LIG1       -0.0942
     16 H          -1.6133    5.3929    0.5948 H       1  LIG1        0.0694
     17 N           1.4188    2.0853   -0.5228 N.pl3   1  LIG1       -0.3571
     18 H           1.3225    1.1711   -0.9472 H       1  LIG1        0.1424
     19 H           1.9978    2.6921   -1.0872 H       1  LIG1        0.1424
     20 H           0.8379    4.7788   -0.1011 H       1  LIG1        0.0641
@<TRIPOS>BOND
     1    19    17    1
     2    18    17    1
     3     6     1    1
     4     5     1   ar
     5     5     4   ar
     6    17    12    1
     7     1     2   ar
     8    12    13   ar
     9    12    11   ar
    10     8     7    1
    11    20    13    1
    12     4    11    1
    13     4     3   ar
    14     2     3   ar
    15     2     7    1
    16    13    14   ar
    17    11    15   ar
    18     9     7    1
    19     3    10    1
    20    14    15   ar
    21    14    16    1
