@<TRIPOS>MOLECULE
mol_data/opt/cam/geoms/mol2/5ha5ha5ha.out
 29 31 0 0 0
SMALL
GASTEIGER

@<TRIPOS>ATOM
      1 C          -1.8654   -1.8304   -0.9372 C.ar    1  LIG1       -0.0031
      2 C          -0.8017   -1.8730   -0.0834 C.ar    1  LIG1        0.0323
      3 C          -0.3656   -0.5647    0.3009 C.ar    1  LIG1       -0.0257
      4 C          -1.0981    0.4451   -0.2645 C.ar    1  LIG1        0.0295
      5 S          -2.3434   -0.2049   -1.2928 S.2     1  LIG1       -0.0942
      6 H          -2.4072   -2.6628   -1.3620 H       1  LIG1        0.0712
      7 N          -0.2260   -3.0304    0.4472 N.pl3   1  LIG1       -0.3575
      8 H          -0.4301   -3.8697   -0.0765 H       1  LIG1        0.1423
      9 H           0.7654   -2.9497    0.6241 H       1  LIG1        0.1423
     10 H           0.4191   -0.3868    1.0271 H       1  LIG1        0.0647
     11 C          -0.9104    1.8746   -0.1045 C.ar    1  LIG1        0.0471
     12 C           0.2833    2.5443    0.0364 C.ar    1  LIG1        0.0406
     13 C           0.1100    3.9537    0.1820 C.ar    1  LIG1       -0.0250
     14 C          -1.1993    4.3533    0.1438 C.ar    1  LIG1        0.0301
     15 S          -2.2553    2.9892   -0.0724 S.2     1  LIG1       -0.0853
     16 N           1.5369    1.9378    0.0806 N.pl3   1  LIG1       -0.3570
     17 H           1.5577    1.0267   -0.3602 H       1  LIG1        0.1424
     18 H           2.2856    2.5287   -0.2533 H       1  LIG1        0.1424
     19 H           0.9292    4.6383    0.3691 H       1  LIG1        0.0648
     20 C          -1.7148    5.7055    0.2441 C.ar    1  LIG1        0.0465
     21 C          -1.1336    6.8528   -0.2484 C.ar    1  LIG1        0.0400
     22 C          -1.9158    8.0197    0.0214 C.ar    1  LIG1       -0.0334
     23 C          -3.0599    7.7441    0.6982 C.ar    1  LIG1       -0.0219
     24 S          -3.2226    6.0685    1.0466 S.2     1  LIG1       -0.0942
     25 H          -3.8184    8.4421    1.0216 H       1  LIG1        0.0694
     26 N           0.0880    6.9065   -0.9170 N.pl3   1  LIG1       -0.3571
     27 H           0.3479    6.0274   -1.3467 H       1  LIG1        0.1424
     28 H           0.1534    7.6700   -1.5764 H       1  LIG1        0.1424
     29 H          -1.6198    9.0165   -0.2838 H       1  LIG1        0.0641
@<TRIPOS>BOND
     1    28    26    1
     2     6     1    1
     3    27    26    1
     4     5     1   ar
     5     5     4   ar
     6     1     2   ar
     7    26    21    1
     8    17    16    1
     9    29    22    1
    10     4    11    1
    11     4     3   ar
    12    18    16    1
    13    21    22   ar
    14    21    20   ar
    15    11    15   ar
    16    11    12   ar
    17     2     3   ar
    18     2     7    1
    19     8     7    1
    20    15    14   ar
    21    22    23   ar
    22    12    16    1
    23    12    13   ar
    24    14    13   ar
    25    14    20    1
    26    13    19    1
    27    20    24   ar
    28     3    10    1
    29     7     9    1
    30    23    25    1
    31    23    24   ar
