@<TRIPOS>MOLECULE
mol_data/opt/cam/geoms/mol2/5ha5ha5ha5ha-.out
 38 41 0 0 0
SMALL
GASTEIGER

@<TRIPOS>ATOM
      1 C          -1.5990   -1.8275   -1.4086 C.ar    1  LIG1       -0.0031
      2 C          -0.7951   -1.9251   -0.3103 C.ar    1  LIG1        0.0323
      3 C          -0.4574   -0.6420    0.2272 C.ar    1  LIG1       -0.0257
      4 C          -1.0047    0.4042   -0.4671 C.ar    1  LIG1        0.0295
      5 S          -1.9477   -0.1796   -1.8091 S.2     1  LIG1       -0.0942
      6 H          -2.0225   -2.6315   -1.9927 H       1  LIG1        0.0712
      7 N          -0.3924   -3.1139    0.3042 N.pl3   1  LIG1       -0.3575
      8 H          -0.4632   -3.9288   -0.2884 H       1  LIG1        0.1423
      9 H           0.5194   -3.0621    0.7363 H       1  LIG1        0.1423
     10 H           0.1133   -0.5087    1.1390 H       1  LIG1        0.0647
     11 C          -0.8466    1.8222   -0.2061 C.ar    1  LIG1        0.0471
     12 C           0.2772    2.4587    0.2689 C.ar    1  LIG1        0.0406
     13 C           0.0914    3.8653    0.4210 C.ar    1  LIG1       -0.0250
     14 C          -1.1573    4.2978    0.0579 C.ar    1  LIG1        0.0301
     15 S          -2.1378    2.9664   -0.4821 S.2     1  LIG1       -0.0853
     16 N           1.4671    1.8212    0.6145 N.pl3   1  LIG1       -0.3570
     17 H           1.5911    0.9273    0.1560 H       1  LIG1        0.1424
     18 H           2.2847    2.4065    0.5139 H       1  LIG1        0.1424
     19 H           0.8412    4.5216    0.8471 H       1  LIG1        0.0648
     20 C          -1.6635    5.6552    0.0733 C.ar    1  LIG1        0.0472
     21 C          -0.9545    6.8089   -0.1763 C.ar    1  LIG1        0.0406
     22 C          -1.7582    7.9828   -0.0682 C.ar    1  LIG1       -0.0250
     23 C          -3.0657    7.7269    0.2504 C.ar    1  LIG1        0.0301
     24 S          -3.3362    6.0186    0.4253 S.2     1  LIG1       -0.0853
     25 N           0.4069    6.8604   -0.4654 N.pl3   1  LIG1       -0.3570
     26 H           0.7677    6.0016   -0.8615 H       1  LIG1        0.1424
     27 H           0.6745    7.6640   -1.0165 H       1  LIG1        0.1424
     28 H          -1.3619    8.9868   -0.1659 H       1  LIG1        0.0648
     29 C          -4.1395    8.6873    0.4171 C.ar    1  LIG1        0.0465
     30 C          -4.3192    9.8594   -0.2836 C.ar    1  LIG1        0.0400
     31 C          -5.4900   10.5686    0.1313 C.ar    1  LIG1       -0.0334
     32 C          -6.1708    9.9327    1.1189 C.ar    1  LIG1       -0.0219
     33 S          -5.4120    8.4647    1.5922 S.2     1  LIG1       -0.0942
     34 H          -7.0806   10.2547    1.6046 H       1  LIG1        0.0694
     35 N          -3.4635   10.3382   -1.2735 N.pl3   1  LIG1       -0.3571
     36 H          -2.9128    9.6112   -1.7129 H       1  LIG1        0.1424
     37 H          -3.9269   10.9141   -1.9630 H       1  LIG1        0.1424
     38 H          -5.7956   11.5144   -0.3005 H       1  LIG1        0.0641
@<TRIPOS>BOND
     1     6     1    1
     2    37    35    1
     3     5     1   ar
     4     5     4   ar
     5    36    35    1
     6     1     2   ar
     7    35    30    1
     8    27    25    1
     9    26    25    1
    10    15    11   ar
    11    15    14   ar
    12     4    11    1
    13     4     3   ar
    14    25    21    1
    15     2     3   ar
    16     2     7    1
    17    38    31    1
    18     8     7    1
    19    30    31   ar
    20    30    29   ar
    21    11    12   ar
    22    21    22   ar
    23    21    20   ar
    24    28    22    1
    25    22    23   ar
    26    14    20    1
    27    14    13   ar
    28    20    24   ar
    29    31    32   ar
    30    17    16    1
    31     3    10    1
    32    23    29    1
    33    23    24   ar
    34    12    13   ar
    35    12    16    1
    36     7     9    1
    37    29    33   ar
    38    13    19    1
    39    18    16    1
    40    32    33   ar
    41    32    34    1
