@<TRIPOS>MOLECULE
mol_data/opt/cam/geoms/mol2/5ha5ha-5ha.out
 29 31 0 0 0
SMALL
GASTEIGER

@<TRIPOS>ATOM
      1 C          -1.8737   -1.8278   -0.9345 C.ar    1  LIG1       -0.0031
      2 C          -0.8021   -1.8728   -0.0907 C.ar    1  LIG1        0.0323
      3 C          -0.3624   -0.5656    0.2932 C.ar    1  LIG1       -0.0257
      4 C          -1.1002    0.4458   -0.2625 C.ar    1  LIG1        0.0295
      5 S          -2.3550   -0.2013   -1.2810 S.2     1  LIG1       -0.0942
      6 H          -2.4194   -2.6590   -1.3565 H       1  LIG1        0.0712
      7 N          -0.2214   -3.0317    0.4312 N.pl3   1  LIG1       -0.3575
      8 H          -0.4304   -3.8695   -0.0929 H       1  LIG1        0.1423
      9 H           0.7716   -2.9514    0.5991 H       1  LIG1        0.1423
     10 H           0.4291   -0.3897    1.0125 H       1  LIG1        0.0647
     11 C          -0.9110    1.8748   -0.1001 C.ar    1  LIG1        0.0471
     12 C           0.2839    2.5442    0.0315 C.ar    1  LIG1        0.0406
     13 C           0.1120    3.9531    0.1827 C.ar    1  LIG1       -0.0250
     14 C          -1.1976    4.3529    0.1579 C.ar    1  LIG1        0.0301
     15 S          -2.2556    2.9893   -0.0523 S.2     1  LIG1       -0.0853
     16 N           1.5379    1.9376    0.0623 N.pl3   1  LIG1       -0.3570
     17 H           1.5547    1.0278   -0.3813 H       1  LIG1        0.1424
     18 H           2.2835    2.5295   -0.2768 H       1  LIG1        0.1424
     19 H           0.9328    4.6372    0.3641 H       1  LIG1        0.0648
     20 C          -1.7122    5.7048    0.2668 C.ar    1  LIG1        0.0465
     21 C          -1.1357    6.8534   -0.2279 C.ar    1  LIG1        0.0400
     22 C          -1.9153    8.0195    0.0525 C.ar    1  LIG1       -0.0334
     23 C          -3.0531    7.7419    0.7392 C.ar    1  LIG1       -0.0219
     24 S          -3.2125    6.0654    1.0843 S.2     1  LIG1       -0.0942
     25 H          -3.8085    8.4391    1.0717 H       1  LIG1        0.0694
     26 N           0.0797    6.9091   -0.9076 N.pl3   1  LIG1       -0.3571
     27 H           0.3356    6.0312   -1.3422 H       1  LIG1        0.1424
     28 H           0.1389    7.6744   -1.5654 H       1  LIG1        0.1424
     29 H          -1.6222    9.0172   -0.2526 H       1  LIG1        0.0641
@<TRIPOS>BOND
     1    28    26    1
     2     6     1    1
     3    27    26    1
     4     5     1   ar
     5     5     4   ar
     6     1     2   ar
     7    26    21    1
     8    17    16    1
     9    18    16    1
    10     4    11    1
    11     4     3   ar
    12    29    22    1
    13    21    22   ar
    14    21    20   ar
    15    11    15   ar
    16    11    12   ar
    17     8     7    1
    18     2     3   ar
    19     2     7    1
    20    15    14   ar
    21    12    16    1
    22    12    13   ar
    23    22    23   ar
    24    14    13   ar
    25    14    20    1
    26    13    19    1
    27    20    24   ar
    28     3    10    1
    29     7     9    1
    30    23    25    1
    31    23    24   ar
