@<TRIPOS>MOLECULE
mol_data/opt/cam/geoms/mol2/5hd.out
 12 12 0 0 0
SMALL
GASTEIGER

@<TRIPOS>ATOM
      1 C          -2.1296   -1.6923   -0.0417 C.ar    1  LIG1       -0.0024
      2 C          -0.7639   -1.6916   -0.0536 C.ar    1  LIG1        0.0492
      3 C          -0.2457   -0.3453   -0.0089 C.ar    1  LIG1        0.0793
      4 C          -1.2268    0.6075    0.0415 C.ar    1  LIG1       -0.0051
      5 S          -2.7818   -0.0927    0.0355 S.2     1  LIG1       -0.1019
      6 H          -2.7875   -2.5483   -0.0554 H       1  LIG1        0.0712
      7 H          -1.0909    1.6782    0.0761 H       1  LIG1        0.0707
      8 N           0.0678   -2.7976   -0.0464 N.pl3   1  LIG1       -0.3566
      9 H          -0.3333   -3.6504   -0.4048 H       1  LIG1        0.1424
     10 H           1.0073   -2.6351   -0.3800 H       1  LIG1        0.1424
     11 N           2.2971    0.0991   -0.0725 N.1     1  LIG1       -0.1908
     12 C           1.1521   -0.0685   -0.0353 C.1     1  LIG1        0.1015
@<TRIPOS>BOND
     1     9     8    1
     2    10     8    1
     3    11    12    3
     4     6     1    1
     5     2     8    1
     6     2     1   ar
     7     2     3   ar
     8     1     5   ar
     9    12     3    1
    10     3     4   ar
    11     5     4   ar
    12     4     7    1
