@<TRIPOS>MOLECULE
mol_data/opt/cam/geoms/mol2/5hd5hd-5hd.out
 32 34 0 0 0
SMALL
GASTEIGER

@<TRIPOS>ATOM
      1 C          -1.9702   -1.7094    1.0106 C.ar    1  LIG1       -0.0018
      2 C          -0.8824   -1.9192    0.2165 C.ar    1  LIG1        0.0499
      3 C          -0.3223   -0.6732   -0.2451 C.ar    1  LIG1        0.0876
      4 C          -0.9758    0.4499    0.2277 C.ar    1  LIG1        0.0469
      5 S          -2.2892   -0.0268    1.2471 S.2     1  LIG1       -0.0929
      6 H          -2.5949   -2.4520    1.4837 H       1  LIG1        0.0712
      7 N          -0.3148   -3.1382   -0.1074 N.pl3   1  LIG1       -0.3565
      8 H          -0.9167   -3.9409   -0.0053 H       1  LIG1        0.1424
      9 H           0.2215   -3.1578   -0.9632 H       1  LIG1        0.1424
     10 N           1.6715   -0.6310   -1.8795 N.1     1  LIG1       -0.1908
     11 C           0.7664   -0.6406   -1.1545 C.1     1  LIG1        0.1022
     12 C          -0.6994    1.8514   -0.0140 C.ar    1  LIG1        0.0497
     13 C           0.5056    2.5247   -0.0502 C.ar    1  LIG1        0.0583
     14 C           0.3106    3.9417   -0.2384 C.ar    1  LIG1        0.0883
     15 C          -1.0095    4.3396   -0.3072 C.ar    1  LIG1        0.0475
     16 S          -2.0441    2.9651   -0.1689 S.2     1  LIG1       -0.0839
     17 N           1.7612    2.0074    0.1352 N.pl3   1  LIG1       -0.3561
     18 H           1.9397    1.0668   -0.1821 H       1  LIG1        0.1424
     19 H           2.5261    2.6386   -0.0559 H       1  LIG1        0.1424
     20 N           2.3316    5.5243   -0.4809 N.1     1  LIG1       -0.1908
     21 C           1.4155    4.8191   -0.3890 C.1     1  LIG1        0.1022
     22 C          -1.5685    5.6636   -0.4848 C.ar    1  LIG1        0.0491
     23 C          -1.1960    6.8671    0.0908 C.ar    1  LIG1        0.0577
     24 C          -2.1144    7.9209   -0.2732 C.ar    1  LIG1        0.0800
     25 C          -3.1332    7.5063   -1.0817 C.ar    1  LIG1       -0.0045
     26 S          -3.0197    5.8492   -1.4517 S.2     1  LIG1       -0.0929
     27 H          -3.9248    8.1175   -1.4900 H       1  LIG1        0.0707
     28 N          -0.1763    7.0995    0.9732 N.pl3   1  LIG1       -0.3561
     29 H           0.6734    6.5641    0.8810 H       1  LIG1        0.1424
     30 H          -0.0149    8.0690    1.2063 H       1  LIG1        0.1424
     31 N          -1.7499   10.3265    0.5902 N.1     1  LIG1       -0.1908
     32 C          -1.9419    9.2582    0.1877 C.1     1  LIG1        0.1016
@<TRIPOS>BOND
     1    10    11    3
     2    27    25    1
     3    26    25   ar
     4    26    22   ar
     5    11     3    1
     6    25    24   ar
     7     9     7    1
     8    22    15    1
     9    22    23   ar
    10    20    21    3
    11    21    14    1
    12    15    14   ar
    13    15    16   ar
    14    24    23   ar
    15    24    32    1
    16     3     2   ar
    17     3     4   ar
    18    14    13   ar
    19    18    17    1
    20    16    12   ar
    21     7     8    1
    22     7     2    1
    23    19    17    1
    24    13    12   ar
    25    13    17    1
    26    12     4    1
    27    23    28    1
    28    32    31    3
    29     2     1   ar
    30     4     5   ar
    31    29    28    1
    32    28    30    1
    33     1     5   ar
    34     1     6    1
