@<TRIPOS>MOLECULE
mol_data/opt/cam/geoms/mol2/5hd5hd5hd-5hd.out
 42 45 0 0 0
SMALL
GASTEIGER

@<TRIPOS>ATOM
      1 C          -1.8859   -1.5390    1.5456 C.ar    1  LIG1       -0.0018
      2 C          -1.0445   -1.8506    0.5194 C.ar    1  LIG1        0.0499
      3 C          -0.5160   -0.6627   -0.1041 C.ar    1  LIG1        0.0876
      4 C          -0.9425    0.5177    0.4762 C.ar    1  LIG1        0.0469
      5 S          -2.0018    0.1673    1.7977 S.2     1  LIG1       -0.0929
      6 H          -2.4340   -2.2197    2.1795 H       1  LIG1        0.0712
      7 N          -0.6724   -3.1176    0.1079 N.pl3   1  LIG1       -0.3565
      8 H          -1.2932   -3.8645    0.3792 H       1  LIG1        0.1424
      9 H          -0.3642   -3.1939   -0.8510 H       1  LIG1        0.1424
     10 N           1.0154   -0.8110   -2.1732 N.1     1  LIG1       -0.1908
     11 C           0.3168   -0.7343   -1.2506 C.1     1  LIG1        0.1022
     12 C          -0.6222    1.8874    0.1291 C.ar    1  LIG1        0.0497
     13 C           0.5871    2.4547   -0.2210 C.ar    1  LIG1        0.0583
     14 C           0.4659    3.8802   -0.4058 C.ar    1  LIG1        0.0883
     15 C          -0.7953    4.3900   -0.1651 C.ar    1  LIG1        0.0475
     16 S          -1.8705    3.1100    0.2676 S.2     1  LIG1       -0.0839
     17 N           1.8046    1.8341   -0.3273 N.pl3   1  LIG1       -0.3561
     18 H           1.8241    0.8768   -0.6445 H       1  LIG1        0.1424
     19 H           2.5472    2.3938   -0.7214 H       1  LIG1        0.1424
     20 N           2.4839    5.2752   -1.1984 N.1     1  LIG1       -0.1908
     21 C           1.5659    4.6542   -0.8567 C.1     1  LIG1        0.1022
     22 C          -1.2757    5.7517   -0.2478 C.ar    1  LIG1        0.0497
     23 C          -0.6796    6.9323    0.1562 C.ar    1  LIG1        0.0583
     24 C          -1.5659    8.0563   -0.0248 C.ar    1  LIG1        0.0883
     25 C          -2.8144    7.7356   -0.5188 C.ar    1  LIG1        0.0475
     26 S          -2.9174    6.0353   -0.7974 S.2     1  LIG1       -0.0839
     27 N           0.5488    7.0989    0.7350 N.pl3   1  LIG1       -0.3561
     28 H           1.2960    6.4759    0.4691 H       1  LIG1        0.1424
     29 H           0.8519    8.0545    0.8564 H       1  LIG1        0.1424
     30 N          -0.7640   10.4510    0.4942 N.1     1  LIG1       -0.1908
     31 C          -1.1300    9.3799    0.2424 C.1     1  LIG1        0.1022
     32 C          -3.9391    8.5952   -0.8205 C.ar    1  LIG1        0.0491
     33 C          -4.4523    9.6669   -0.1075 C.ar    1  LIG1        0.0577
     34 C          -5.6695   10.1552   -0.7131 C.ar    1  LIG1        0.0800
     35 C          -6.0444    9.4621   -1.8278 C.ar    1  LIG1       -0.0045
     36 S          -4.9484    8.2163   -2.2041 S.2     1  LIG1       -0.0929
     37 H          -6.9053    9.6561   -2.4509 H       1  LIG1        0.0707
     38 N          -3.9969   10.1926    1.0699 N.pl3   1  LIG1       -0.3561
     39 H          -3.0042   10.1979    1.2475 H       1  LIG1        0.1424
     40 H          -4.4659   11.0301    1.3843 H       1  LIG1        0.1424
     41 N          -6.9238   12.1631    0.3163 N.1     1  LIG1       -0.1908
     42 C          -6.3860   11.2604   -0.1693 C.1     1  LIG1        0.1016
@<TRIPOS>BOND
     1    37    35    1
     2    36    35   ar
     3    36    32   ar
     4    10    11    3
     5    35    34   ar
     6    11     3    1
     7    20    21    3
     8    21    14    1
     9     9     7    1
    10    32    25    1
    11    32    33   ar
    12    26    25   ar
    13    26    22   ar
    14    19    17    1
    15    34    42    1
    16    34    33   ar
    17    18    17    1
    18    25    24   ar
    19    14    13   ar
    20    14    15   ar
    21    17    13    1
    22    22    15    1
    23    22    23   ar
    24    13    12   ar
    25    42    41    3
    26    15    16   ar
    27    33    38    1
    28     3     4   ar
    29     3     2   ar
    30    24    23   ar
    31    24    31    1
    32     7     8    1
    33     7     2    1
    34    12    16   ar
    35    12     4    1
    36    23    27    1
    37    31    30    3
    38    28    27    1
    39     4     5   ar
    40     2     1   ar
    41    27    29    1
    42    38    39    1
    43    38    40    1
    44     1     5   ar
    45     1     6    1
