@<TRIPOS>MOLECULE
mol_data/opt/cam/geoms/mol2/5hd5hd-5hd5hd.out
 42 45 0 0 0
SMALL
GASTEIGER

@<TRIPOS>ATOM
      1 C          -1.8494   -1.5391    1.5738 C.ar    1  LIG1       -0.0018
      2 C          -1.0296   -1.8503    0.5302 C.ar    1  LIG1        0.0499
      3 C          -0.5148   -0.6621   -0.1042 C.ar    1  LIG1        0.0876
      4 C          -0.9295    0.5181    0.4850 C.ar    1  LIG1        0.0469
      5 S          -1.9607    0.1672    1.8285 S.2     1  LIG1       -0.0929
      6 H          -2.3837   -2.2201    2.2191 H       1  LIG1        0.0712
      7 N          -0.6656   -3.1171    0.1109 N.pl3   1  LIG1       -0.3565
      8 H          -1.2803   -3.8644    0.3953 H       1  LIG1        0.1424
      9 H          -0.3776   -3.1933   -0.8542 H       1  LIG1        0.1424
     10 N           0.9729   -0.8097   -2.2050 N.1     1  LIG1       -0.1908
     11 C           0.2938   -0.7333   -1.2679 C.1     1  LIG1        0.1022
     12 C          -0.6172    1.8879    0.1313 C.ar    1  LIG1        0.0497
     13 C           0.5842    2.4557   -0.2441 C.ar    1  LIG1        0.0583
     14 C           0.4586    3.8812   -0.4263 C.ar    1  LIG1        0.0883
     15 C          -0.7975    4.3904   -0.1591 C.ar    1  LIG1        0.0475
     16 S          -1.8628    3.1099    0.2961 S.2     1  LIG1       -0.0839
     17 N           1.7995    1.8357   -0.3760 N.pl3   1  LIG1       -0.3561
     18 H           1.8127    0.8785   -0.6936 H       1  LIG1        0.1424
     19 H           2.5334    2.3957   -0.7856 H       1  LIG1        0.1424
     20 N           2.4589    5.2771   -1.2611 N.1     1  LIG1       -0.1908
     21 C           1.5485    4.6557   -0.9002 C.1     1  LIG1        0.1022
     22 C          -1.2802    5.7519   -0.2317 C.ar    1  LIG1        0.0497
     23 C          -0.6763    6.9328    0.1598 C.ar    1  LIG1        0.0583
     24 C          -1.5667    8.0564   -0.0025 C.ar    1  LIG1        0.0883
     25 C          -2.8252    7.7351   -0.4702 C.ar    1  LIG1        0.0475
     26 S          -2.9332    6.0348   -0.7467 S.2     1  LIG1       -0.0839
     27 N           0.5639    7.0999    0.7127 N.pl3   1  LIG1       -0.3561
     28 H           1.3056    6.4773    0.4311 H       1  LIG1        0.1424
     29 H           0.8691    8.0557    0.8278 H       1  LIG1        0.1424
     30 N          -0.7551   10.4515    0.4996 N.1     1  LIG1       -0.1908
     31 C          -1.1259    9.3802    0.2556 C.1     1  LIG1        0.1022
     32 C          -3.9563    8.5943   -0.7482 C.ar    1  LIG1        0.0491
     33 C          -4.4549    9.6657   -0.0245 C.ar    1  LIG1        0.0577
     34 C          -5.6848   10.1534   -0.6044 C.ar    1  LIG1        0.0800
     35 C          -6.0827    9.4603   -1.7109 C.ar    1  LIG1       -0.0045
     36 S          -4.9942    8.2150   -2.1102 S.2     1  LIG1       -0.0929
     37 H          -6.9566    9.6538   -2.3158 H       1  LIG1        0.0707
     38 N          -3.9751   10.1916    1.1431 N.pl3   1  LIG1       -0.3561
     39 H          -2.9789   10.1973    1.2998 H       1  LIG1        0.1424
     40 H          -4.4377   11.0289    1.4673 H       1  LIG1        0.1424
     41 N          -6.9180   12.1608    0.4512 N.1     1  LIG1       -0.1908
     42 C          -6.3902   11.2583   -0.0456 C.1     1  LIG1        0.1016
@<TRIPOS>BOND
     1    37    35    1
     2    10    11    3
     3    36    35   ar
     4    36    32   ar
     5    35    34   ar
     6    11     3    1
     7    20    21    3
     8    21    14    1
     9     9     7    1
    10    19    17    1
    11    32    25    1
    12    32    33   ar
    13    26    25   ar
    14    26    22   ar
    15    18    17    1
    16    34    42    1
    17    34    33   ar
    18    25    24   ar
    19    14    13   ar
    20    14    15   ar
    21    17    13    1
    22    13    12   ar
    23    22    15    1
    24    22    23   ar
    25    15    16   ar
    26     3     4   ar
    27     3     2   ar
    28    42    41    3
    29    33    38    1
    30    24    23   ar
    31    24    31    1
    32     7     8    1
    33     7     2    1
    34    12    16   ar
    35    12     4    1
    36    23    27    1
    37    31    30    3
    38    28    27    1
    39     4     5   ar
    40     2     1   ar
    41    27    29    1
    42    38    39    1
    43    38    40    1
    44     1     5   ar
    45     1     6    1
