@<TRIPOS>MOLECULE
mol_data/opt/cam/geoms/mol2/5hd5hd5hd-.out
 32 34 0 0 0
SMALL
GASTEIGER

@<TRIPOS>ATOM
      1 C          -1.9852   -1.7099    0.9889 C.ar    1  LIG1       -0.0018
      2 C          -0.8875   -1.9195    0.2085 C.ar    1  LIG1        0.0499
      3 C          -0.3210   -0.6734   -0.2450 C.ar    1  LIG1        0.0876
      4 C          -0.9800    0.4496    0.2206 C.ar    1  LIG1        0.0469
      5 S          -2.3064   -0.0274    1.2229 S.2     1  LIG1       -0.0929
      6 H          -2.6161   -2.4527    1.4534 H       1  LIG1        0.0712
      7 N          -0.3164   -3.1385   -0.1094 N.pl3   1  LIG1       -0.3565
      8 H          -0.9199   -3.9410   -0.0156 H       1  LIG1        0.1424
      9 H           0.2306   -3.1576   -0.9584 H       1  LIG1        0.1424
     10 N           1.6932   -0.6306   -1.8540 N.1     1  LIG1       -0.1908
     11 C           0.7790   -0.6405   -1.1404 C.1     1  LIG1        0.1022
     12 C          -0.6999    1.8512   -0.0164 C.ar    1  LIG1        0.0497
     13 C           0.5058    2.5240   -0.0368 C.ar    1  LIG1        0.0583
     14 C           0.3138    3.9413   -0.2261 C.ar    1  LIG1        0.0883
     15 C          -1.0051    4.3398   -0.3112 C.ar    1  LIG1        0.0475
     16 S          -2.0420    2.9657   -0.1872 S.2     1  LIG1       -0.0839
     17 N           1.7587    2.0059    0.1641 N.pl3   1  LIG1       -0.3561
     18 H           1.9407    1.0655   -0.1517 H       1  LIG1        0.1424
     19 H           2.5263    2.6369   -0.0168 H       1  LIG1        0.1424
     20 N           2.3384    5.5231   -0.4417 N.1     1  LIG1       -0.1908
     21 C           1.4210    4.8182   -0.3620 C.1     1  LIG1        0.1022
     22 C          -1.5612    5.6642   -0.4947 C.ar    1  LIG1        0.0491
     23 C          -1.1955    6.8670    0.0866 C.ar    1  LIG1        0.0577
     24 C          -2.1087    7.9216   -0.2880 C.ar    1  LIG1        0.0800
     25 C          -3.1174    7.5082   -1.1097 C.ar    1  LIG1       -0.0045
     26 S          -3.0000    5.8514   -1.4796 S.2     1  LIG1       -0.0929
     27 H          -3.9035    8.1201   -1.5274 H       1  LIG1        0.0707
     28 N          -0.1868    7.0982    0.9820 N.pl3   1  LIG1       -0.3561
     29 H           0.6636    6.5624    0.9001 H       1  LIG1        0.1424
     30 H          -0.0279    8.0674    1.2180 H       1  LIG1        0.1424
     31 N          -1.7541   10.3262    0.5821 N.1     1  LIG1       -0.1908
     32 C          -1.9414    9.2584    0.1762 C.1     1  LIG1        0.1016
@<TRIPOS>BOND
     1    10    11    3
     2    27    25    1
     3    26    25   ar
     4    26    22   ar
     5    11     3    1
     6    25    24   ar
     7     9     7    1
     8    22    15    1
     9    22    23   ar
    10    20    21    3
    11    21    14    1
    12    15    14   ar
    13    15    16   ar
    14    24    23   ar
    15    24    32    1
    16     3     2   ar
    17     3     4   ar
    18    14    13   ar
    19    16    12   ar
    20    18    17    1
    21     7     8    1
    22     7     2    1
    23    13    12   ar
    24    13    17    1
    25    19    17    1
    26    12     4    1
    27    23    28    1
    28    32    31    3
    29     2     1   ar
    30     4     5   ar
    31    29    28    1
    32    28    30    1
    33     1     5   ar
    34     1     6    1
