@<TRIPOS>MOLECULE
mol_data/opt/cam/geoms/mol2/5hd5hd5hd5hd-.out
 42 45 0 0 0
SMALL
GASTEIGER

@<TRIPOS>ATOM
      1 C          -1.8685   -1.5335    1.5704 C.ar    1  LIG1       -0.0018
      2 C          -1.0371   -1.8484    0.5371 C.ar    1  LIG1        0.0499
      3 C          -0.5150   -0.6626   -0.0957 C.ar    1  LIG1        0.0876
      4 C          -0.9363    0.5198    0.4847 C.ar    1  LIG1        0.0469
      5 S          -1.9824    0.1737    1.8177 S.2     1  LIG1       -0.0929
      6 H          -2.4101   -2.2121    2.2120 H       1  LIG1        0.0712
      7 N          -0.6686   -3.1167    0.1264 N.pl3   1  LIG1       -0.3565
      8 H          -1.2864   -3.8629    0.4065 H       1  LIG1        0.1424
      9 H          -0.3698   -3.1964   -0.8352 H       1  LIG1        0.1424
     10 N           0.9962   -0.8176   -2.1790 N.1     1  LIG1       -0.1908
     11 C           0.3066   -0.7379   -1.2500 C.1     1  LIG1        0.1022
     12 C          -0.6198    1.8883    0.1297 C.ar    1  LIG1        0.0497
     13 C           0.5858    2.4547   -0.2342 C.ar    1  LIG1        0.0583
     14 C           0.4625    3.8794   -0.4229 C.ar    1  LIG1        0.0883
     15 C          -0.7965    4.3898   -0.1716 C.ar    1  LIG1        0.0475
     16 S          -1.8670    3.1110    0.2761 S.2     1  LIG1       -0.0839
     17 N           1.8025    1.8340   -0.3502 N.pl3   1  LIG1       -0.3561
     18 H           1.8191    0.8756   -0.6642 H       1  LIG1        0.1424
     19 H           2.5409    2.3924   -0.7537 H       1  LIG1        0.1424
     20 N           2.4722    5.2723   -1.2400 N.1     1  LIG1       -0.1908
     21 C           1.5578    4.6522   -0.8872 C.1     1  LIG1        0.1022
     22 C          -1.2781    5.7511   -0.2544 C.ar    1  LIG1        0.0497
     23 C          -0.6785    6.9333    0.1398 C.ar    1  LIG1        0.0583
     24 C          -1.5669    8.0564   -0.0366 C.ar    1  LIG1        0.0883
     25 C          -2.8200    7.7336   -0.5175 C.ar    1  LIG1        0.0475
     26 S          -2.9251    6.0323   -0.7892 S.2     1  LIG1       -0.0839
     27 N           0.5553    7.1022    0.7062 N.pl3   1  LIG1       -0.3561
     28 H           1.3001    6.4785    0.4351 H       1  LIG1        0.1424
     29 H           0.8593    8.0583    0.8213 H       1  LIG1        0.1424
     30 N          -0.7609   10.4532    0.4663 N.1     1  LIG1       -0.1908
     31 C          -1.1289    9.3810    0.2218 C.1     1  LIG1        0.1022
     32 C          -3.9477    8.5919   -0.8114 C.ar    1  LIG1        0.0491
     33 C          -4.4544    9.6658   -0.0972 C.ar    1  LIG1        0.0577
     34 C          -5.6775   10.1517   -0.6928 C.ar    1  LIG1        0.0800
     35 C          -6.0629    9.4547   -1.8014 C.ar    1  LIG1       -0.0045
     36 S          -4.9701    8.2079   -2.1839 S.2     1  LIG1       -0.0929
     37 H          -6.9297    9.6463   -2.4168 H       1  LIG1        0.0707
     38 N          -3.9879   10.1957    1.0740 N.pl3   1  LIG1       -0.3561
     39 H          -2.9935   10.2021    1.2419 H       1  LIG1        0.1424
     40 H          -4.4541   11.0342    1.3900 H       1  LIG1        0.1424
     41 N          -6.9225   12.1628    0.3417 N.1     1  LIG1       -0.1908
     42 C          -6.3891   11.2585   -0.1459 C.1     1  LIG1        0.1016
@<TRIPOS>BOND
     1    37    35    1
     2    36    35   ar
     3    36    32   ar
     4    10    11    3
     5    35    34   ar
     6    11     3    1
     7    20    21    3
     8    21    14    1
     9     9     7    1
    10    32    25    1
    11    32    33   ar
    12    26    25   ar
    13    26    22   ar
    14    19    17    1
    15    34    42    1
    16    34    33   ar
    17    18    17    1
    18    25    24   ar
    19    14    13   ar
    20    14    15   ar
    21    17    13    1
    22    22    15    1
    23    22    23   ar
    24    13    12   ar
    25    15    16   ar
    26    42    41    3
    27    33    38    1
    28     3     4   ar
    29     3     2   ar
    30    24    23   ar
    31    24    31    1
    32     7     8    1
    33     7     2    1
    34    12    16   ar
    35    12     4    1
    36    23    27    1
    37    31    30    3
    38    28    27    1
    39     4     5   ar
    40     2     1   ar
    41    27    29    1
    42    38    39    1
    43    38    40    1
    44     1     5   ar
    45     1     6    1
