@<TRIPOS>MOLECULE
mol_data/opt/cam/geoms/mol2/5hd5hd-5hd-5hd-.out
 42 45 0 0 0
SMALL
GASTEIGER

@<TRIPOS>ATOM
      1 C          -1.8677   -1.5403    1.5587 C.ar    1  LIG1       -0.0018
      2 C          -1.0388   -1.8511    0.5222 C.ar    1  LIG1        0.0499
      3 C          -0.5176   -0.6629   -0.1067 C.ar    1  LIG1        0.0876
      4 C          -0.9370    0.5172    0.4797 C.ar    1  LIG1        0.0469
      5 S          -1.9803    0.1659    1.8136 S.2     1  LIG1       -0.0929
      6 H          -2.4081   -2.2214    2.1987 H       1  LIG1        0.0712
      7 N          -0.6718   -3.1179    0.1053 N.pl3   1  LIG1       -0.3565
      8 H          -1.2893   -3.8650    0.3836 H       1  LIG1        0.1424
      9 H          -0.3752   -3.1935   -0.8573 H       1  LIG1        0.1424
     10 N           0.9887   -0.8097   -2.1942 N.1     1  LIG1       -0.1908
     11 C           0.3013   -0.7336   -1.2632 C.1     1  LIG1        0.1022
     12 C          -0.6207    1.8871    0.1298 C.ar    1  LIG1        0.0497
     13 C           0.5844    2.4544   -0.2345 C.ar    1  LIG1        0.0583
     14 C           0.4612    3.8801   -0.4168 C.ar    1  LIG1        0.0883
     15 C          -0.7970    4.3899   -0.1605 C.ar    1  LIG1        0.0475
     16 S          -1.8670    3.1097    0.2842 S.2     1  LIG1       -0.0839
     17 N           1.8004    1.8337   -0.3559 N.pl3   1  LIG1       -0.3561
     18 H           1.8159    0.8767   -0.6741 H       1  LIG1        0.1424
     19 H           2.5382    2.3936   -0.7586 H       1  LIG1        0.1424
     20 N           2.4696    5.2755   -1.2325 N.1     1  LIG1       -0.1908
     21 C           1.5558    4.6543   -0.8803 C.1     1  LIG1        0.1022
     22 C          -1.2781    5.7517   -0.2364 C.ar    1  LIG1        0.0497
     23 C          -0.6771    6.9320    0.1614 C.ar    1  LIG1        0.0583
     24 C          -1.5653    8.0562   -0.0080 C.ar    1  LIG1        0.0883
     25 C          -2.8197    7.7360   -0.4874 C.ar    1  LIG1        0.0475
     26 S          -2.9263    6.0360   -0.7661 S.2     1  LIG1       -0.0839
     27 N           0.5582    7.0979    0.7257 N.pl3   1  LIG1       -0.3561
     28 H           1.3020    6.4750    0.4502 H       1  LIG1        0.1424
     29 H           0.8629    8.0534    0.8442 H       1  LIG1        0.1424
     30 N          -0.7570   10.4505    0.5031 N.1     1  LIG1       -0.1908
     31 C          -1.1261    9.3795    0.2550 C.1     1  LIG1        0.1022
     32 C          -3.9477    8.5961   -0.7750 C.ar    1  LIG1        0.0491
     33 C          -4.4523    9.6672   -0.0551 C.ar    1  LIG1        0.0577
     34 C          -5.6765   10.1561   -0.6457 C.ar    1  LIG1        0.0800
     35 C          -6.0648    9.4641   -1.7563 C.ar    1  LIG1       -0.0045
     36 S          -4.9735    8.2184   -2.1467 S.2     1  LIG1       -0.0929
     37 H          -6.9330    9.6586   -2.3689 H       1  LIG1        0.0707
     38 N          -3.9827   10.1919    1.1173 N.pl3   1  LIG1       -0.3561
     39 H          -2.9880   10.1970    1.2829 H       1  LIG1        0.1424
     40 H          -4.4478   11.0292    1.4379 H       1  LIG1        0.1424
     41 N          -6.9182   12.1634    0.4003 N.1     1  LIG1       -0.1908
     42 C          -6.3864   11.2610   -0.0924 C.1     1  LIG1        0.1016
@<TRIPOS>BOND
     1    37    35    1
     2    10    11    3
     3    36    35   ar
     4    36    32   ar
     5    35    34   ar
     6    11     3    1
     7    20    21    3
     8    21    14    1
     9     9     7    1
    10    32    25    1
    11    32    33   ar
    12    26    25   ar
    13    26    22   ar
    14    19    17    1
    15    18    17    1
    16    34    42    1
    17    34    33   ar
    18    25    24   ar
    19    14    13   ar
    20    14    15   ar
    21    17    13    1
    22    22    15    1
    23    22    23   ar
    24    13    12   ar
    25    15    16   ar
    26     3     4   ar
    27     3     2   ar
    28    42    41    3
    29    33    38    1
    30    24    23   ar
    31    24    31    1
    32     7     8    1
    33     7     2    1
    34    12    16   ar
    35    12     4    1
    36    23    27    1
    37    31    30    3
    38    28    27    1
    39     4     5   ar
    40     2     1   ar
    41    27    29    1
    42    38    39    1
    43    38    40    1
    44     1     5   ar
    45     1     6    1
