@<TRIPOS>MOLECULE
mol_data/opt/cam/geoms/mol2/5hd5hd-5hd-.out
 32 34 0 0 0
SMALL
GASTEIGER

@<TRIPOS>ATOM
      1 C          -1.9729   -1.7131    0.9965 C.ar    1  LIG1       -0.0018
      2 C          -0.8834   -1.9202    0.2041 C.ar    1  LIG1        0.0499
      3 C          -0.3222   -0.6726   -0.2519 C.ar    1  LIG1        0.0876
      4 C          -0.9767    0.4488    0.2235 C.ar    1  LIG1        0.0469
      5 S          -2.2925   -0.0314    1.2381 S.2     1  LIG1       -0.0929
      6 H          -2.5985   -2.4574    1.4658 H       1  LIG1        0.0712
      7 N          -0.3150   -3.1382   -0.1227 N.pl3   1  LIG1       -0.3565
      8 H          -0.9174   -3.9410   -0.0251 H       1  LIG1        0.1424
      9 H           0.2230   -3.1547   -0.9775 H       1  LIG1        0.1424
     10 N           1.6751   -0.6247   -1.8819 N.1     1  LIG1       -0.1908
     11 C           0.7685   -0.6370   -1.1587 C.1     1  LIG1        0.1022
     12 C          -0.6995    1.8511   -0.0125 C.ar    1  LIG1        0.0497
     13 C           0.5057    2.5243   -0.0439 C.ar    1  LIG1        0.0583
     14 C           0.3113    3.9421   -0.2274 C.ar    1  LIG1        0.0883
     15 C          -1.0085    4.3405   -0.2975 C.ar    1  LIG1        0.0475
     16 S          -2.0436    2.9657   -0.1656 S.2     1  LIG1       -0.0839
     17 N           1.7609    2.0061    0.1419 N.pl3   1  LIG1       -0.3561
     18 H           1.9398    1.0666   -0.1785 H       1  LIG1        0.1424
     19 H           2.5263    2.6379   -0.0449 H       1  LIG1        0.1424
     20 N           2.3334    5.5246   -0.4610 N.1     1  LIG1       -0.1908
     21 C           1.4169    4.8195   -0.3730 C.1     1  LIG1        0.1022
     22 C          -1.5669    5.6651   -0.4719 C.ar    1  LIG1        0.0491
     23 C          -1.1952    6.8668    0.1081 C.ar    1  LIG1        0.0577
     24 C          -2.1127    7.9219   -0.2541 C.ar    1  LIG1        0.0800
     25 C          -3.1304    7.5100   -1.0654 C.ar    1  LIG1       -0.0045
     26 S          -3.0164    5.8541   -1.4406 S.2     1  LIG1       -0.0929
     27 H          -3.9212    8.1226   -1.4730 H       1  LIG1        0.0707
     28 N          -0.1769    7.0963    0.9928 N.pl3   1  LIG1       -0.3561
     29 H           0.6726    6.5605    0.9013 H       1  LIG1        0.1424
     30 H          -0.0156    8.0650    1.2294 H       1  LIG1        0.1424
     31 N          -1.7493   10.3245    0.6178 N.1     1  LIG1       -0.1908
     32 C          -1.9407    9.2577    0.2113 C.1     1  LIG1        0.1016
@<TRIPOS>BOND
     1    10    11    3
     2    27    25    1
     3    26    25   ar
     4    26    22   ar
     5    11     3    1
     6    25    24   ar
     7     9     7    1
     8    22    15    1
     9    22    23   ar
    10    20    21    3
    11    21    14    1
    12    15    14   ar
    13    15    16   ar
    14    24    23   ar
    15    24    32    1
    16     3     2   ar
    17     3     4   ar
    18    14    13   ar
    19    18    17    1
    20    16    12   ar
    21     7     8    1
    22     7     2    1
    23    19    17    1
    24    13    12   ar
    25    13    17    1
    26    12     4    1
    27    23    28    1
    28     2     1   ar
    29    32    31    3
    30     4     5   ar
    31    29    28    1
    32    28    30    1
    33     1     5   ar
    34     1     6    1
