@<TRIPOS>MOLECULE
mol_data/opt/cam/geoms/mol2/5hd5hd-.out
 22 23 0 0 0
SMALL
GASTEIGER

@<TRIPOS>ATOM
      1 C          -2.1317   -1.7481   -0.5357 C.ar    1  LIG1       -0.0018
      2 C          -0.8314   -1.8654   -0.1442 C.ar    1  LIG1        0.0499
      3 C          -0.2534   -0.5767    0.1468 C.ar    1  LIG1        0.0876
      4 C          -1.1171    0.4853   -0.0423 C.ar    1  LIG1        0.0469
      5 S          -2.6525   -0.1001   -0.5791 S.2     1  LIG1       -0.0929
      6 H          -2.8198   -2.5421   -0.7838 H       1  LIG1        0.0712
      7 N          -0.1276   -3.0403    0.0502 N.pl3   1  LIG1       -0.3565
      8 H          -0.4815   -3.8484   -0.4380 H       1  LIG1        0.1424
      9 H           0.8781   -2.9619    0.0017 H       1  LIG1        0.1424
     10 N           2.1834   -0.3549    0.9594 N.1     1  LIG1       -0.1908
     11 C           1.0790   -0.4482    0.6178 C.1     1  LIG1        0.1022
     12 C          -0.8886    1.9073    0.1326 C.ar    1  LIG1        0.0491
     13 C           0.1943    2.6825   -0.2406 C.ar    1  LIG1        0.0577
     14 C          -0.0541    4.0809    0.0207 C.ar    1  LIG1        0.0800
     15 C          -1.2832    4.3286    0.5615 C.ar    1  LIG1       -0.0045
     16 S          -2.1727    2.8969    0.7970 S.2     1  LIG1       -0.0929
     17 H          -1.6820    5.2902    0.8499 H       1  LIG1        0.0707
     18 N           1.3444    2.2729   -0.8675 N.pl3   1  LIG1       -0.3561
     19 H           1.7298    1.3776   -0.6062 H       1  LIG1        0.1424
     20 H           2.0513    2.9873   -0.9719 H       1  LIG1        0.1424
     21 N           1.7410    5.8537   -0.5276 N.1     1  LIG1       -0.1908
     22 C           0.9156    5.0833   -0.2718 C.1     1  LIG1        0.1016
@<TRIPOS>BOND
     1    20    18    1
     2    18    19    1
     3    18    13    1
     4     6     1    1
     5     5     1   ar
     6     5     4   ar
     7     1     2   ar
     8    21    22    3
     9     8     7    1
    10    22    14    1
    11    13    14   ar
    12    13    12   ar
    13     2     7    1
    14     2     3   ar
    15     4    12    1
    16     4     3   ar
    17     9     7    1
    18    14    15   ar
    19    12    16   ar
    20     3    11    1
    21    15    16   ar
    22    15    17    1
    23    11    10    3
