@<TRIPOS>MOLECULE
mol_data/opt/cam/geoms/mol2/5hd5hd-5hd-5hd.out
 42 45 0 0 0
SMALL
GASTEIGER

@<TRIPOS>ATOM
      1 C          -1.8654   -1.5417    1.5571 C.ar    1  LIG1       -0.0018
      2 C          -1.0362   -1.8513    0.5205 C.ar    1  LIG1        0.0499
      3 C          -0.5153   -0.6622   -0.1072 C.ar    1  LIG1        0.0876
      4 C          -0.9352    0.5171    0.4801 C.ar    1  LIG1        0.0469
      5 S          -1.9788    0.1642    1.8135 S.2     1  LIG1       -0.0929
      6 H          -2.4058   -2.2236    2.1963 H       1  LIG1        0.0712
      7 N          -0.6686   -3.1175    0.1025 N.pl3   1  LIG1       -0.3565
      8 H          -1.2859   -3.8651    0.3800 H       1  LIG1        0.1424
      9 H          -0.3717   -3.1922   -0.8601 H       1  LIG1        0.1424
     10 N           0.9916   -0.8066   -2.1944 N.1     1  LIG1       -0.1908
     11 C           0.3039   -0.7317   -1.2636 C.1     1  LIG1        0.1022
     12 C          -0.6194    1.8874    0.1316 C.ar    1  LIG1        0.0497
     13 C           0.5855    2.4556   -0.2318 C.ar    1  LIG1        0.0583
     14 C           0.4619    3.8813   -0.4129 C.ar    1  LIG1        0.0883
     15 C          -0.7965    4.3904   -0.1564 C.ar    1  LIG1        0.0475
     16 S          -1.8662    3.1094    0.2869 S.2     1  LIG1       -0.0839
     17 N           1.8019    1.8355   -0.3535 N.pl3   1  LIG1       -0.3561
     18 H           1.8178    0.8788   -0.6725 H       1  LIG1        0.1424
     19 H           2.5396    2.3960   -0.7555 H       1  LIG1        0.1424
     20 N           2.4700    5.2783   -1.2268 N.1     1  LIG1       -0.1908
     21 C           1.5563    4.6564   -0.8753 C.1     1  LIG1        0.1022
     22 C          -1.2782    5.7522   -0.2312 C.ar    1  LIG1        0.0497
     23 C          -0.6777    6.9323    0.1678 C.ar    1  LIG1        0.0583
     24 C          -1.5663    8.0563   -0.0008 C.ar    1  LIG1        0.0883
     25 C          -2.8205    7.7361   -0.4807 C.ar    1  LIG1        0.0475
     26 S          -2.9263    6.0363   -0.7610 S.2     1  LIG1       -0.0839
     27 N           0.5573    7.0982    0.7326 N.pl3   1  LIG1       -0.3561
     28 H           1.3015    6.4758    0.4567 H       1  LIG1        0.1424
     29 H           0.8617    8.0536    0.8520 H       1  LIG1        0.1424
     30 N          -0.7591   10.4504    0.5127 N.1     1  LIG1       -0.1908
     31 C          -1.1277    9.3795    0.2635 C.1     1  LIG1        0.1022
     32 C          -3.9488    8.5960   -0.7679 C.ar    1  LIG1        0.0491
     33 C          -4.4539    9.6663   -0.0471 C.ar    1  LIG1        0.0577
     34 C          -5.6782   10.1553   -0.6376 C.ar    1  LIG1        0.0800
     35 C          -6.0659    9.4640   -1.7489 C.ar    1  LIG1       -0.0045
     36 S          -4.9741    8.2192   -2.1402 S.2     1  LIG1       -0.0929
     37 H          -6.9341    9.6588   -2.3616 H       1  LIG1        0.0707
     38 N          -3.9849   10.1900    1.1258 N.pl3   1  LIG1       -0.3561
     39 H          -2.9902   10.1954    1.2918 H       1  LIG1        0.1424
     40 H          -4.4503   11.0269    1.4471 H       1  LIG1        0.1424
     41 N          -6.9208   12.1611    0.4099 N.1     1  LIG1       -0.1908
     42 C          -6.3886   11.2593   -0.0835 C.1     1  LIG1        0.1016
@<TRIPOS>BOND
     1    37    35    1
     2    10    11    3
     3    36    35   ar
     4    36    32   ar
     5    35    34   ar
     6    11     3    1
     7    20    21    3
     8    21    14    1
     9     9     7    1
    10    32    25    1
    11    32    33   ar
    12    26    25   ar
    13    26    22   ar
    14    19    17    1
    15    18    17    1
    16    34    42    1
    17    34    33   ar
    18    25    24   ar
    19    14    13   ar
    20    14    15   ar
    21    17    13    1
    22    13    12   ar
    23    22    15    1
    24    22    23   ar
    25    15    16   ar
    26     3     4   ar
    27     3     2   ar
    28    42    41    3
    29    33    38    1
    30    24    23   ar
    31    24    31    1
    32     7     8    1
    33     7     2    1
    34    12    16   ar
    35    12     4    1
    36    23    27    1
    37    31    30    3
    38    28    27    1
    39     4     5   ar
    40     2     1   ar
    41    27    29    1
    42    38    39    1
    43    38    40    1
    44     1     5   ar
    45     1     6    1
