@<TRIPOS>MOLECULE
mol_data/opt/cam/geoms/mol2/5hd5hd-5hd5hd-.out
 42 45 0 0 0
SMALL
GASTEIGER

@<TRIPOS>ATOM
      1 C          -1.8547   -1.5370    1.5769 C.ar    1  LIG1       -0.0018
      2 C          -1.0327   -1.8496    0.5355 C.ar    1  LIG1        0.0499
      3 C          -0.5162   -0.6624   -0.0993 C.ar    1  LIG1        0.0876
      4 C          -0.9321    0.5186    0.4874 C.ar    1  LIG1        0.0469
      5 S          -1.9663    0.1697    1.8290 S.2     1  LIG1       -0.0929
      6 H          -2.3906   -2.2170    2.2218 H       1  LIG1        0.0712
      7 N          -0.6680   -3.1171    0.1188 N.pl3   1  LIG1       -0.3565
      8 H          -1.2834   -3.8638    0.4027 H       1  LIG1        0.1424
      9 H          -0.3777   -3.1946   -0.8456 H       1  LIG1        0.1424
     10 N           0.9763   -0.8128   -2.1965 N.1     1  LIG1       -0.1908
     11 C           0.2950   -0.7353   -1.2611 C.1     1  LIG1        0.1022
     12 C          -0.6188    1.8879    0.1325 C.ar    1  LIG1        0.0497
     13 C           0.5837    2.4549   -0.2408 C.ar    1  LIG1        0.0583
     14 C           0.4588    3.8801   -0.4251 C.ar    1  LIG1        0.0883
     15 C          -0.7978    4.3901   -0.1615 C.ar    1  LIG1        0.0475
     16 S          -1.8645    3.1104    0.2927 S.2     1  LIG1       -0.0839
     17 N           1.7991    1.8344   -0.3690 N.pl3   1  LIG1       -0.3561
     18 H           1.8128    0.8768   -0.6856 H       1  LIG1        0.1424
     19 H           2.5341    2.3938   -0.7773 H       1  LIG1        0.1424
     20 N           2.4614    5.2747   -1.2566 N.1     1  LIG1       -0.1908
     21 C           1.5501    4.6538   -0.8973 C.1     1  LIG1        0.1022
     22 C          -1.2799    5.7516   -0.2369 C.ar    1  LIG1        0.0497
     23 C          -0.6767    6.9327    0.1549 C.ar    1  LIG1        0.0583
     24 C          -1.5664    8.0563   -0.0108 C.ar    1  LIG1        0.0883
     25 C          -2.8239    7.7348   -0.4811 C.ar    1  LIG1        0.0475
     26 S          -2.9316    6.0343   -0.7564 S.2     1  LIG1       -0.0839
     27 N           0.5621    7.1001    0.7107 N.pl3   1  LIG1       -0.3561
     28 H           1.3043    6.4768    0.4319 H       1  LIG1        0.1424
     29 H           0.8674    8.0559    0.8255 H       1  LIG1        0.1424
     30 N          -0.7560   10.4517    0.4914 N.1     1  LIG1       -0.1908
     31 C          -1.1261    9.3802    0.2472 C.1     1  LIG1        0.1022
     32 C          -3.9540    8.5939   -0.7627 C.ar    1  LIG1        0.0491
     33 C          -4.4543    9.6660   -0.0412 C.ar    1  LIG1        0.0577
     34 C          -5.6826   10.1535   -0.6244 C.ar    1  LIG1        0.0800
     35 C          -6.0779    9.4595   -1.7314 C.ar    1  LIG1       -0.0045
     36 S          -4.9890    8.2134   -2.1268 S.2     1  LIG1       -0.0929
     37 H          -6.9502    9.6529   -2.3386 H       1  LIG1        0.0707
     38 N          -3.9771   10.1928    1.1271 N.pl3   1  LIG1       -0.3561
     39 H          -2.9813   10.1981    1.2864 H       1  LIG1        0.1424
     40 H          -4.4402   11.0306    1.4494 H       1  LIG1        0.1424
     41 N          -6.9179   12.1621    0.4264 N.1     1  LIG1       -0.1908
     42 C          -6.3891   11.2590   -0.0683 C.1     1  LIG1        0.1016
@<TRIPOS>BOND
     1    37    35    1
     2    10    11    3
     3    36    35   ar
     4    36    32   ar
     5    35    34   ar
     6    11     3    1
     7    20    21    3
     8    21    14    1
     9     9     7    1
    10    19    17    1
    11    32    25    1
    12    32    33   ar
    13    26    25   ar
    14    26    22   ar
    15    18    17    1
    16    34    42    1
    17    34    33   ar
    18    25    24   ar
    19    14    13   ar
    20    14    15   ar
    21    17    13    1
    22    13    12   ar
    23    22    15    1
    24    22    23   ar
    25    15    16   ar
    26     3     4   ar
    27     3     2   ar
    28    42    41    3
    29    33    38    1
    30    24    23   ar
    31    24    31    1
    32     7     8    1
    33     7     2    1
    34    12    16   ar
    35    12     4    1
    36    23    27    1
    37    31    30    3
    38    28    27    1
    39     4     5   ar
    40     2     1   ar
    41    27    29    1
    42    38    39    1
    43    38    40    1
    44     1     5   ar
    45     1     6    1
