@<TRIPOS>MOLECULE
mol_data/opt/cam/geoms/mol2/5hd5hd5hd-5hd-.out
 42 45 0 0 0
SMALL
GASTEIGER

@<TRIPOS>ATOM
      1 C          -1.8874   -1.5369    1.5498 C.ar    1  LIG1       -0.0018
      2 C          -1.0456   -1.8500    0.5244 C.ar    1  LIG1        0.0499
      3 C          -0.5167   -0.6630   -0.1005 C.ar    1  LIG1        0.0876
      4 C          -0.9433    0.5183    0.4781 C.ar    1  LIG1        0.0469
      5 S          -2.0032    0.1698    1.7996 S.2     1  LIG1       -0.0929
      6 H          -2.4357   -2.2167    2.1844 H       1  LIG1        0.0712
      7 N          -0.6734   -3.1176    0.1148 N.pl3   1  LIG1       -0.3565
      8 H          -1.2944   -3.8641    0.3869 H       1  LIG1        0.1424
      9 H          -0.3648   -3.1952   -0.8439 H       1  LIG1        0.1424
     10 N           1.0156   -0.8143   -2.1688 N.1     1  LIG1       -0.1908
     11 C           0.3166   -0.7362   -1.2466 C.1     1  LIG1        0.1022
     12 C          -0.6228    1.8875    0.1292 C.ar    1  LIG1        0.0497
     13 C           0.5867    2.4541   -0.2211 C.ar    1  LIG1        0.0583
     14 C           0.4657    3.8794   -0.4080 C.ar    1  LIG1        0.0883
     15 C          -0.7955    4.3896   -0.1685 C.ar    1  LIG1        0.0475
     16 S          -1.8710    3.1103    0.2656 S.2     1  LIG1       -0.0839
     17 N           1.8042    1.8333   -0.3261 N.pl3   1  LIG1       -0.3561
     18 H           1.8238    0.8756   -0.6421 H       1  LIG1        0.1424
     19 H           2.5470    2.3924   -0.7206 H       1  LIG1        0.1424
     20 N           2.4842    5.2732   -1.2016 N.1     1  LIG1       -0.1908
     21 C           1.5660    4.6527   -0.8594 C.1     1  LIG1        0.1022
     22 C          -1.2758    5.7513   -0.2532 C.ar    1  LIG1        0.0497
     23 C          -0.6798    6.9324    0.1494 C.ar    1  LIG1        0.0583
     24 C          -1.5659    8.0562   -0.0334 C.ar    1  LIG1        0.0883
     25 C          -2.8143    7.7349   -0.5275 C.ar    1  LIG1        0.0475
     26 S          -2.9173    6.0343   -0.8039 S.2     1  LIG1       -0.0839
     27 N           0.5484    7.0997    0.7285 N.pl3   1  LIG1       -0.3561
     28 H           1.2956    6.4763    0.4637 H       1  LIG1        0.1424
     29 H           0.8516    8.0554    0.8488 H       1  LIG1        0.1424
     30 N          -0.7640   10.4516    0.4826 N.1     1  LIG1       -0.1908
     31 C          -1.1300    9.3801    0.2322 C.1     1  LIG1        0.1022
     32 C          -3.9387    8.5943   -0.8309 C.ar    1  LIG1        0.0491
     33 C          -4.4521    9.6670   -0.1196 C.ar    1  LIG1        0.0577
     34 C          -5.6691   10.1545   -0.7263 C.ar    1  LIG1        0.0800
     35 C          -6.0435    9.4599   -1.8402 C.ar    1  LIG1       -0.0045
     36 S          -4.9475    8.2136   -2.2144 S.2     1  LIG1       -0.0929
     37 H          -6.9042    9.6531   -2.4639 H       1  LIG1        0.0707
     38 N          -3.9972   10.1942    1.0573 N.pl3   1  LIG1       -0.3561
     39 H          -3.0046   10.1996    1.2353 H       1  LIG1        0.1424
     40 H          -4.4662   11.0322    1.3704 H       1  LIG1        0.1424
     41 N          -6.9236   12.1639    0.2999 N.1     1  LIG1       -0.1908
     42 C          -6.3857   11.2605   -0.1843 C.1     1  LIG1        0.1016
@<TRIPOS>BOND
     1    37    35    1
     2    36    35   ar
     3    36    32   ar
     4    10    11    3
     5    35    34   ar
     6    11     3    1
     7    20    21    3
     8    21    14    1
     9     9     7    1
    10    32    25    1
    11    32    33   ar
    12    26    25   ar
    13    26    22   ar
    14    34    42    1
    15    34    33   ar
    16    19    17    1
    17    18    17    1
    18    25    24   ar
    19    14    13   ar
    20    14    15   ar
    21    17    13    1
    22    22    15    1
    23    22    23   ar
    24    13    12   ar
    25    42    41    3
    26    15    16   ar
    27    33    38    1
    28     3     4   ar
    29     3     2   ar
    30    24    23   ar
    31    24    31    1
    32     7     8    1
    33     7     2    1
    34    12    16   ar
    35    12     4    1
    36    23    27    1
    37    31    30    3
    38    28    27    1
    39     4     5   ar
    40     2     1   ar
    41    27    29    1
    42    38    39    1
    43    38    40    1
    44     1     5   ar
    45     1     6    1
