@<TRIPOS>MOLECULE
mol_data/opt/cam/geoms/mol2/5hd5hd5hd5hd.out
 42 45 0 0 0
SMALL
GASTEIGER

@<TRIPOS>ATOM
      1 C          -1.8684   -1.5354    1.5665 C.ar    1  LIG1       -0.0018
      2 C          -1.0378   -1.8492    0.5322 C.ar    1  LIG1        0.0499
      3 C          -0.5160   -0.6627   -0.0995 C.ar    1  LIG1        0.0876
      4 C          -0.9365    0.5190    0.4827 C.ar    1  LIG1        0.0469
      5 S          -1.9817    0.1715    1.8161 S.2     1  LIG1       -0.0929
      6 H          -2.4097   -2.2148    2.2076 H       1  LIG1        0.0712
      7 N          -0.6700   -3.1171    0.1196 N.pl3   1  LIG1       -0.3565
      8 H          -1.2878   -3.8635    0.3991 H       1  LIG1        0.1424
      9 H          -0.3719   -3.1955   -0.8424 H       1  LIG1        0.1424
     10 N           0.9935   -0.8155   -2.1843 N.1     1  LIG1       -0.1908
     11 C           0.3047   -0.7367   -1.2546 C.1     1  LIG1        0.1022
     12 C          -0.6200    1.8880    0.1292 C.ar    1  LIG1        0.0497
     13 C           0.5855    2.4545   -0.2349 C.ar    1  LIG1        0.0583
     14 C           0.4623    3.8796   -0.4216 C.ar    1  LIG1        0.0883
     15 C          -0.7964    4.3899   -0.1687 C.ar    1  LIG1        0.0475
     16 S          -1.8668    3.1107    0.2782 S.2     1  LIG1       -0.0839
     17 N           1.8019    1.8338   -0.3526 N.pl3   1  LIG1       -0.3561
     18 H           1.8181    0.8759   -0.6680 H       1  LIG1        0.1424
     19 H           2.5402    2.3927   -0.7557 H       1  LIG1        0.1424
     20 N           2.4717    5.2730   -1.2384 N.1     1  LIG1       -0.1908
     21 C           1.5574    4.6527   -0.8857 C.1     1  LIG1        0.1022
     22 C          -1.2777    5.7514   -0.2493 C.ar    1  LIG1        0.0497
     23 C          -0.6775    6.9329    0.1458 C.ar    1  LIG1        0.0583
     24 C          -1.5658    8.0565   -0.0283 C.ar    1  LIG1        0.0883
     25 C          -2.8194    7.7345   -0.5083 C.ar    1  LIG1        0.0475
     26 S          -2.9252    6.0337   -0.7821 S.2     1  LIG1       -0.0839
     27 N           0.5569    7.1009    0.7112 N.pl3   1  LIG1       -0.3561
     28 H           1.3013    6.4773    0.4387 H       1  LIG1        0.1424
     29 H           0.8613    8.0568    0.8273 H       1  LIG1        0.1424
     30 N          -0.7586   10.4524    0.4769 N.1     1  LIG1       -0.1908
     31 C          -1.1272    9.3806    0.2314 C.1     1  LIG1        0.1022
     32 C          -3.9473    8.5934   -0.8000 C.ar    1  LIG1        0.0491
     33 C          -4.4530    9.6667   -0.0840 C.ar    1  LIG1        0.0577
     34 C          -5.6766   10.1535   -0.6778 C.ar    1  LIG1        0.0800
     35 C          -6.0632    9.4580   -1.7868 C.ar    1  LIG1       -0.0045
     36 S          -4.9711    8.2114   -2.1720 S.2     1  LIG1       -0.0929
     37 H          -6.9307    9.6505   -2.4012 H       1  LIG1        0.0707
     38 N          -3.9852   10.1950    1.0873 N.pl3   1  LIG1       -0.3561
     39 H          -2.9907   10.2008    1.2544 H       1  LIG1        0.1424
     40 H          -4.4510   11.0332    1.4049 H       1  LIG1        0.1424
     41 N          -6.9201   12.1636    0.3605 N.1     1  LIG1       -0.1908
     42 C          -6.3875   11.2598   -0.1288 C.1     1  LIG1        0.1016
@<TRIPOS>BOND
     1    37    35    1
     2    10    11    3
     3    36    35   ar
     4    36    32   ar
     5    35    34   ar
     6    11     3    1
     7    20    21    3
     8    21    14    1
     9     9     7    1
    10    32    25    1
    11    32    33   ar
    12    26    25   ar
    13    26    22   ar
    14    19    17    1
    15    34    42    1
    16    34    33   ar
    17    18    17    1
    18    25    24   ar
    19    14    13   ar
    20    14    15   ar
    21    17    13    1
    22    22    15    1
    23    22    23   ar
    24    13    12   ar
    25    15    16   ar
    26    42    41    3
    27     3     4   ar
    28     3     2   ar
    29    33    38    1
    30    24    23   ar
    31    24    31    1
    32     7     8    1
    33     7     2    1
    34    12    16   ar
    35    12     4    1
    36    23    27    1
    37    31    30    3
    38    28    27    1
    39     4     5   ar
    40     2     1   ar
    41    27    29    1
    42    38    39    1
    43    38    40    1
    44     1     5   ar
    45     1     6    1
