@<TRIPOS>MOLECULE
mol_data/opt/cam/geoms/mol2/5hd5hd.out
 22 23 0 0 0
SMALL
GASTEIGER

@<TRIPOS>ATOM
      1 C          -2.1281   -1.7474   -0.5463 C.ar    1  LIG1       -0.0018
      2 C          -0.8310   -1.8655   -0.1443 C.ar    1  LIG1        0.0499
      3 C          -0.2551   -0.5772    0.1527 C.ar    1  LIG1        0.0876
      4 C          -1.1169    0.4852   -0.0422 C.ar    1  LIG1        0.0469
      5 S          -2.6481   -0.0993   -0.5922 S.2     1  LIG1       -0.0929
      6 H          -2.8144   -2.5410   -0.8008 H       1  LIG1        0.0712
      7 N          -0.1291   -3.0407    0.0545 N.pl3   1  LIG1       -0.3565
      8 H          -0.4793   -3.8483   -0.4374 H       1  LIG1        0.1424
      9 H           0.8769   -2.9626    0.0143 H       1  LIG1        0.1424
     10 N           2.1750   -0.3569    0.9853 N.1     1  LIG1       -0.1908
     11 C           1.0735   -0.4496    0.6346 C.1     1  LIG1        0.1022
     12 C          -0.8895    1.9069    0.1360 C.ar    1  LIG1        0.0491
     13 C           0.1966    2.6822   -0.2276 C.ar    1  LIG1        0.0577
     14 C          -0.0537    4.0804    0.0331 C.ar    1  LIG1        0.0800
     15 C          -1.2871    4.3279    0.5643 C.ar    1  LIG1       -0.0045
     16 S          -2.1788    2.8962    0.7910 S.2     1  LIG1       -0.0929
     17 H          -1.6880    5.2892    0.8504 H       1  LIG1        0.0707
     18 N           1.3516    2.2730   -0.8455 N.pl3   1  LIG1       -0.3561
     19 H           1.7347    1.3773   -0.5820 H       1  LIG1        0.1424
     20 H           2.0594    2.9874   -0.9435 H       1  LIG1        0.1424
     21 N           1.7463    5.8533   -0.4986 N.1     1  LIG1       -0.1908
     22 C           0.9187    5.0829   -0.2504 C.1     1  LIG1        0.1016
@<TRIPOS>BOND
     1    20    18    1
     2    18    19    1
     3    18    13    1
     4     6     1    1
     5     5     1   ar
     6     5     4   ar
     7     1     2   ar
     8    21    22    3
     9     8     7    1
    10    22    14    1
    11    13    14   ar
    12    13    12   ar
    13     2     7    1
    14     2     3   ar
    15     4    12    1
    16     4     3   ar
    17     9     7    1
    18    14    15   ar
    19    12    16   ar
    20     3    11    1
    21    15    16   ar
    22    15    17    1
    23    11    10    3
