@<TRIPOS>MOLECULE
mol_data/opt/cam/geoms/mol2/5he.out
 13 13 0 0 0
SMALL
GASTEIGER

@<TRIPOS>ATOM
      1 C          -2.1372   -1.6991   -0.0441 C.ar    1  LIG1       -0.0024
      2 C          -0.7733   -1.6882   -0.0450 C.ar    1  LIG1        0.0472
      3 C          -0.2484   -0.3418    0.0007 C.ar    1  LIG1        0.0523
      4 C          -1.2374    0.6018    0.0430 C.ar    1  LIG1       -0.0071
      5 S          -2.7981   -0.1007    0.0258 S.2     1  LIG1       -0.1020
      6 H          -2.7902   -2.5588   -0.0607 H       1  LIG1        0.0712
      7 H          -1.1079    1.6732    0.0765 H       1  LIG1        0.0706
      8 N           0.0666   -2.7931   -0.0342 N.pl3   1  LIG1       -0.3566
      9 H          -0.3168   -3.6298   -0.4472 H       1  LIG1        0.1424
     10 H           1.0048   -2.5971   -0.3547 H       1  LIG1        0.1424
     11 C           1.1490   -0.0670   -0.0143 C.1     1  LIG1       -0.0673
     12 C           2.3397    0.1163   -0.0409 C.1     1  LIG1       -0.1138
     13 H           3.3892    0.3005   -0.0523 H       1  LIG1        0.1232
@<TRIPOS>BOND
     1     9     8    1
     2    10     8    1
     3     6     1    1
     4    13    12    1
     5     2     1   ar
     6     2     8    1
     7     2     3   ar
     8     1     5   ar
     9    12    11    3
    10    11     3    1
    11     3     4   ar
    12     5     4   ar
    13     4     7    1
