@<TRIPOS>MOLECULE
mol_data/opt/cam/geoms/mol2/5he5he5he-5he-.out
 46 49 0 0 0
SMALL
GASTEIGER

@<TRIPOS>ATOM
      1 C          -1.7601   -1.4890    1.8175 C.ar    1  LIG1       -0.0018
      2 C          -0.9358   -1.7865    0.7751 C.ar    1  LIG1        0.0479
      3 C          -0.4365   -0.5977    0.1245 C.ar    1  LIG1        0.0606
      4 C          -0.8763    0.5726    0.7121 C.ar    1  LIG1        0.0449
      5 S          -1.9066    0.2172    2.0604 S.2     1  LIG1       -0.0930
      6 H          -2.2802   -2.1787    2.4655 H       1  LIG1        0.0712
      7 N          -0.5533   -3.0539    0.3566 N.pl3   1  LIG1       -0.3566
      8 H          -1.2001   -3.7927    0.5891 H       1  LIG1        0.1424
      9 H          -0.2526   -3.0948   -0.6074 H       1  LIG1        0.1424
     10 C           0.3614   -0.6772   -1.0485 C.1     1  LIG1       -0.0667
     11 C           1.0435   -0.7893   -2.0379 C.1     1  LIG1       -0.1138
     12 H           1.6203   -0.8708   -2.9305 H       1  LIG1        0.1232
     13 C          -0.5815    1.9465    0.3539 C.ar    1  LIG1        0.0496
     14 C           0.6276    2.5211    0.0316 C.ar    1  LIG1        0.0563
     15 C           0.5109    3.9405   -0.2067 C.ar    1  LIG1        0.0612
     16 C          -0.7663    4.4318   -0.0246 C.ar    1  LIG1        0.0455
     17 S          -1.8481    3.1539    0.4138 S.2     1  LIG1       -0.0840
     18 N           1.8538    1.8970   -0.0079 N.pl3   1  LIG1       -0.3561
     19 H           1.8564    0.9309   -0.3012 H       1  LIG1        0.1424
     20 H           2.5832    2.4475   -0.4382 H       1  LIG1        0.1424
     21 C           1.6250    4.7013   -0.6523 C.1     1  LIG1       -0.0666
     22 C           2.5998    5.3119   -1.0184 C.1     1  LIG1       -0.1138
     23 H           3.4417    5.8575   -1.3784 H       1  LIG1        0.1232
     24 C          -1.2554    5.7889   -0.1594 C.ar    1  LIG1        0.0496
     25 C          -0.6989    6.9648    0.2952 C.ar    1  LIG1        0.0563
     26 C          -1.5384    8.1070    0.0193 C.ar    1  LIG1        0.0612
     27 C          -2.7292    7.7853   -0.5989 C.ar    1  LIG1        0.0455
     28 S          -2.8278    6.0803   -0.8751 S.2     1  LIG1       -0.0840
     29 N           0.4720    7.1067    1.0014 N.pl3   1  LIG1       -0.3561
     30 H           1.2117    6.4533    0.7889 H       1  LIG1        0.1424
     31 H           0.7894    8.0612    1.0919 H       1  LIG1        0.1424
     32 C          -1.1016    9.4256    0.3184 C.1     1  LIG1       -0.0666
     33 C          -0.6969   10.5275    0.5995 C.1     1  LIG1       -0.1138
     34 H          -0.3390   11.5096    0.8086 H       1  LIG1        0.1232
     35 C          -3.8112    8.6568   -1.0130 C.ar    1  LIG1        0.0490
     36 C          -4.4077    9.6912   -0.3211 C.ar    1  LIG1        0.0556
     37 C          -5.5256   10.2511   -1.0476 C.ar    1  LIG1        0.0529
     38 C          -5.7490    9.6238   -2.2399 C.ar    1  LIG1       -0.0065
     39 S          -4.6274    8.3702   -2.5373 S.2     1  LIG1       -0.0930
     40 H          -6.5157    9.8652   -2.9611 H       1  LIG1        0.0706
     41 N          -4.1003   10.1292    0.9444 N.pl3   1  LIG1       -0.3561
     42 H          -3.1312   10.0816    1.2224 H       1  LIG1        0.1424
     43 H          -4.5606   10.9883    1.2092 H       1  LIG1        0.1424
     44 C          -6.2892   11.3401   -0.5391 C.1     1  LIG1       -0.0673
     45 C          -6.9030   12.2653   -0.0710 C.1     1  LIG1       -0.1138
     46 H          -7.4642   13.0796    0.3265 H       1  LIG1        0.1232
@<TRIPOS>BOND
     1    40    38    1
     2    12    11    1
     3    39    38   ar
     4    39    35   ar
     5    38    37   ar
     6    11    10    3
     7    23    22    1
     8    10     3    1
     9    37    44    1
    10    37    36   ar
    11    22    21    3
    12    35    27    1
    13    35    36   ar
    14    28    27   ar
    15    28    24   ar
    16    21    15    1
    17     9     7    1
    18    27    26   ar
    19    44    45    3
    20    20    18    1
    21    36    41    1
    22    19    18    1
    23    15    16   ar
    24    15    14   ar
    25    24    16    1
    26    24    25   ar
    27    45    46    1
    28    16    17   ar
    29    18    14    1
    30    26    25   ar
    31    26    32    1
    32    14    13   ar
    33     3     4   ar
    34     3     2   ar
    35    25    29    1
    36    32    33    3
    37    13    17   ar
    38    13     4    1
    39     7     8    1
    40     7     2    1
    41    33    34    1
    42     4     5   ar
    43     2     1   ar
    44    30    29    1
    45    41    43    1
    46    41    42    1
    47    29    31    1
    48     1     5   ar
    49     1     6    1
