@<TRIPOS>MOLECULE
mol_data/opt/cam/geoms/mol2/5he5he.out
 24 25 0 0 0
SMALL
GASTEIGER

@<TRIPOS>ATOM
      1 C          -2.0846   -1.6984   -0.6631 C.ar    1  LIG1       -0.0018
      2 C          -0.7895   -1.8272   -0.2606 C.ar    1  LIG1        0.0479
      3 C          -0.2080   -0.5579    0.1132 C.ar    1  LIG1        0.0606
      4 C          -1.0835    0.5010   -0.0220 C.ar    1  LIG1        0.0449
      5 S          -2.6167   -0.0533   -0.6153 S.2     1  LIG1       -0.0930
      6 H          -2.7648   -2.4841   -0.9566 H       1  LIG1        0.0712
      7 N          -0.0787   -3.0107   -0.1270 N.pl3   1  LIG1       -0.3566
      8 H          -0.3656   -3.7611   -0.7366 H       1  LIG1        0.1424
      9 H           0.9238   -2.8900   -0.0948 H       1  LIG1        0.1424
     10 C           1.1193   -0.4745    0.6166 C.1     1  LIG1       -0.0667
     11 C           2.2562   -0.4550    1.0168 C.1     1  LIG1       -0.1138
     12 H           3.2490   -0.4047    1.4006 H       1  LIG1        0.1232
     13 C          -0.8598    1.9135    0.2296 C.ar    1  LIG1        0.0489
     14 C           0.1955    2.7032   -0.1707 C.ar    1  LIG1        0.0556
     15 C           0.0090    4.0881    0.1978 C.ar    1  LIG1        0.0529
     16 C          -1.1677    4.3019    0.8577 C.ar    1  LIG1       -0.0065
     17 S          -2.0687    2.8646    1.0674 S.2     1  LIG1       -0.0930
     18 H          -1.5311    5.2460    1.2356 H       1  LIG1        0.0706
     19 N           1.3259    2.3012   -0.8375 N.pl3   1  LIG1       -0.3561
     20 H           1.3284    1.3726   -1.2272 H       1  LIG1        0.1424
     21 H           1.7857    3.0091   -1.3897 H       1  LIG1        0.1424
     22 C           0.9587    5.0962   -0.1328 C.1     1  LIG1       -0.0673
     23 C           1.7809    5.9202   -0.4439 C.1     1  LIG1       -0.1138
     24 H           2.5018    6.6623   -0.6994 H       1  LIG1        0.1232
@<TRIPOS>BOND
     1    21    19    1
     2    20    19    1
     3     6     1    1
     4    19    14    1
     5     8     7    1
     6    24    23    1
     7     1     5   ar
     8     1     2   ar
     9     5     4   ar
    10    23    22    3
    11     2     7    1
    12     2     3   ar
    13    14    15   ar
    14    14    13   ar
    15    22    15    1
    16     7     9    1
    17     4     3   ar
    18     4    13    1
    19     3    10    1
    20    15    16   ar
    21    13    17   ar
    22    10    11    3
    23    16    17   ar
    24    16    18    1
    25    11    12    1
