@<TRIPOS>MOLECULE
mol_data/opt/cam/geoms/mol2/5he5he5he5he-.out
 46 49 0 0 0
SMALL
GASTEIGER

@<TRIPOS>ATOM
      1 C          -1.7480   -1.4868    1.8307 C.ar    1  LIG1       -0.0018
      2 C          -0.9299   -1.7854    0.7838 C.ar    1  LIG1        0.0479
      3 C          -0.4347   -0.5973    0.1289 C.ar    1  LIG1        0.0606
      4 C          -0.8711    0.5736    0.7177 C.ar    1  LIG1        0.0449
      5 S          -1.8933    0.2197    2.0725 S.2     1  LIG1       -0.0930
      6 H          -2.2641   -2.1758    2.4826 H       1  LIG1        0.0712
      7 N          -0.5497   -3.0532    0.3645 N.pl3   1  LIG1       -0.3566
      8 H          -1.1949   -3.7919    0.6017 H       1  LIG1        0.1424
      9 H          -0.2547   -3.0952   -0.6012 H       1  LIG1        0.1424
     10 C           0.3562   -0.6780   -1.0488 C.1     1  LIG1       -0.0667
     11 C           1.0324   -0.7911   -2.0422 C.1     1  LIG1       -0.1138
     12 H           1.6039   -0.8738   -2.9381 H       1  LIG1        0.1232
     13 C          -0.5787    1.9472    0.3561 C.ar    1  LIG1        0.0496
     14 C           0.6284    2.5216    0.0260 C.ar    1  LIG1        0.0563
     15 C           0.5100    3.9407   -0.2133 C.ar    1  LIG1        0.0612
     16 C          -0.7662    4.4320   -0.0242 C.ar    1  LIG1        0.0455
     17 S          -1.8452    3.1545    0.4221 S.2     1  LIG1       -0.0840
     18 N           1.8544    1.8976   -0.0202 N.pl3   1  LIG1       -0.3561
     19 H           1.8554    0.9311   -0.3124 H       1  LIG1        0.1424
     20 H           2.5812    2.4478   -0.4554 H       1  LIG1        0.1424
     21 C           1.6213    4.7011   -0.6664 C.1     1  LIG1       -0.0666
     22 C           2.5938    5.3114   -1.0391 C.1     1  LIG1       -0.1138
     23 H           3.4335    5.8567   -1.4048 H       1  LIG1        0.1232
     24 C          -1.2563    5.7888   -0.1577 C.ar    1  LIG1        0.0496
     25 C          -0.6973    6.9653    0.2923 C.ar    1  LIG1        0.0563
     26 C          -1.5386    8.1071    0.0200 C.ar    1  LIG1        0.0612
     27 C          -2.7330    7.7845   -0.5907 C.ar    1  LIG1        0.0455
     28 S          -2.8329    6.0791   -0.8644 S.2     1  LIG1       -0.0840
     29 N           0.4778    7.1083    0.9913 N.pl3   1  LIG1       -0.3561
     30 H           1.2163    6.4548    0.7753 H       1  LIG1        0.1424
     31 H           0.7956    8.0629    1.0789 H       1  LIG1        0.1424
     32 C          -1.1003    9.4262    0.3150 C.1     1  LIG1       -0.0666
     33 C          -0.6941   10.5284    0.5924 C.1     1  LIG1       -0.1138
     34 H          -0.3352   11.5108    0.7983 H       1  LIG1        0.1232
     35 C          -3.8176    8.6554   -0.9994 C.ar    1  LIG1        0.0490
     36 C          -4.4101    9.6905   -0.3051 C.ar    1  LIG1        0.0556
     37 C          -5.5324   10.2494   -1.0257 C.ar    1  LIG1        0.0529
     38 C          -5.7627    9.6207   -2.2158 C.ar    1  LIG1       -0.0065
     39 S          -4.6427    8.3670   -2.5185 S.2     1  LIG1       -0.0930
     40 H          -6.5338    9.8612   -2.9328 H       1  LIG1        0.0706
     41 N          -4.0953   10.1299    0.9580 N.pl3   1  LIG1       -0.3561
     42 H          -3.1245   10.0828    1.2303 H       1  LIG1        0.1424
     43 H          -4.5541   10.9893    1.2245 H       1  LIG1        0.1424
     44 C          -6.2932   11.3389   -0.5139 C.1     1  LIG1       -0.0673
     45 C          -6.9044   12.2644   -0.0431 C.1     1  LIG1       -0.1138
     46 H          -7.4635   13.0787    0.3572 H       1  LIG1        0.1232
@<TRIPOS>BOND
     1    12    11    1
     2    40    38    1
     3    39    38   ar
     4    39    35   ar
     5    38    37   ar
     6    11    10    3
     7    23    22    1
     8    10     3    1
     9    22    21    3
    10    37    44    1
    11    37    36   ar
    12    35    27    1
    13    35    36   ar
    14    28    27   ar
    15    28    24   ar
    16    21    15    1
    17     9     7    1
    18    27    26   ar
    19    44    45    3
    20    20    18    1
    21    19    18    1
    22    36    41    1
    23    15    16   ar
    24    15    14   ar
    25    24    16    1
    26    24    25   ar
    27    45    46    1
    28    16    17   ar
    29    18    14    1
    30    26    25   ar
    31    26    32    1
    32    14    13   ar
    33     3     4   ar
    34     3     2   ar
    35    25    29    1
    36    32    33    3
    37    13    17   ar
    38    13     4    1
    39     7     8    1
    40     7     2    1
    41    33    34    1
    42     4     5   ar
    43    30    29    1
    44     2     1   ar
    45    41    43    1
    46    41    42    1
    47    29    31    1
    48     1     5   ar
    49     1     6    1
