@<TRIPOS>MOLECULE
mol_data/opt/cam/geoms/mol2/5he5he5he5he.out
 46 49 0 0 0
SMALL
GASTEIGER

@<TRIPOS>ATOM
      1 C          -1.7442   -1.4890    1.8286 C.ar    1  LIG1       -0.0018
      2 C          -0.9287   -1.7864    0.7793 C.ar    1  LIG1        0.0479
      3 C          -0.4349   -0.5976    0.1245 C.ar    1  LIG1        0.0606
      4 C          -0.8696    0.5727    0.7159 C.ar    1  LIG1        0.0449
      5 S          -1.8886    0.2173    2.0728 S.2     1  LIG1       -0.0930
      6 H          -2.2588   -2.1787    2.4809 H       1  LIG1        0.0712
      7 N          -0.5497   -3.0538    0.3575 N.pl3   1  LIG1       -0.3566
      8 H          -1.1945   -3.7926    0.5953 H       1  LIG1        0.1424
      9 H          -0.2571   -3.0946   -0.6090 H       1  LIG1        0.1424
     10 C           0.3532   -0.6770   -1.0552 C.1     1  LIG1       -0.0667
     11 C           1.0269   -0.7890   -2.0503 C.1     1  LIG1       -0.1138
     12 H           1.5961   -0.8707   -2.9477 H       1  LIG1        0.1232
     13 C          -0.5779    1.9466    0.3553 C.ar    1  LIG1        0.0496
     14 C           0.6285    2.5213    0.0229 C.ar    1  LIG1        0.0563
     15 C           0.5097    3.9406   -0.2144 C.ar    1  LIG1        0.0612
     16 C          -0.7659    4.4319   -0.0216 C.ar    1  LIG1        0.0455
     17 S          -1.8440    3.1541    0.4258 S.2     1  LIG1       -0.0840
     18 N           1.8543    1.8971   -0.0270 N.pl3   1  LIG1       -0.3561
     19 H           1.8545    0.9310   -0.3204 H       1  LIG1        0.1424
     20 H           2.5801    2.4477   -0.4634 H       1  LIG1        0.1424
     21 C           1.6201    4.7014   -0.6693 C.1     1  LIG1       -0.0666
     22 C           2.5918    5.3120   -1.0435 C.1     1  LIG1       -0.1138
     23 H           3.4307    5.8577   -1.4106 H       1  LIG1        0.1232
     24 C          -1.2561    5.7890   -0.1523 C.ar    1  LIG1        0.0496
     25 C          -0.6958    6.9649    0.2978 C.ar    1  LIG1        0.0563
     26 C          -1.5376    8.1072    0.0290 C.ar    1  LIG1        0.0612
     27 C          -2.7335    7.7855   -0.5792 C.ar    1  LIG1        0.0455
     28 S          -2.8344    6.0804   -0.8547 S.2     1  LIG1       -0.0840
     29 N           0.4810    7.1068    0.9941 N.pl3   1  LIG1       -0.3561
     30 H           1.2189    6.4534    0.7754 H       1  LIG1        0.1424
     31 H           0.7992    8.0613    1.0820 H       1  LIG1        0.1424
     32 C          -1.0983    9.4258    0.3245 C.1     1  LIG1       -0.0666
     33 C          -0.6912   10.5276    0.6022 C.1     1  LIG1       -0.1138
     34 H          -0.3317   11.5097    0.8084 H       1  LIG1        0.1232
     35 C          -3.8189    8.6570   -0.9841 C.ar    1  LIG1        0.0490
     36 C          -4.4096    9.6913   -0.2872 C.ar    1  LIG1        0.0556
     37 C          -5.5336   10.2513   -1.0043 C.ar    1  LIG1        0.0529
     38 C          -5.7669    9.6241   -2.1947 C.ar    1  LIG1       -0.0065
     39 S          -4.6479    8.3706   -2.5016 S.2     1  LIG1       -0.0930
     40 H          -6.5397    9.8656   -2.9094 H       1  LIG1        0.0706
     41 N          -4.0916   10.1292    0.9757 N.pl3   1  LIG1       -0.3561
     42 H          -3.1202   10.0816    1.2455 H       1  LIG1        0.1424
     43 H          -4.5496   10.9884    1.2444 H       1  LIG1        0.1424
     44 C          -6.2929   11.3403   -0.4893 C.1     1  LIG1       -0.0673
     45 C          -6.9028   12.2655   -0.0160 C.1     1  LIG1       -0.1138
     46 H          -7.4605   13.0798    0.3861 H       1  LIG1        0.1232
@<TRIPOS>BOND
     1    12    11    1
     2    40    38    1
     3    39    38   ar
     4    39    35   ar
     5    38    37   ar
     6    11    10    3
     7    23    22    1
     8    10     3    1
     9    22    21    3
    10    37    44    1
    11    37    36   ar
    12    35    27    1
    13    35    36   ar
    14    28    27   ar
    15    28    24   ar
    16    21    15    1
    17     9     7    1
    18    27    26   ar
    19    44    45    3
    20    20    18    1
    21    19    18    1
    22    36    41    1
    23    15    16   ar
    24    15    14   ar
    25    24    16    1
    26    24    25   ar
    27    18    14    1
    28    16    17   ar
    29    45    46    1
    30    14    13   ar
    31    26    25   ar
    32    26    32    1
    33     3     4   ar
    34     3     2   ar
    35    25    29    1
    36    32    33    3
    37    13    17   ar
    38    13     4    1
    39     7     8    1
    40     7     2    1
    41    33    34    1
    42     4     5   ar
    43    30    29    1
    44     2     1   ar
    45    41    43    1
    46    41    42    1
    47    29    31    1
    48     1     5   ar
    49     1     6    1
