@<TRIPOS>MOLECULE
mol_data/opt/cam/geoms/mol2/5he5he-5he-5he-.out
 46 49 0 0 0
SMALL
GASTEIGER

@<TRIPOS>ATOM
      1 C          -1.7408   -1.4930    1.8246 C.ar    1  LIG1       -0.0018
      2 C          -0.9264   -1.7880    0.7738 C.ar    1  LIG1        0.0479
      3 C          -0.4336   -0.5978    0.1210 C.ar    1  LIG1        0.0606
      4 C          -0.8681    0.5712    0.7151 C.ar    1  LIG1        0.0449
      5 S          -1.8854    0.2127    2.0725 S.2     1  LIG1       -0.0930
      6 H          -2.2545   -2.1841    2.4761 H       1  LIG1        0.0712
      7 N          -0.5476   -3.0545    0.3491 N.pl3   1  LIG1       -0.3566
      8 H          -1.1919   -3.7939    0.5860 H       1  LIG1        0.1424
      9 H          -0.2559   -3.0933   -0.6179 H       1  LIG1        0.1424
     10 C           0.3532   -0.6746   -1.0598 C.1     1  LIG1       -0.0667
     11 C           1.0259   -0.7843   -2.0559 C.1     1  LIG1       -0.1138
     12 H           1.5939   -0.8640   -2.9542 H       1  LIG1        0.1232
     13 C          -0.5771    1.9459    0.3570 C.ar    1  LIG1        0.0496
     14 C           0.6287    2.5214    0.0240 C.ar    1  LIG1        0.0563
     15 C           0.5095    3.9413   -0.2100 C.ar    1  LIG1        0.0612
     16 C          -0.7659    4.4320   -0.0141 C.ar    1  LIG1        0.0455
     17 S          -1.8432    3.1530    0.4320 S.2     1  LIG1       -0.0840
     18 N           1.8545    1.8975   -0.0292 N.pl3   1  LIG1       -0.3561
     19 H           1.8543    0.9320   -0.3246 H       1  LIG1        0.1424
     20 H           2.5796    2.4491   -0.4655 H       1  LIG1        0.1424
     21 C           1.6190    4.7031   -0.6652 C.1     1  LIG1       -0.0666
     22 C           2.5901    5.3144   -1.0399 C.1     1  LIG1       -0.1138
     23 H           3.4285    5.8610   -1.4066 H       1  LIG1        0.1232
     24 C          -1.2566    5.7893   -0.1409 C.ar    1  LIG1        0.0496
     25 C          -0.6960    6.9643    0.3110 C.ar    1  LIG1        0.0563
     26 C          -1.5385    8.1070    0.0460 C.ar    1  LIG1        0.0612
     27 C          -2.7352    7.7863   -0.5612 C.ar    1  LIG1        0.0455
     28 S          -2.8360    6.0819   -0.8403 S.2     1  LIG1       -0.0840
     29 N           0.4817    7.1050    1.0061 N.pl3   1  LIG1       -0.3561
     30 H           1.2195    6.4523    0.7851 H       1  LIG1        0.1424
     31 H           0.7997    8.0594    1.0959 H       1  LIG1        0.1424
     32 C          -1.0991    9.4250    0.3438 C.1     1  LIG1       -0.0666
     33 C          -0.6919   10.5263    0.6234 C.1     1  LIG1       -0.1138
     34 H          -0.3322   11.5081    0.8308 H       1  LIG1        0.1232
     35 C          -3.8215    8.6584   -0.9625 C.ar    1  LIG1        0.0490
     36 C          -4.4113    9.6912   -0.2625 C.ar    1  LIG1        0.0556
     37 C          -5.5365   10.2524   -0.9766 C.ar    1  LIG1        0.0529
     38 C          -5.7717    9.6276   -2.1678 C.ar    1  LIG1       -0.0065
     39 S          -4.6529    8.3749   -2.4792 S.2     1  LIG1       -0.0930
     40 H          -6.5456    9.8704   -2.8809 H       1  LIG1        0.0706
     41 N          -4.0912   10.1266    1.0008 N.pl3   1  LIG1       -0.3561
     42 H          -3.1194   10.0786    1.2690 H       1  LIG1        0.1424
     43 H          -4.5490   10.9851    1.2720 H       1  LIG1        0.1424
     44 C          -6.2952   11.3402   -0.4581 C.1     1  LIG1       -0.0673
     45 C          -6.9045   12.2642    0.0181 C.1     1  LIG1       -0.1138
     46 H          -7.4620   13.0771    0.4235 H       1  LIG1        0.1232
@<TRIPOS>BOND
     1    12    11    1
     2    40    38    1
     3    39    38   ar
     4    39    35   ar
     5    38    37   ar
     6    11    10    3
     7    23    22    1
     8    10     3    1
     9    22    21    3
    10    37    44    1
    11    37    36   ar
    12    35    27    1
    13    35    36   ar
    14    28    27   ar
    15    28    24   ar
    16    21    15    1
    17     9     7    1
    18    27    26   ar
    19    20    18    1
    20    44    45    3
    21    19    18    1
    22    36    41    1
    23    15    16   ar
    24    15    14   ar
    25    24    16    1
    26    24    25   ar
    27    18    14    1
    28    16    17   ar
    29    45    46    1
    30    14    13   ar
    31    26    25   ar
    32    26    32    1
    33     3     4   ar
    34     3     2   ar
    35    25    29    1
    36    32    33    3
    37     7     8    1
    38     7     2    1
    39    13    17   ar
    40    13     4    1
    41    33    34    1
    42     4     5   ar
    43     2     1   ar
    44    30    29    1
    45    41    42    1
    46    41    43    1
    47    29    31    1
    48     1     5   ar
    49     1     6    1
