@<TRIPOS>MOLECULE
mol_data/opt/cam/geoms/mol2/5he5he-5he-.out
 35 37 0 0 0
SMALL
GASTEIGER

@<TRIPOS>ATOM
      1 C          -1.9631   -1.6691    1.1148 C.ar    1  LIG1       -0.0018
      2 C          -0.8370   -1.8721    0.3765 C.ar    1  LIG1        0.0479
      3 C          -0.2637   -0.6304   -0.0877 C.ar    1  LIG1        0.0606
      4 C          -0.9589    0.4850    0.3372 C.ar    1  LIG1        0.0449
      5 S          -2.3195    0.0131    1.3025 S.2     1  LIG1       -0.0930
      6 H          -2.5970   -2.4149    1.5708 H       1  LIG1        0.0712
      7 N          -0.2396   -3.0933    0.0950 N.pl3   1  LIG1       -0.3566
      8 H          -0.8614   -3.8877    0.1173 H       1  LIG1        0.1424
      9 H           0.3450   -3.0847   -0.7294 H       1  LIG1        0.1424
     10 C           0.8598   -0.6149   -0.9576 C.1     1  LIG1       -0.0667
     11 C           1.8197   -0.6462   -1.6885 C.1     1  LIG1       -0.1138
     12 H           2.6477   -0.6587   -2.3596 H       1  LIG1        0.1232
     13 C          -0.6847    1.8873    0.0892 C.ar    1  LIG1        0.0496
     14 C           0.5120    2.5651    0.1562 C.ar    1  LIG1        0.0563
     15 C           0.3541    3.9772   -0.1020 C.ar    1  LIG1        0.0612
     16 C          -0.9535    4.3592   -0.3210 C.ar    1  LIG1        0.0455
     17 S          -2.0059    2.9882   -0.2411 S.2     1  LIG1       -0.0840
     18 N           1.7395    2.0423    0.4940 N.pl3   1  LIG1       -0.3561
     19 H           1.9137    1.0877    0.2152 H       1  LIG1        0.1424
     20 H           2.5165    2.6612    0.3113 H       1  LIG1        0.1424
     21 C           1.4812    4.8393   -0.1759 C.1     1  LIG1       -0.0666
     22 C           2.4641    5.5386   -0.2184 C.1     1  LIG1       -0.1138
     23 H           3.3249    6.1627   -0.2947 H       1  LIG1        0.1232
     24 C          -1.4888    5.6787   -0.5942 C.ar    1  LIG1        0.0490
     25 C          -1.2045    6.8776    0.0270 C.ar    1  LIG1        0.0556
     26 C          -2.0273    7.9543   -0.4775 C.ar    1  LIG1        0.0529
     27 C          -2.9069    7.5426   -1.4375 C.ar    1  LIG1       -0.0065
     28 S          -2.7647    5.8749   -1.7795 S.2     1  LIG1       -0.0930
     29 H          -3.6161    8.1598   -1.9690 H       1  LIG1        0.0706
     30 N          -0.3328    7.0856    1.0691 N.pl3   1  LIG1       -0.3561
     31 H           0.4989    6.5141    1.0893 H       1  LIG1        0.1424
     32 H          -0.1645    8.0590    1.2799 H       1  LIG1        0.1424
     33 C          -1.9044    9.2893    0.0027 C.1     1  LIG1       -0.0673
     34 C          -1.7608   10.4044    0.4360 C.1     1  LIG1       -0.1138
     35 H          -1.6554   11.3972    0.8090 H       1  LIG1        0.1232
@<TRIPOS>BOND
     1    12    11    1
     2    29    27    1
     3    28    27   ar
     4    28    24   ar
     5    11    10    3
     6    27    26   ar
     7    10     3    1
     8     9     7    1
     9    24    16    1
    10    24    25   ar
    11    26    33    1
    12    26    25   ar
    13    16    17   ar
    14    16    15   ar
    15    23    22    1
    16    17    13   ar
    17    22    21    3
    18    21    15    1
    19    15    14   ar
    20     3     4   ar
    21     3     2   ar
    22    33    34    3
    23    25    30    1
    24    13    14   ar
    25    13     4    1
    26     7     8    1
    27     7     2    1
    28    14    18    1
    29    19    18    1
    30    20    18    1
    31     4     5   ar
    32     2     1   ar
    33    34    35    1
    34    30    31    1
    35    30    32    1
    36     1     5   ar
    37     1     6    1
