@<TRIPOS>MOLECULE
mol_data/opt/cam/geoms/mol2/5he5he-5he.out
 35 37 0 0 0
SMALL
GASTEIGER

@<TRIPOS>ATOM
      1 C          -1.9633   -1.6639    1.1299 C.ar    1  LIG1       -0.0018
      2 C          -0.8378   -1.8702    0.3914 C.ar    1  LIG1        0.0479
      3 C          -0.2647   -0.6305   -0.0784 C.ar    1  LIG1        0.0606
      4 C          -0.9594    0.4868    0.3425 C.ar    1  LIG1        0.0449
      5 S          -2.3192    0.0191    1.3109 S.2     1  LIG1       -0.0930
      6 H          -2.5969   -2.4077    1.5894 H       1  LIG1        0.0712
      7 N          -0.2409   -3.0926    0.1143 N.pl3   1  LIG1       -0.3566
      8 H          -0.8628   -3.8867    0.1405 H       1  LIG1        0.1424
      9 H           0.3429   -3.0874   -0.7106 H       1  LIG1        0.1424
     10 C           0.8580   -0.6187   -0.9493 C.1     1  LIG1       -0.0667
     11 C           1.8172   -0.6532   -1.6810 C.1     1  LIG1       -0.1138
     12 H           2.6446   -0.6686   -2.3527 H       1  LIG1        0.1232
     13 C          -0.6852    1.8880    0.0885 C.ar    1  LIG1        0.0496
     14 C           0.5117    2.5659    0.1517 C.ar    1  LIG1        0.0563
     15 C           0.3538    3.9770   -0.1121 C.ar    1  LIG1        0.0612
     16 C          -0.9539    4.3582   -0.3315 C.ar    1  LIG1        0.0455
     17 S          -2.0065    2.9878   -0.2450 S.2     1  LIG1       -0.0840
     18 N           1.7394    2.0443    0.4906 N.pl3   1  LIG1       -0.3561
     19 H           1.9132    1.0885    0.2156 H       1  LIG1        0.1424
     20 H           2.5164    2.6623    0.3047 H       1  LIG1        0.1424
     21 C           1.4810    4.8386   -0.1904 C.1     1  LIG1       -0.0666
     22 C           2.4640    5.5375   -0.2367 C.1     1  LIG1       -0.1138
     23 H           3.3248    6.1611   -0.3163 H       1  LIG1        0.1232
     24 C          -1.4892    5.6767   -0.6096 C.ar    1  LIG1        0.0490
     25 C          -1.2042    6.8781    0.0064 C.ar    1  LIG1        0.0556
     26 C          -2.0272    7.9529   -0.5018 C.ar    1  LIG1        0.0529
     27 C          -2.9078    7.5374   -1.4593 C.ar    1  LIG1       -0.0065
     28 S          -2.7662    5.8683   -1.7946 S.2     1  LIG1       -0.0930
     29 H          -3.6173    8.1526   -1.9927 H       1  LIG1        0.0706
     30 N          -0.3316    7.0902    1.0469 N.pl3   1  LIG1       -0.3561
     31 H           0.5001    6.5186    1.0687 H       1  LIG1        0.1424
     32 H          -0.1629    8.0645    1.2536 H       1  LIG1        0.1424
     33 C          -1.9037    9.2898   -0.0271 C.1     1  LIG1       -0.0673
     34 C          -1.7595   10.4067    0.4014 C.1     1  LIG1       -0.1138
     35 H          -1.6536   11.4010    0.7703 H       1  LIG1        0.1232
@<TRIPOS>BOND
     1    12    11    1
     2    29    27    1
     3    28    27   ar
     4    28    24   ar
     5    11    10    3
     6    27    26   ar
     7    10     3    1
     8     9     7    1
     9    24    16    1
    10    24    25   ar
    11    26    33    1
    12    26    25   ar
    13    16    17   ar
    14    16    15   ar
    15    23    22    1
    16    17    13   ar
    17    22    21    3
    18    21    15    1
    19    15    14   ar
    20     3     4   ar
    21     3     2   ar
    22    33    34    3
    23    25    30    1
    24    13    14   ar
    25    13     4    1
    26     7     8    1
    27     7     2    1
    28    14    18    1
    29    19    18    1
    30    20    18    1
    31     4     5   ar
    32     2     1   ar
    33    34    35    1
    34    30    31    1
    35    30    32    1
    36     1     5   ar
    37     1     6    1
