@<TRIPOS>MOLECULE
mol_data/opt/cam/geoms/mol2/5he5he5he-5he.out
 46 49 0 0 0
SMALL
GASTEIGER

@<TRIPOS>ATOM
      1 C          -1.7639   -1.4938    1.8049 C.ar    1  LIG1       -0.0018
      2 C          -0.9383   -1.7887    0.7629 C.ar    1  LIG1        0.0479
      3 C          -0.4378   -0.5984    0.1161 C.ar    1  LIG1        0.0606
      4 C          -0.8781    0.5705    0.7061 C.ar    1  LIG1        0.0449
      5 S          -1.9104    0.2118    2.0521 S.2     1  LIG1       -0.0930
      6 H          -2.2850   -2.1851    2.4504 H       1  LIG1        0.0712
      7 N          -0.5555   -3.0551    0.3416 N.pl3   1  LIG1       -0.3566
      8 H          -1.2027   -3.7944    0.5712 H       1  LIG1        0.1424
      9 H          -0.2535   -3.0935   -0.6222 H       1  LIG1        0.1424
     10 C           0.3616   -0.6749   -1.0561 C.1     1  LIG1       -0.0667
     11 C           1.0450   -0.7845   -2.0450 C.1     1  LIG1       -0.1138
     12 H           1.6229   -0.8641   -2.9370 H       1  LIG1        0.1232
     13 C          -0.5826    1.9453    0.3520 C.ar    1  LIG1        0.0496
     14 C           0.6271    2.5205    0.0329 C.ar    1  LIG1        0.0563
     15 C           0.5110    3.9405   -0.2019 C.ar    1  LIG1        0.0612
     16 C          -0.7663    4.4316   -0.0202 C.ar    1  LIG1        0.0455
     17 S          -1.8490    3.1528    0.4134 S.2     1  LIG1       -0.0840
     18 N           1.8532    1.8963   -0.0066 N.pl3   1  LIG1       -0.3561
     19 H           1.8561    0.9309   -0.3025 H       1  LIG1        0.1424
     20 H           2.5834    2.4478   -0.4345 H       1  LIG1        0.1424
     21 C           1.6259    4.7023   -0.6439 C.1     1  LIG1       -0.0666
     22 C           2.6013    5.3136   -1.0071 C.1     1  LIG1       -0.1138
     23 H           3.4440    5.8599   -1.3644 H       1  LIG1        0.1232
     24 C          -1.2550    5.7892   -0.1522 C.ar    1  LIG1        0.0496
     25 C          -0.6989    6.9637    0.3063 C.ar    1  LIG1        0.0563
     26 C          -1.5377    8.1069    0.0323 C.ar    1  LIG1        0.0612
     27 C          -2.7278    7.7870   -0.5883 C.ar    1  LIG1        0.0455
     28 S          -2.8263    6.0828   -0.8692 S.2     1  LIG1       -0.0840
     29 N           0.4712    7.1035    1.0144 N.pl3   1  LIG1       -0.3561
     30 H           1.2110    6.4506    0.8011 H       1  LIG1        0.1424
     31 H           0.7887    8.0578    1.1078 H       1  LIG1        0.1424
     32 C          -1.1010    9.4246    0.3354 C.1     1  LIG1       -0.0666
     33 C          -0.6964   10.5256    0.6198 C.1     1  LIG1       -0.1138
     34 H          -0.3385   11.5071    0.8319 H       1  LIG1        0.1232
     35 C          -3.8090    8.6599   -1.0016 C.ar    1  LIG1        0.0490
     36 C          -4.4062    9.6926   -0.3077 C.ar    1  LIG1        0.0556
     37 C          -5.5230   10.2546   -1.0343 C.ar    1  LIG1        0.0529
     38 C          -5.7449    9.6305   -2.2285 C.ar    1  LIG1       -0.0065
     39 S          -4.6232    8.3775   -2.5277 S.2     1  LIG1       -0.0930
     40 H          -6.5107    9.8740   -2.9501 H       1  LIG1        0.0706
     41 N          -4.1004   10.1271    0.9593 N.pl3   1  LIG1       -0.3561
     42 H          -3.1316   10.0787    1.2384 H       1  LIG1        0.1424
     43 H          -4.5609   10.9857    1.2257 H       1  LIG1        0.1424
     44 C          -6.2871   11.3425   -0.5239 C.1     1  LIG1       -0.0673
     45 C          -6.9013   12.2666   -0.0542 C.1     1  LIG1       -0.1138
     46 H          -7.4627   13.0800    0.3445 H       1  LIG1        0.1232
@<TRIPOS>BOND
     1    40    38    1
     2    12    11    1
     3    39    38   ar
     4    39    35   ar
     5    38    37   ar
     6    11    10    3
     7    23    22    1
     8    10     3    1
     9    37    44    1
    10    37    36   ar
    11    22    21    3
    12    35    27    1
    13    35    36   ar
    14    28    27   ar
    15    28    24   ar
    16    21    15    1
    17     9     7    1
    18    27    26   ar
    19    44    45    3
    20    20    18    1
    21    36    41    1
    22    19    18    1
    23    15    16   ar
    24    15    14   ar
    25    24    16    1
    26    24    25   ar
    27    45    46    1
    28    16    17   ar
    29    18    14    1
    30    26    25   ar
    31    26    32    1
    32    14    13   ar
    33     3     4   ar
    34     3     2   ar
    35    25    29    1
    36    32    33    3
    37     7     8    1
    38     7     2    1
    39    13    17   ar
    40    13     4    1
    41    33    34    1
    42     4     5   ar
    43     2     1   ar
    44    30    29    1
    45    41    43    1
    46    41    42    1
    47    29    31    1
    48     1     5   ar
    49     1     6    1
