@<TRIPOS>MOLECULE
mol_data/opt/cam/geoms/mol2/5he5he5he-.out
 35 37 0 0 0
SMALL
GASTEIGER

@<TRIPOS>ATOM
      1 C          -1.9835   -1.6648    1.0999 C.ar    1  LIG1       -0.0018
      2 C          -0.8483   -1.8708    0.3765 C.ar    1  LIG1        0.0479
      3 C          -0.2677   -0.6308   -0.0830 C.ar    1  LIG1        0.0606
      4 C          -0.9669    0.4864    0.3305 C.ar    1  LIG1        0.0449
      5 S          -2.3402    0.0181    1.2794 S.2     1  LIG1       -0.0930
      6 H          -2.6240   -2.4089    1.5494 H       1  LIG1        0.0712
      7 N          -0.2489   -3.0933    0.1052 N.pl3   1  LIG1       -0.3566
      8 H          -0.8718   -3.8868    0.1213 H       1  LIG1        0.1424
      9 H           0.3462   -3.0871   -0.7117 H       1  LIG1        0.1424
     10 C           0.8668   -0.6184   -0.9385 C.1     1  LIG1       -0.0667
     11 C           1.8360   -0.6524   -1.6571 C.1     1  LIG1       -0.1138
     12 H           2.6724   -0.6673   -2.3175 H       1  LIG1        0.1232
     13 C          -0.6879    1.8878    0.0831 C.ar    1  LIG1        0.0496
     14 C           0.5086    2.5644    0.1639 C.ar    1  LIG1        0.0563
     15 C           0.3557    3.9761   -0.0993 C.ar    1  LIG1        0.0612
     16 C          -0.9485    4.3591   -0.3358 C.ar    1  LIG1        0.0455
     17 S          -2.0035    2.9896   -0.2663 S.2     1  LIG1       -0.0840
     18 N           1.7311    2.0409    0.5185 N.pl3   1  LIG1       -0.3561
     19 H           1.9077    1.0855    0.2440 H       1  LIG1        0.1424
     20 H           2.5111    2.6585    0.3444 H       1  LIG1        0.1424
     21 C           1.4847    4.8368   -0.1606 C.1     1  LIG1       -0.0666
     22 C           2.4689    5.5348   -0.1920 C.1     1  LIG1       -0.1138
     23 H           3.3313    6.1577   -0.2587 H       1  LIG1        0.1232
     24 C          -1.4787    5.6787   -0.6186 C.ar    1  LIG1        0.0490
     25 C          -1.2009    6.8786    0.0036 C.ar    1  LIG1        0.0556
     26 C          -2.0159    7.9552   -0.5136 C.ar    1  LIG1        0.0529
     27 C          -2.8837    7.5424   -1.4839 C.ar    1  LIG1       -0.0065
     28 S          -2.7392    5.8739   -1.8205 S.2     1  LIG1       -0.0930
     29 H          -3.5853    8.1594   -2.0257 H       1  LIG1        0.0706
     30 N          -0.3424    7.0878    1.0564 N.pl3   1  LIG1       -0.3561
     31 H           0.4883    6.5153    1.0884 H       1  LIG1        0.1424
     32 H          -0.1756    8.0615    1.2672 H       1  LIG1        0.1424
     33 C          -1.8976    9.2910   -0.0347 C.1     1  LIG1       -0.0673
     34 C          -1.7582   10.4070    0.3980 C.1     1  LIG1       -0.1138
     35 H          -1.6564   11.4004    0.7701 H       1  LIG1        0.1232
@<TRIPOS>BOND
     1    12    11    1
     2    29    27    1
     3    28    27   ar
     4    28    24   ar
     5    11    10    3
     6    27    26   ar
     7    10     3    1
     8     9     7    1
     9    24    16    1
    10    24    25   ar
    11    26    33    1
    12    26    25   ar
    13    16    17   ar
    14    16    15   ar
    15    17    13   ar
    16    23    22    1
    17    22    21    3
    18    21    15    1
    19    15    14   ar
    20     3     4   ar
    21     3     2   ar
    22    33    34    3
    23    25    30    1
    24    13    14   ar
    25    13     4    1
    26     7     8    1
    27     7     2    1
    28    14    18    1
    29    19    18    1
    30     4     5   ar
    31    20    18    1
    32     2     1   ar
    33    34    35    1
    34    30    31    1
    35    30    32    1
    36     1     5   ar
    37     1     6    1
