@<TRIPOS>MOLECULE
mol_data/opt/cam/geoms/mol2/5he5he-5he-5he.out
 46 49 0 0 0
SMALL
GASTEIGER

@<TRIPOS>ATOM
      1 C          -1.7400   -1.4972    1.8157 C.ar    1  LIG1       -0.0018
      2 C          -0.9263   -1.7899    0.7637 C.ar    1  LIG1        0.0479
      3 C          -0.4338   -0.5982    0.1133 C.ar    1  LIG1        0.0606
      4 C          -0.8677    0.5695    0.7105 C.ar    1  LIG1        0.0449
      5 S          -1.8843    0.2079    2.0676 S.2     1  LIG1       -0.0930
      6 H          -2.2534   -2.1898    2.4659 H       1  LIG1        0.0712
      7 N          -0.5479   -3.0554    0.3357 N.pl3   1  LIG1       -0.3566
      8 H          -1.1922   -3.7953    0.5714 H       1  LIG1        0.1424
      9 H          -0.2569   -3.0919   -0.6315 H       1  LIG1        0.1424
     10 C           0.3522   -0.6723   -1.0681 C.1     1  LIG1       -0.0667
     11 C           1.0242   -0.7799   -2.0649 C.1     1  LIG1       -0.1138
     12 H           1.5919   -0.8575   -2.9636 H       1  LIG1        0.1232
     13 C          -0.5768    1.9450    0.3554 C.ar    1  LIG1        0.0496
     14 C           0.6289    2.5213    0.0234 C.ar    1  LIG1        0.0563
     15 C           0.5095    3.9416   -0.2075 C.ar    1  LIG1        0.0612
     16 C          -0.7658    4.4319   -0.0103 C.ar    1  LIG1        0.0455
     17 S          -1.8430    3.1519    0.4334 S.2     1  LIG1       -0.0840
     18 N           1.8547    1.8975   -0.0314 N.pl3   1  LIG1       -0.3561
     19 H           1.8545    0.9327   -0.3290 H       1  LIG1        0.1424
     20 H           2.5796    2.4501   -0.4666 H       1  LIG1        0.1424
     21 C           1.6190    4.7046   -0.6610 C.1     1  LIG1       -0.0666
     22 C           2.5899    5.3169   -1.0343 C.1     1  LIG1       -0.1138
     23 H           3.4281    5.8643   -1.4005 H       1  LIG1        0.1232
     24 C          -1.2564    5.7895   -0.1342 C.ar    1  LIG1        0.0496
     25 C          -0.6956    6.9634    0.3200 C.ar    1  LIG1        0.0563
     26 C          -1.5380    8.1068    0.0577 C.ar    1  LIG1        0.0612
     27 C          -2.7349    7.7876   -0.5498 C.ar    1  LIG1        0.0455
     28 S          -2.8360    6.0837   -0.8326 S.2     1  LIG1       -0.0840
     29 N           0.4825    7.1025    1.0150 N.pl3   1  LIG1       -0.3561
     30 H           1.2200    6.4502    0.7921 H       1  LIG1        0.1424
     31 H           0.8006    8.0566    1.1065 H       1  LIG1        0.1424
     32 C          -1.0983    9.4241    0.3582 C.1     1  LIG1       -0.0666
     33 C          -0.6910   10.5248    0.6401 C.1     1  LIG1       -0.1138
     34 H          -0.3311   11.5060    0.8500 H       1  LIG1        0.1232
     35 C          -3.8211    8.6607   -0.9491 C.ar    1  LIG1        0.0490
     36 C          -4.4108    9.6919   -0.2466 C.ar    1  LIG1        0.0556
     37 C          -5.5360   10.2548   -0.9593 C.ar    1  LIG1        0.0529
     38 C          -5.7713    9.6328   -2.1520 C.ar    1  LIG1       -0.0065
     39 S          -4.6526    8.3808   -2.4663 S.2     1  LIG1       -0.0930
     40 H          -6.5454    9.8773   -2.8644 H       1  LIG1        0.0706
     41 N          -4.0906   10.1243    1.0177 N.pl3   1  LIG1       -0.3561
     42 H          -3.1187   10.0756    1.2856 H       1  LIG1        0.1424
     43 H          -4.5483   10.9822    1.2909 H       1  LIG1        0.1424
     44 C          -6.2946   11.3414   -0.4382 C.1     1  LIG1       -0.0673
     45 C          -6.9038   12.2644    0.0402 C.1     1  LIG1       -0.1138
     46 H          -7.4609   13.0769    0.4467 H       1  LIG1        0.1232
@<TRIPOS>BOND
     1    12    11    1
     2    40    38    1
     3    39    38   ar
     4    39    35   ar
     5    38    37   ar
     6    11    10    3
     7    23    22    1
     8    10     3    1
     9    22    21    3
    10    37    44    1
    11    37    36   ar
    12    35    27    1
    13    35    36   ar
    14    28    27   ar
    15    28    24   ar
    16    21    15    1
    17     9     7    1
    18    27    26   ar
    19    20    18    1
    20    44    45    3
    21    19    18    1
    22    36    41    1
    23    15    16   ar
    24    15    14   ar
    25    24    16    1
    26    24    25   ar
    27    18    14    1
    28    16    17   ar
    29    14    13   ar
    30    45    46    1
    31    26    25   ar
    32    26    32    1
    33     3     4   ar
    34     3     2   ar
    35    25    29    1
    36     7     8    1
    37     7     2    1
    38    13    17   ar
    39    13     4    1
    40    32    33    3
    41    33    34    1
    42     4     5   ar
    43     2     1   ar
    44    30    29    1
    45    29    31    1
    46    41    42    1
    47    41    43    1
    48     1     5   ar
    49     1     6    1
