@<TRIPOS>MOLECULE
mol_data/opt/cam/geoms/mol2/5he5he-5he5he-.out
 46 49 0 0 0
SMALL
GASTEIGER

@<TRIPOS>ATOM
      1 C          -1.7317   -1.4913    1.8365 C.ar    1  LIG1       -0.0018
      2 C          -0.9239   -1.7875    0.7810 C.ar    1  LIG1        0.0479
      3 C          -0.4348   -0.5980    0.1242 C.ar    1  LIG1        0.0606
      4 C          -0.8651    0.5716    0.7201 C.ar    1  LIG1        0.0449
      5 S          -1.8742    0.2146    2.0839 S.2     1  LIG1       -0.0930
      6 H          -2.2417   -2.1818    2.4918 H       1  LIG1        0.0712
      7 N          -0.5482   -3.0544    0.3549 N.pl3   1  LIG1       -0.3566
      8 H          -1.1913   -3.7935    0.5965 H       1  LIG1        0.1424
      9 H          -0.2626   -3.0941   -0.6137 H       1  LIG1        0.1424
     10 C           0.3447   -0.6761   -1.0613 C.1     1  LIG1       -0.0667
     11 C           1.0111   -0.7869   -2.0615 C.1     1  LIG1       -0.1138
     12 H           1.5738   -0.8676   -2.9631 H       1  LIG1        0.1232
     13 C          -0.5758    1.9459    0.3590 C.ar    1  LIG1        0.0496
     14 C           0.6282    2.5209    0.0186 C.ar    1  LIG1        0.0563
     15 C           0.5079    3.9405   -0.2161 C.ar    1  LIG1        0.0612
     16 C          -0.7662    4.4317   -0.0134 C.ar    1  LIG1        0.0455
     17 S          -1.8412    3.1534    0.4403 S.2     1  LIG1       -0.0840
     18 N           1.8535    1.8967   -0.0410 N.pl3   1  LIG1       -0.3561
     19 H           1.8514    0.9309   -0.3355 H       1  LIG1        0.1424
     20 H           2.5762    2.4477   -0.4820 H       1  LIG1        0.1424
     21 C           1.6150    4.7018   -0.6781 C.1     1  LIG1       -0.0666
     22 C           2.5840    5.3127   -1.0587 C.1     1  LIG1       -0.1138
     23 H           3.4202    5.8587   -1.4313 H       1  LIG1        0.1232
     24 C          -1.2572    5.7890   -0.1388 C.ar    1  LIG1        0.0496
     25 C          -0.6936    6.9643    0.3086 C.ar    1  LIG1        0.0563
     26 C          -1.5371    8.1070    0.0473 C.ar    1  LIG1        0.0612
     27 C          -2.7375    7.7862   -0.5526 C.ar    1  LIG1        0.0455
     28 S          -2.8406    6.0815   -0.8294 S.2     1  LIG1       -0.0840
     29 N           0.4883    7.1052    0.9966 N.pl3   1  LIG1       -0.3561
     30 H           1.2245    6.4520    0.7717 H       1  LIG1        0.1424
     31 H           0.8072    8.0596    1.0834 H       1  LIG1        0.1424
     32 C          -1.0955    9.4252    0.3412 C.1     1  LIG1       -0.0666
     33 C          -0.6864   10.5266    0.6174 C.1     1  LIG1       -0.1138
     34 H          -0.3251   11.5084    0.8222 H       1  LIG1        0.1232
     35 C          -3.8257    8.6583   -0.9486 C.ar    1  LIG1        0.0490
     36 C          -4.4112    9.6919   -0.2461 C.ar    1  LIG1        0.0556
     37 C          -5.5403   10.2528   -0.9543 C.ar    1  LIG1        0.0529
     38 C          -5.7823    9.6271   -2.1437 C.ar    1  LIG1       -0.0065
     39 S          -4.6656    8.3739   -2.4603 S.2     1  LIG1       -0.0930
     40 H          -6.5602    9.8696   -2.8526 H       1  LIG1        0.0706
     41 N          -4.0840   10.1282    1.0150 N.pl3   1  LIG1       -0.3561
     42 H          -3.1106   10.0801    1.2778 H       1  LIG1        0.1424
     43 H          -4.5400   10.9870    1.2881 H       1  LIG1        0.1424
     44 C          -6.2957   11.3413   -0.4325 C.1     1  LIG1       -0.0673
     45 C          -6.9020   12.2659    0.0464 C.1     1  LIG1       -0.1138
     46 H          -7.4567   13.0798    0.4534 H       1  LIG1        0.1232
@<TRIPOS>BOND
     1    12    11    1
     2    40    38    1
     3    39    38   ar
     4    39    35   ar
     5    38    37   ar
     6    11    10    3
     7    23    22    1
     8    10     3    1
     9    22    21    3
    10    37    44    1
    11    37    36   ar
    12    35    27    1
    13    35    36   ar
    14    28    27   ar
    15    28    24   ar
    16    21    15    1
    17     9     7    1
    18    27    26   ar
    19    20    18    1
    20    44    45    3
    21    19    18    1
    22    36    41    1
    23    15    16   ar
    24    15    14   ar
    25    24    16    1
    26    24    25   ar
    27    18    14    1
    28    16    17   ar
    29    14    13   ar
    30    45    46    1
    31    26    25   ar
    32    26    32    1
    33     3     4   ar
    34     3     2   ar
    35    25    29    1
    36    32    33    3
    37     7     8    1
    38     7     2    1
    39    13    17   ar
    40    13     4    1
    41    33    34    1
    42     4     5   ar
    43    30    29    1
    44     2     1   ar
    45    29    31    1
    46    41    42    1
    47    41    43    1
    48     1     5   ar
    49     1     6    1
