@<TRIPOS>MOLECULE
mol_data/opt/cam/geoms/mol2/5he5he-.out
 24 25 0 0 0
SMALL
GASTEIGER

@<TRIPOS>ATOM
      1 C          -2.0887   -1.6995   -0.6523 C.ar    1  LIG1       -0.0018
      2 C          -0.7911   -1.8274   -0.2579 C.ar    1  LIG1        0.0479
      3 C          -0.2073   -0.5572    0.1094 C.ar    1  LIG1        0.0606
      4 C          -1.0837    0.5014   -0.0226 C.ar    1  LIG1        0.0449
      5 S          -2.6206   -0.0543   -0.6047 S.2     1  LIG1       -0.0930
      6 H          -2.7707   -2.4859   -0.9397 H       1  LIG1        0.0712
      7 N          -0.0794   -3.0106   -0.1263 N.pl3   1  LIG1       -0.3566
      8 H          -0.3702   -3.7623   -0.7323 H       1  LIG1        0.1424
      9 H           0.9233   -2.8897   -0.1008 H       1  LIG1        0.1424
     10 C           1.1232   -0.4727    0.6039 C.1     1  LIG1       -0.0667
     11 C           2.2628   -0.4522    0.9967 C.1     1  LIG1       -0.1138
     12 H           3.2580   -0.4010    1.3739 H       1  LIG1        0.1232
     13 C          -0.8584    1.9144    0.2244 C.ar    1  LIG1        0.0489
     14 C           0.1942    2.7033   -0.1846 C.ar    1  LIG1        0.0556
     15 C           0.0101    4.0889    0.1821 C.ar    1  LIG1        0.0529
     16 C          -1.1623    4.3042    0.8492 C.ar    1  LIG1       -0.0065
     17 S          -2.0618    2.8673    1.0680 S.2     1  LIG1       -0.0930
     18 H          -1.5232    5.2491    1.2274 H       1  LIG1        0.0706
     19 N           1.3203    2.2998   -0.8578 N.pl3   1  LIG1       -0.3561
     20 H           1.3203    1.3703   -1.2455 H       1  LIG1        0.1424
     21 H           1.7764    3.0065   -1.4145 H       1  LIG1        0.1424
     22 C           0.9576    5.0963   -0.1569 C.1     1  LIG1       -0.0673
     23 C           1.7777    5.9197   -0.4752 C.1     1  LIG1       -0.1138
     24 H           2.4969    6.6612   -0.7370 H       1  LIG1        0.1232
@<TRIPOS>BOND
     1    21    19    1
     2    20    19    1
     3     6     1    1
     4    19    14    1
     5    24    23    1
     6     8     7    1
     7     1     5   ar
     8     1     2   ar
     9     5     4   ar
    10    23    22    3
    11     2     7    1
    12     2     3   ar
    13    14    15   ar
    14    14    13   ar
    15    22    15    1
    16     7     9    1
    17     4     3   ar
    18     4    13    1
    19     3    10    1
    20    15    16   ar
    21    13    17   ar
    22    10    11    3
    23    16    17   ar
    24    16    18    1
    25    11    12    1
