@<TRIPOS>MOLECULE
mol_data/opt/cam/geoms/mol2/5he5he5he.out
 35 37 0 0 0
SMALL
GASTEIGER

@<TRIPOS>ATOM
      1 C          -1.9803   -1.6607    1.1156 C.ar    1  LIG1       -0.0018
      2 C          -0.8458   -1.8691    0.3917 C.ar    1  LIG1        0.0479
      3 C          -0.2662   -0.6307   -0.0735 C.ar    1  LIG1        0.0606
      4 C          -0.9655    0.4878    0.3363 C.ar    1  LIG1        0.0449
      5 S          -2.3375    0.0228    1.2887 S.2     1  LIG1       -0.0930
      6 H          -2.6199   -2.4033    1.5688 H       1  LIG1        0.0712
      7 N          -0.2460   -3.0924    0.1247 N.pl3   1  LIG1       -0.3566
      8 H          -0.8685   -3.8862    0.1449 H       1  LIG1        0.1424
      9 H           0.3481   -3.0893   -0.6928 H       1  LIG1        0.1424
     10 C           0.8673   -0.6213   -0.9303 C.1     1  LIG1       -0.0667
     11 C           1.8356   -0.6578   -1.6499 C.1     1  LIG1       -0.1138
     12 H           2.6714   -0.6749   -2.3111 H       1  LIG1        0.1232
     13 C          -0.6875    1.8883    0.0827 C.ar    1  LIG1        0.0496
     14 C           0.5088    2.5657    0.1594 C.ar    1  LIG1        0.0563
     15 C           0.3550    3.9763   -0.1095 C.ar    1  LIG1        0.0612
     16 C          -0.9497    4.3577   -0.3461 C.ar    1  LIG1        0.0455
     17 S          -2.0039    2.9880   -0.2697 S.2     1  LIG1       -0.0840
     18 N           1.7319    2.0443    0.5147 N.pl3   1  LIG1       -0.3561
     19 H           1.9087    1.0878    0.2439 H       1  LIG1        0.1424
     20 H           2.5115    2.6615    0.3372 H       1  LIG1        0.1424
     21 C           1.4835    4.8372   -0.1756 C.1     1  LIG1       -0.0666
     22 C           2.4674    5.5355   -0.2111 C.1     1  LIG1       -0.1138
     23 H           3.3294    6.1585   -0.2814 H       1  LIG1        0.1232
     24 C          -1.4807    5.6759   -0.6338 C.ar    1  LIG1        0.0490
     25 C          -1.2029    6.8785   -0.0170 C.ar    1  LIG1        0.0556
     26 C          -2.0189    7.9525   -0.5379 C.ar    1  LIG1        0.0529
     27 C          -2.8875    7.5354   -1.5055 C.ar    1  LIG1       -0.0065
     28 S          -2.7425    5.8655   -1.8353 S.2     1  LIG1       -0.0930
     29 H          -3.5900    8.1497   -2.0491 H       1  LIG1        0.0706
     30 N          -0.3434    7.0925    1.0341 N.pl3   1  LIG1       -0.3561
     31 H           0.4878    6.5206    1.0674 H       1  LIG1        0.1424
     32 H          -0.1768    8.0671    1.2406 H       1  LIG1        0.1424
     33 C          -1.9007    9.2904   -0.0646 C.1     1  LIG1       -0.0673
     34 C          -1.7614   10.4082    0.3633 C.1     1  LIG1       -0.1138
     35 H          -1.6597   11.4032    0.7312 H       1  LIG1        0.1232
@<TRIPOS>BOND
     1    12    11    1
     2    29    27    1
     3    28    27   ar
     4    28    24   ar
     5    11    10    3
     6    27    26   ar
     7    10     3    1
     8     9     7    1
     9    24    16    1
    10    24    25   ar
    11    26    33    1
    12    26    25   ar
    13    16    17   ar
    14    16    15   ar
    15    23    22    1
    16    17    13   ar
    17    22    21    3
    18    21    15    1
    19    15    14   ar
    20     3     4   ar
    21     3     2   ar
    22    33    34    3
    23    25    30    1
    24    13    14   ar
    25    13     4    1
    26     7     8    1
    27     7     2    1
    28    14    18    1
    29    19    18    1
    30     4     5   ar
    31    20    18    1
    32    34    35    1
    33     2     1   ar
    34    30    31    1
    35    30    32    1
    36     1     5   ar
    37     1     6    1
