@<TRIPOS>MOLECULE
mol_data/opt/cam/geoms/mol2/5he5he-5he5he.out
 46 49 0 0 0
SMALL
GASTEIGER

@<TRIPOS>ATOM
      1 C          -1.7254   -1.4950    1.8295 C.ar    1  LIG1       -0.0018
      2 C          -0.9185   -1.7887    0.7726 C.ar    1  LIG1        0.0479
      3 C          -0.4307   -0.5976    0.1175 C.ar    1  LIG1        0.0606
      4 C          -0.8612    0.5706    0.7161 C.ar    1  LIG1        0.0449
      5 S          -1.8687    0.2104    2.0803 S.2     1  LIG1       -0.0930
      6 H          -2.2343   -2.1870    2.4839 H       1  LIG1        0.0712
      7 N          -0.5424   -3.0546    0.3438 N.pl3   1  LIG1       -0.3566
      8 H          -1.1848   -3.7945    0.5846 H       1  LIG1        0.1424
      9 H          -0.2578   -3.0923   -0.6253 H       1  LIG1        0.1424
     10 C           0.3475   -0.6730   -1.0689 C.1     1  LIG1       -0.0667
     11 C           1.0130   -0.7815   -2.0700 C.1     1  LIG1       -0.1138
     12 H           1.5748   -0.8601   -2.9724 H       1  LIG1        0.1232
     13 C          -0.5731    1.9458    0.3574 C.ar    1  LIG1        0.0496
     14 C           0.6301    2.5221    0.0167 C.ar    1  LIG1        0.0563
     15 C           0.5087    3.9422   -0.2151 C.ar    1  LIG1        0.0612
     16 C          -0.7655    4.4322   -0.0102 C.ar    1  LIG1        0.0455
     17 S          -1.8392    3.1523    0.4423 S.2     1  LIG1       -0.0840
     18 N           1.8558    1.8988   -0.0453 N.pl3   1  LIG1       -0.3561
     19 H           1.8540    0.9336   -0.3417 H       1  LIG1        0.1424
     20 H           2.5777    2.4511   -0.4860 H       1  LIG1        0.1424
     21 C           1.6148    4.7050   -0.6769 C.1     1  LIG1       -0.0666
     22 C           2.5831    5.3173   -1.0573 C.1     1  LIG1       -0.1138
     23 H           3.4187    5.8644   -1.4295 H       1  LIG1        0.1232
     24 C          -1.2575    5.7894   -0.1325 C.ar    1  LIG1        0.0496
     25 C          -0.6941    6.9642    0.3164 C.ar    1  LIG1        0.0563
     26 C          -1.5387    8.1068    0.0582 C.ar    1  LIG1        0.0612
     27 C          -2.7395    7.7864   -0.5410 C.ar    1  LIG1        0.0455
     28 S          -2.8418    6.0821   -0.8208 S.2     1  LIG1       -0.0840
     29 N           0.4885    7.1046    1.0033 N.pl3   1  LIG1       -0.3561
     30 H           1.2249    6.4523    0.7764 H       1  LIG1        0.1424
     31 H           0.8068    8.0590    1.0915 H       1  LIG1        0.1424
     32 C          -1.0975    9.4247    0.3540 C.1     1  LIG1       -0.0666
     33 C          -0.6888   10.5259    0.6317 C.1     1  LIG1       -0.1138
     34 H          -0.3283   11.5078    0.8376 H       1  LIG1        0.1232
     35 C          -3.8287    8.6585   -0.9342 C.ar    1  LIG1        0.0490
     36 C          -4.4141    9.6904   -0.2292 C.ar    1  LIG1        0.0556
     37 C          -5.5442   10.2520   -0.9352 C.ar    1  LIG1        0.0529
     38 C          -5.7872    9.6283   -2.1255 C.ar    1  LIG1       -0.0065
     39 S          -4.6701    8.3763   -2.4455 S.2     1  LIG1       -0.0930
     40 H          -6.5660    9.8715   -2.8330 H       1  LIG1        0.0706
     41 N          -4.0857   10.1247    1.0323 N.pl3   1  LIG1       -0.3561
     42 H          -3.1120   10.0768    1.2939 H       1  LIG1        0.1424
     43 H          -4.5419   10.9828    1.3074 H       1  LIG1        0.1424
     44 C          -6.2997   11.3390   -0.4106 C.1     1  LIG1       -0.0673
     45 C          -6.9061   12.2624    0.0706 C.1     1  LIG1       -0.1138
     46 H          -7.4609   13.0752    0.4800 H       1  LIG1        0.1232
@<TRIPOS>BOND
     1    12    11    1
     2    40    38    1
     3    39    38   ar
     4    39    35   ar
     5    38    37   ar
     6    11    10    3
     7    23    22    1
     8    10     3    1
     9    22    21    3
    10    37    44    1
    11    37    36   ar
    12    35    27    1
    13    35    36   ar
    14    28    27   ar
    15    28    24   ar
    16    21    15    1
    17     9     7    1
    18    27    26   ar
    19    20    18    1
    20    44    45    3
    21    19    18    1
    22    36    41    1
    23    15    16   ar
    24    15    14   ar
    25    24    16    1
    26    24    25   ar
    27    18    14    1
    28    16    17   ar
    29    14    13   ar
    30    26    25   ar
    31    26    32    1
    32    45    46    1
    33     3     4   ar
    34     3     2   ar
    35    25    29    1
    36     7     8    1
    37     7     2    1
    38    32    33    3
    39    13    17   ar
    40    13     4    1
    41    33    34    1
    42     4     5   ar
    43     2     1   ar
    44    30    29    1
    45    29    31    1
    46    41    42    1
    47    41    43    1
    48     1     5   ar
    49     1     6    1
