@<TRIPOS>MOLECULE
mol_data/opt/cam/geoms/mol2/5hf.out
 12 12 0 0 0
SMALL
GASTEIGER

@<TRIPOS>ATOM
      1 C          -2.1360   -1.6903   -0.0204 C.ar    1  LIG1        0.0000
      2 C          -0.7748   -1.6833   -0.0418 C.ar    1  LIG1        0.0737
      3 C          -0.2581   -0.3417   -0.0150 C.ar    1  LIG1        0.1444
      4 C          -1.2196    0.6150    0.0315 C.ar    1  LIG1        0.0190
      5 S          -2.7995   -0.0900    0.0431 S.2     1  LIG1       -0.0995
      6 H          -2.7894   -2.5501   -0.0210 H       1  LIG1        0.0713
      7 H          -1.0896    1.6873    0.0528 H       1  LIG1        0.0731
      8 N           0.0913   -2.7732   -0.0318 N.pl3   1  LIG1       -0.3547
      9 H          -0.2774   -3.6093   -0.4607 H       1  LIG1        0.1424
     10 H           1.0133   -2.5442   -0.3772 H       1  LIG1        0.1424
     11 O           1.0964   -0.1873   -0.0553 O.3     1  LIG1       -0.5044
     12 H           1.3170    0.7506   -0.0492 H       1  LIG1        0.2922
@<TRIPOS>BOND
     1     9     8    1
     2    10     8    1
     3    11    12    1
     4    11     3    1
     5     2     8    1
     6     2     1   ar
     7     2     3   ar
     8     6     1    1
     9     1     5   ar
    10     3     4   ar
    11     4     5   ar
    12     4     7    1
