@<TRIPOS>MOLECULE
mol_data/opt/cam/geoms/mol2/5hf5hf-.out
 22 23 0 0 0
SMALL
GASTEIGER

@<TRIPOS>ATOM
      1 C          -2.1449   -1.8241   -0.3530 C.ar    1  LIG1        0.0006
      2 C          -0.8361   -1.8305    0.0165 C.ar    1  LIG1        0.0744
      3 C          -0.3076   -0.4987    0.1513 C.ar    1  LIG1        0.1527
      4 C          -1.2259    0.4856   -0.1176 C.ar    1  LIG1        0.0710
      5 S          -2.7633   -0.2172   -0.5643 S.2     1  LIG1       -0.0905
      6 H          -2.7893   -2.6755   -0.5148 H       1  LIG1        0.0713
      7 N          -0.0300   -2.9222    0.3149 N.pl3   1  LIG1       -0.3547
      8 H          -0.2395   -3.7660   -0.1969 H       1  LIG1        0.1424
      9 H           0.9532   -2.6866    0.2983 H       1  LIG1        0.1424
     10 O           0.9780   -0.3568    0.5252 O.3     1  LIG1       -0.5038
     11 H           1.3106    0.5283    0.2176 H       1  LIG1        0.2923
     12 C          -1.0320    1.9193   -0.0240 C.ar    1  LIG1        0.0537
     13 C           0.1232    2.6262   -0.2262 C.ar    1  LIG1        0.0822
     14 C          -0.0281    4.0265    0.0141 C.ar    1  LIG1        0.1450
     15 C          -1.2874    4.3812    0.3759 C.ar    1  LIG1        0.0197
     16 S          -2.3218    2.9928    0.4487 S.2     1  LIG1       -0.0904
     17 H          -1.6725    5.3679    0.5873 H       1  LIG1        0.0731
     18 N           1.3584    2.0467   -0.6353 N.pl3   1  LIG1       -0.3542
     19 H           1.3366    1.7858   -1.6185 H       1  LIG1        0.1425
     20 H           2.1122    2.7151   -0.5056 H       1  LIG1        0.1425
     21 O           1.0674    4.8200   -0.1554 O.3     1  LIG1       -0.5044
     22 H           0.8547    5.7269    0.0916 H       1  LIG1        0.2922
@<TRIPOS>BOND
     1    19    18    1
     2    18    20    1
     3    18    13    1
     4     5     1   ar
     5     5     4   ar
     6     6     1    1
     7     1     2   ar
     8    13    12   ar
     9    13    14   ar
    10     8     7    1
    11    21    14    1
    12    21    22    1
    13     4    12    1
    14     4     3   ar
    15    12    16   ar
    16    14    15   ar
    17     2     3   ar
    18     2     7    1
    19     3    10    1
    20    11    10    1
    21     9     7    1
    22    15    16   ar
    23    15    17    1
