@<TRIPOS>MOLECULE
mol_data/opt/cam/geoms/mol2/5hf5hf-5hf5hf-.out
 42 45 0 0 0
SMALL
GASTEIGER

@<TRIPOS>ATOM
      1 C          -1.7639   -1.9896   -1.2560 C.ar    1  LIG1        0.0006
      2 C          -0.8510   -2.0225   -0.2484 C.ar    1  LIG1        0.0744
      3 C          -0.4248   -0.7031    0.1372 C.ar    1  LIG1        0.1527
      4 C          -1.0232    0.2997   -0.5863 C.ar    1  LIG1        0.0710
      5 S          -2.1169   -0.3721   -1.7742 S.2     1  LIG1       -0.0905
      6 H          -2.2568   -2.8268   -1.7275 H       1  LIG1        0.0713
      7 N          -0.3673   -3.1286    0.4405 N.pl3   1  LIG1       -0.3547
      8 H          -0.2978   -3.9766   -0.1018 H       1  LIG1        0.1424
      9 H           0.4810   -2.9184    0.9494 H       1  LIG1        0.1424
     10 O           0.4681   -0.5893    1.1377 O.3     1  LIG1       -0.5038
     11 H           0.9435    0.2815    1.0581 H       1  LIG1        0.2923
     12 C          -0.8500    1.7271   -0.4141 C.ar    1  LIG1        0.0544
     13 C           0.2662    2.3884    0.0194 C.ar    1  LIG1        0.0828
     14 C           0.0879    3.7992    0.1513 C.ar    1  LIG1        0.1533
     15 C          -1.1670    4.2226   -0.2200 C.ar    1  LIG1        0.0716
     16 S          -2.1413    2.8574   -0.7259 S.2     1  LIG1       -0.0814
     17 N           1.5027    1.7596    0.3380 N.pl3   1  LIG1       -0.3542
     18 H           1.9786    1.4377   -0.5017 H       1  LIG1        0.1425
     19 H           2.1054    2.4331    0.8036 H       1  LIG1        0.1425
     20 O           1.1106    4.5332    0.6226 O.3     1  LIG1       -0.5037
     21 H           0.9985    5.4822    0.3327 H       1  LIG1        0.2923
     22 C          -1.6910    5.5699   -0.1768 C.ar    1  LIG1        0.0544
     23 C          -0.9966    6.7437   -0.2958 C.ar    1  LIG1        0.0828
     24 C          -1.8013    7.9110   -0.1278 C.ar    1  LIG1        0.1533
     25 C          -3.1293    7.6270    0.0856 C.ar    1  LIG1        0.0716
     26 S          -3.3839    5.8940    0.0900 S.2     1  LIG1       -0.0814
     27 N           0.4026    6.8307   -0.5487 N.pl3   1  LIG1       -0.3542
     28 H           0.6151    6.5966   -1.5162 H       1  LIG1        0.1425
     29 H           0.7074    7.7872   -0.3862 H       1  LIG1        0.1425
     30 O          -1.2035    9.1141   -0.1756 O.3     1  LIG1       -0.5037
     31 H          -1.8817    9.8078   -0.4099 H       1  LIG1        0.2923
     32 C          -4.2086    8.5613    0.3288 C.ar    1  LIG1        0.0538
     33 C          -4.3108    9.8591   -0.0994 C.ar    1  LIG1        0.0822
     34 C          -5.4837   10.5169    0.3821 C.ar    1  LIG1        0.1450
     35 C          -6.2728    9.7234    1.1508 C.ar    1  LIG1        0.0197
     36 S          -5.5810    8.1441    1.3197 S.2     1  LIG1       -0.0904
     37 H          -7.2200    9.9616    1.6117 H       1  LIG1        0.0731
     38 N          -3.3603   10.5052   -0.9434 N.pl3   1  LIG1       -0.3542
     39 H          -3.4626   10.2041   -1.9103 H       1  LIG1        0.1425
     40 H          -3.5063   11.5105   -0.9164 H       1  LIG1        0.1425
     41 O          -5.6757   11.8152    0.0158 O.3     1  LIG1       -0.5044
     42 H          -6.4674   12.1621    0.4423 H       1  LIG1        0.2922
@<TRIPOS>BOND
     1    39    38    1
     2     5     1   ar
     3     5     4   ar
     4     6     1    1
     5    28    27    1
     6     1     2   ar
     7    38    40    1
     8    38    33    1
     9    16    12   ar
    10    16    15   ar
    11     4    12    1
    12     4     3   ar
    13    27    29    1
    14    27    23    1
    15    18    17    1
    16    12    13   ar
    17    31    30    1
    18    23    22   ar
    19    23    24   ar
    20     2     3   ar
    21     2     7    1
    22    15    22    1
    23    15    14   ar
    24    22    26   ar
    25    30    24    1
    26    24    25   ar
    27     8     7    1
    28    33    32   ar
    29    33    34   ar
    30    41    34    1
    31    41    42    1
    32    13    14   ar
    33    13    17    1
    34    25    26   ar
    35    25    32    1
    36     3    10    1
    37    14    20    1
    38    32    36   ar
    39    21    20    1
    40    17    19    1
    41    34    35   ar
    42     7     9    1
    43    11    10    1
    44    35    36   ar
    45    35    37    1
