@<TRIPOS>MOLECULE
mol_data/opt/cam/geoms/mol2/5hf5hf-5hf.out
 32 34 0 0 0
SMALL
GASTEIGER

@<TRIPOS>ATOM
      1 C          -2.0218   -1.9338   -0.7962 C.ar    1  LIG1        0.0006
      2 C          -0.8700   -1.9427   -0.0732 C.ar    1  LIG1        0.0744
      3 C          -0.3740   -0.6134    0.1681 C.ar    1  LIG1        0.1527
      4 C          -1.1601    0.3723   -0.3772 C.ar    1  LIG1        0.0710
      5 S          -2.5248   -0.3278   -1.2171 S.2     1  LIG1       -0.0905
      6 H          -2.6118   -2.7829   -1.1079 H       1  LIG1        0.0713
      7 N          -0.2025   -3.0336    0.4710 N.pl3   1  LIG1       -0.3547
      8 H          -0.2723   -3.8894   -0.0587 H       1  LIG1        0.1424
      9 H           0.7492   -2.8082    0.7283 H       1  LIG1        0.1424
     10 O           0.7545   -0.4756    0.8883 O.3     1  LIG1       -0.5038
     11 H           1.1789    0.3984    0.6728 H       1  LIG1        0.2923
     12 C          -0.9673    1.8037   -0.2729 C.ar    1  LIG1        0.0544
     13 C           0.2148    2.4836   -0.1654 C.ar    1  LIG1        0.0828
     14 C           0.0574    3.8941   -0.0051 C.ar    1  LIG1        0.1533
     15 C          -1.2564    4.2978   -0.0258 C.ar    1  LIG1        0.0716
     16 S          -2.3110    2.9148   -0.2353 S.2     1  LIG1       -0.0814
     17 N           1.5000    1.8731   -0.1902 N.pl3   1  LIG1       -0.3542
     18 H           1.7319    1.5419   -1.1239 H       1  LIG1        0.1425
     19 H           2.1984    2.5590    0.0840 H       1  LIG1        0.1425
     20 O           1.1586    4.6481    0.1590 O.3     1  LIG1       -0.5037
     21 H           0.9542    5.5880   -0.1055 H       1  LIG1        0.2923
     22 C          -1.7748    5.6393    0.1427 C.ar    1  LIG1        0.0538
     23 C          -1.1606    6.8248   -0.1664 C.ar    1  LIG1        0.0822
     24 C          -1.9368    7.9684    0.1936 C.ar    1  LIG1        0.1450
     25 C          -3.1344    7.6568    0.7518 C.ar    1  LIG1        0.0197
     26 S          -3.3317    5.9394    0.8682 S.2     1  LIG1       -0.0904
     27 H          -3.9151    8.3247    1.0847 H       1  LIG1        0.0731
     28 N           0.1178    6.9297   -0.7892 N.pl3   1  LIG1       -0.3542
     29 H           0.0600    6.7249   -1.7845 H       1  LIG1        0.1425
     30 H           0.4709    7.8771   -0.6888 H       1  LIG1        0.1425
     31 O          -1.4107    9.1980   -0.0685 O.3     1  LIG1       -0.5044
     32 H          -1.9988    9.8836    0.2677 H       1  LIG1        0.2922
@<TRIPOS>BOND
     1    29    28    1
     2     5     1   ar
     3     5     4   ar
     4    18    17    1
     5     6     1    1
     6     1     2   ar
     7    28    30    1
     8    28    23    1
     9     4    12    1
    10     4     3   ar
    11    12    16   ar
    12    12    13   ar
    13    16    15   ar
    14    17    13    1
    15    17    19    1
    16    23    22   ar
    17    23    24   ar
    18    13    14   ar
    19    21    20    1
    20     2     3   ar
    21     2     7    1
    22    31    24    1
    23    31    32    1
    24     8     7    1
    25    15    14   ar
    26    15    22    1
    27    14    20    1
    28    22    26   ar
    29     3    10    1
    30    24    25   ar
    31     7     9    1
    32    11    10    1
    33    25    26   ar
    34    25    27    1
