@<TRIPOS>MOLECULE
mol_data/opt/cam/geoms/mol2/5hg.out
 12 12 0 0 0
SMALL
GASTEIGER

@<TRIPOS>ATOM
      1 C          -2.1599   -1.6955   -0.1349 C.ar    1  LIG1       -0.0026
      2 C          -0.7997   -1.6368   -0.0253 C.ar    1  LIG1        0.0450
      3 C          -0.3459   -0.2827    0.1808 C.ar    1  LIG1        0.0324
      4 C          -1.3686    0.6147    0.2460 C.ar    1  LIG1       -0.0093
      5 S          -2.8938   -0.1371    0.0308 S.2     1  LIG1       -0.1021
      6 H          -2.7723   -2.5734   -0.2775 H       1  LIG1        0.0712
      7 H          -1.2882    1.6802    0.4026 H       1  LIG1        0.0705
      8 N           0.0700   -2.7161   -0.0425 N.pl3   1  LIG1       -0.3567
      9 H          -0.2353   -3.5141   -0.5779 H       1  LIG1        0.1424
     10 H           1.0349   -2.4678   -0.2099 H       1  LIG1        0.1424
     11 S           1.3695    0.1502    0.3692 S.3     1  LIG1       -0.1403
     12 H           1.6109    0.5084   -0.9065 H       1  LIG1        0.1072
@<TRIPOS>BOND
     1    12    11    1
     2     9     8    1
     3     6     1    1
     4    10     8    1
     5     1     2   ar
     6     1     5   ar
     7     8     2    1
     8     2     3   ar
     9     5     4   ar
    10     3     4   ar
    11     3    11    1
    12     4     7    1
