@<TRIPOS>MOLECULE
mol_data/opt/cam/geoms/mol2/5hh.out
 13 13 0 0 0
SMALL
GASTEIGER

@<TRIPOS>ATOM
      1 C          -2.1195   -1.7064   -0.0297 C.ar    1  LIG1       -0.0018
      2 C          -0.7586   -1.6920   -0.0651 C.ar    1  LIG1        0.0526
      3 C          -0.2289   -0.3485   -0.0649 C.ar    1  LIG1        0.0526
      4 C          -1.2139    0.5907   -0.0295 C.ar    1  LIG1       -0.0018
      5 S          -2.7905   -0.1148    0.0387 S.2     1  LIG1       -0.1013
      6 H          -2.7635   -2.5738   -0.0164 H       1  LIG1        0.0712
      7 H          -1.0927    1.6642   -0.0159 H       1  LIG1        0.0712
      8 N           0.0785   -2.8162   -0.0241 N.pl3   1  LIG1       -0.3561
      9 H          -0.4184   -3.6823   -0.1825 H       1  LIG1        0.1424
     10 H           0.8736   -2.7648   -0.6477 H       1  LIG1        0.1424
     11 N           1.1500   -0.0980   -0.0234 N.pl3   1  LIG1       -0.3561
     12 H           1.6969   -0.6798   -0.6448 H       1  LIG1        0.1424
     13 H           1.3783    0.8738   -0.1835 H       1  LIG1        0.1424
@<TRIPOS>BOND
     1    10     8    1
     2    12    11    1
     3    13    11    1
     4     9     8    1
     5     2     3   ar
     6     2     1   ar
     7     2     8    1
     8     3     4   ar
     9     3    11    1
    10     1     6    1
    11     1     5   ar
    12     4     7    1
    13     4     5   ar
