@<TRIPOS>MOLECULE
mol_data/opt/cam/geoms/mol2/5hi.out
 14 14 0 0 0
SMALL
GASTEIGER

@<TRIPOS>ATOM
      1 C          -2.1536   -1.7197   -0.0528 C.ar    1  LIG1       -0.0034
      2 C          -0.7909   -1.6889   -0.0768 C.ar    1  LIG1        0.0346
      3 C          -0.2643   -0.3498    0.0084 C.ar    1  LIG1       -0.0228
      4 C          -1.2570    0.5749    0.0944 C.ar    1  LIG1       -0.0196
      5 S          -2.8284   -0.1326    0.0876 S.2     1  LIG1       -0.1029
      6 H          -2.7966   -2.5866   -0.0993 H       1  LIG1        0.0712
      7 H          -1.1430    1.6469    0.1727 H       1  LIG1        0.0696
      8 N           0.0583   -2.8017   -0.1051 N.pl3   1  LIG1       -0.3573
      9 H          -0.4092   -3.6617   -0.3562 H       1  LIG1        0.1423
     10 H           0.8801   -2.6685   -0.6797 H       1  LIG1        0.1423
     11 C           1.2046   -0.0548    0.0144 C.3     1  LIG1       -0.0375
     12 H           1.3928    1.0096    0.1657 H       1  LIG1        0.0278
     13 H           1.6807   -0.3395   -0.9318 H       1  LIG1        0.0278
     14 H           1.7113   -0.6084    0.8113 H       1  LIG1        0.0278
@<TRIPOS>BOND
     1    13    11    1
     2    10     8    1
     3     9     8    1
     4     8     2    1
     5     6     1    1
     6     2     1   ar
     7     2     3   ar
     8     1     5   ar
     9     3    11    1
    10     3     4   ar
    11    11    12    1
    12    11    14    1
    13     5     4   ar
    14     4     7    1
