@<TRIPOS>MOLECULE
mol_data/opt/cam/geoms/mol2/5hi5hi-5hi-5hi-.out
 50 53 0 0 0
SMALL
GASTEIGER

@<TRIPOS>ATOM
      1 C          -1.0860   -1.5530   -2.2932 C.ar    1  LIG1       -0.0028
      2 C          -0.7410   -1.7891   -0.9960 C.ar    1  LIG1        0.0352
      3 C          -0.5360   -0.5801   -0.2417 C.ar    1  LIG1       -0.0145
      4 C          -0.7218    0.5448   -1.0036 C.ar    1  LIG1        0.0324
      5 S          -1.1654    0.1380   -2.6394 S.2     1  LIG1       -0.0939
      6 H          -1.3161   -2.2813   -3.0575 H       1  LIG1        0.0712
      7 N          -0.6694   -3.0441   -0.3811 N.pl3   1  LIG1       -0.3573
      8 H          -0.6532   -3.8169   -1.0318 H       1  LIG1        0.1423
      9 H           0.0839   -3.1271    0.2883 H       1  LIG1        0.1423
     10 C          -0.2347   -0.5940    1.2262 C.3     1  LIG1       -0.0369
     11 H          -0.3847    0.3929    1.6645 H       1  LIG1        0.0278
     12 H           0.8017   -0.8849    1.4374 H       1  LIG1        0.0278
     13 H          -0.8874   -1.3089    1.7363 H       1  LIG1        0.0278
     14 C          -0.5718    1.9360   -0.5954 C.ar    1  LIG1        0.0477
     15 C           0.5358    2.5137   -0.0273 C.ar    1  LIG1        0.0436
     16 C           0.3672    3.9086    0.2703 C.ar    1  LIG1       -0.0139
     17 C          -0.8665    4.3741   -0.1077 C.ar    1  LIG1        0.0330
     18 S          -1.8433    3.1111   -0.8017 S.2     1  LIG1       -0.0850
     19 N           1.7108    1.8325    0.2947 N.pl3   1  LIG1       -0.3568
     20 H           1.7948    0.9466   -0.1876 H       1  LIG1        0.1424
     21 H           2.5470    2.3898    0.1826 H       1  LIG1        0.1424
     22 C           1.4204    4.7117    0.9713 C.3     1  LIG1       -0.0368
     23 H           1.0117    5.6533    1.3383 H       1  LIG1        0.0278
     24 H           2.2620    4.9621    0.3139 H       1  LIG1        0.0278
     25 H           1.8219    4.1492    1.8200 H       1  LIG1        0.0278
     26 C          -1.3772    5.7348    0.0004 C.ar    1  LIG1        0.0477
     27 C          -0.8000    6.8745   -0.5011 C.ar    1  LIG1        0.0436
     28 C          -1.5483    8.0677   -0.2207 C.ar    1  LIG1       -0.0139
     29 C          -2.7045    7.8050    0.4689 C.ar    1  LIG1        0.0330
     30 S          -2.8789    6.1062    0.8054 S.2     1  LIG1       -0.0850
     31 N           0.4206    6.9171   -1.1768 N.pl3   1  LIG1       -0.3568
     32 H           0.7041    6.0133   -1.5336 H       1  LIG1        0.1424
     33 H           0.4598    7.6226   -1.9001 H       1  LIG1        0.1424
     34 C          -1.0560    9.4309   -0.6021 C.3     1  LIG1       -0.0368
     35 H          -1.6185   10.2068   -0.0824 H       1  LIG1        0.0278
     36 H          -1.1579    9.6265   -1.6766 H       1  LIG1        0.0278
     37 H           0.0033    9.5352   -0.3477 H       1  LIG1        0.0278
     38 C          -3.7253    8.7557    0.8910 C.ar    1  LIG1        0.0471
     39 C          -4.4121    9.6380    0.0941 C.ar    1  LIG1        0.0430
     40 C          -5.3687   10.4311    0.8182 C.ar    1  LIG1       -0.0222
     41 C          -5.3835   10.1140    2.1401 C.ar    1  LIG1       -0.0190
     42 S          -4.2514    8.8847    2.5509 S.2     1  LIG1       -0.0940
     43 H          -6.0071   10.5549    2.9053 H       1  LIG1        0.0697
     44 N          -4.2078    9.7997   -1.2770 N.pl3   1  LIG1       -0.3569
     45 H          -3.7312    9.0122   -1.6981 H       1  LIG1        0.1424
     46 H          -5.0506   10.0270   -1.7879 H       1  LIG1        0.1424
     47 C          -6.2290   11.4672    0.1615 C.3     1  LIG1       -0.0374
     48 H          -6.8418   11.9927    0.8959 H       1  LIG1        0.0278
     49 H          -6.9105   11.0223   -0.5737 H       1  LIG1        0.0278
     50 H          -5.6203   12.2082   -0.3668 H       1  LIG1        0.0278
@<TRIPOS>BOND
     1     6     1    1
     2     5     1   ar
     3     5     4   ar
     4     1     2   ar
     5    33    31    1
     6    46    44    1
     7    45    44    1
     8    36    34    1
     9    32    31    1
    10    44    39    1
    11    31    27    1
    12     8     7    1
    13     4    14    1
    14     4     3   ar
    15     2     7    1
    16     2     3   ar
    17    18    14   ar
    18    18    17   ar
    19    34    37    1
    20    34    28    1
    21    34    35    1
    22    14    15   ar
    23    49    47    1
    24    27    28   ar
    25    27    26   ar
    26     7     9    1
    27    50    47    1
    28     3    10    1
    29    28    29   ar
    30    20    19    1
    31    17    26    1
    32    17    16   ar
    33    15    16   ar
    34    15    19    1
    35    26    30   ar
    36    39    40   ar
    37    39    38   ar
    38    47    40    1
    39    47    48    1
    40    21    19    1
    41    16    22    1
    42    24    22    1
    43    29    30   ar
    44    29    38    1
    45    40    41   ar
    46    38    42   ar
    47    22    23    1
    48    22    25    1
    49    10    12    1
    50    10    11    1
    51    10    13    1
    52    41    42   ar
    53    41    43    1
