@<TRIPOS>MOLECULE
mol_data/opt/cam/geoms/mol2/5hi5hi-5hi5hi.out
 50 53 0 0 0
SMALL
GASTEIGER

@<TRIPOS>ATOM
      1 C          -1.1037   -1.5464   -2.3070 C.ar    1  LIG1       -0.0028
      2 C          -0.7456   -1.7859   -1.0141 C.ar    1  LIG1        0.0352
      3 C          -0.5338   -0.5788   -0.2585 C.ar    1  LIG1       -0.0145
      4 C          -0.7281    0.5481   -1.0154 C.ar    1  LIG1        0.0324
      5 S          -1.1877    0.1455   -2.6478 S.2     1  LIG1       -0.0939
      6 H          -1.3409   -2.2727   -3.0711 H       1  LIG1        0.0712
      7 N          -0.6669   -3.0425   -0.4034 N.pl3   1  LIG1       -0.3573
      8 H          -0.6567   -3.8134   -1.0565 H       1  LIG1        0.1423
      9 H           0.0931   -3.1268    0.2582 H       1  LIG1        0.1423
     10 C          -0.2179   -0.5965    1.2063 C.3     1  LIG1       -0.0369
     11 H          -0.3643    0.3890    1.6488 H       1  LIG1        0.0278
     12 H           0.8208   -0.8873    1.4063 H       1  LIG1        0.0278
     13 H          -0.8649   -1.3133    1.7209 H       1  LIG1        0.0278
     14 C          -0.5750    1.9382   -0.6048 C.ar    1  LIG1        0.0477
     15 C           0.5378    2.5152   -0.0462 C.ar    1  LIG1        0.0436
     16 C           0.3712    3.9091    0.2570 C.ar    1  LIG1       -0.0139
     17 C          -0.8665    4.3748   -0.1073 C.ar    1  LIG1        0.0330
     18 S          -1.8493    3.1130   -0.7950 S.2     1  LIG1       -0.0850
     19 N           1.7165    1.8339    0.2622 N.pl3   1  LIG1       -0.3568
     20 H           1.7963    0.9495   -0.2234 H       1  LIG1        0.1424
     21 H           2.5511    2.3922    0.1433 H       1  LIG1        0.1424
     22 C           1.4308    4.7111    0.9497 C.3     1  LIG1       -0.0368
     23 H           1.0251    5.6513    1.3234 H       1  LIG1        0.0278
     24 H           2.2656    4.9640    0.2846 H       1  LIG1        0.0278
     25 H           1.8412    4.1465    1.7927 H       1  LIG1        0.0278
     26 C          -1.3771    5.7348    0.0097 C.ar    1  LIG1        0.0477
     27 C          -0.8057    6.8763   -0.4944 C.ar    1  LIG1        0.0436
     28 C          -1.5520    8.0682   -0.2032 C.ar    1  LIG1       -0.0139
     29 C          -2.7011    7.8027    0.4972 C.ar    1  LIG1        0.0330
     30 S          -2.8710    6.1028    0.8307 S.2     1  LIG1       -0.0850
     31 N           0.4080    6.9217   -1.1822 N.pl3   1  LIG1       -0.3568
     32 H           0.6886    6.0191   -1.5442 H       1  LIG1        0.1424
     33 H           0.4395    7.6292   -1.9038 H       1  LIG1        0.1424
     34 C          -1.0646    9.4328   -0.5857 C.3     1  LIG1       -0.0368
     35 H          -1.6224   10.2068   -0.0583 H       1  LIG1        0.0278
     36 H          -1.1773    9.6313   -1.6586 H       1  LIG1        0.0278
     37 H          -0.0029    9.5372   -0.3415 H       1  LIG1        0.0278
     38 C          -3.7183    8.7514    0.9321 C.ar    1  LIG1        0.0471
     39 C          -4.4137    9.6354    0.1446 C.ar    1  LIG1        0.0430
     40 C          -5.3636   10.4258    0.8804 C.ar    1  LIG1       -0.0222
     41 C          -5.3649   10.1051    2.2016 C.ar    1  LIG1       -0.0190
     42 S          -4.2279    8.8755    2.5976 S.2     1  LIG1       -0.0940
     43 H          -5.9812   10.5433    2.9742 H       1  LIG1        0.0697
     44 N          -4.2233    9.8011   -1.2280 N.pl3   1  LIG1       -0.3569
     45 H          -3.7503    9.0151   -1.6561 H       1  LIG1        0.1424
     46 H          -5.0712   10.0292   -1.7298 H       1  LIG1        0.1424
     47 C          -6.2311   11.4631    0.2353 C.3     1  LIG1       -0.0374
     48 H          -6.8370   11.9861    0.9773 H       1  LIG1        0.0278
     49 H          -6.9197   11.0198   -0.4943 H       1  LIG1        0.0278
     50 H          -5.6283   12.2060   -0.2970 H       1  LIG1        0.0278
@<TRIPOS>BOND
     1     6     1    1
     2     5     1   ar
     3     5     4   ar
     4     1     2   ar
     5    33    31    1
     6    46    44    1
     7    36    34    1
     8    45    44    1
     9    32    31    1
    10    44    39    1
    11    31    27    1
    12     8     7    1
    13     4    14    1
    14     4     3   ar
    15     2     7    1
    16     2     3   ar
    17    18    14   ar
    18    18    17   ar
    19    14    15   ar
    20    34    37    1
    21    34    28    1
    22    34    35    1
    23    27    28   ar
    24    27    26   ar
    25    49    47    1
    26     7     9    1
    27    50    47    1
    28     3    10    1
    29    20    19    1
    30    28    29   ar
    31    17    26    1
    32    17    16   ar
    33    15    16   ar
    34    15    19    1
    35    26    30   ar
    36    21    19    1
    37    39    40   ar
    38    39    38   ar
    39    47    40    1
    40    47    48    1
    41    16    22    1
    42    24    22    1
    43    29    30   ar
    44    29    38    1
    45    40    41   ar
    46    38    42   ar
    47    22    23    1
    48    22    25    1
    49    10    12    1
    50    10    11    1
    51    10    13    1
    52    41    42   ar
    53    41    43    1
