@<TRIPOS>MOLECULE
mol_data/opt/cam/geoms/mol2/5hi5hi5hi5hi-.out
 50 53 0 0 0
SMALL
GASTEIGER

@<TRIPOS>ATOM
      1 C          -1.0951   -1.5621   -2.2834 C.ar    1  LIG1       -0.0028
      2 C          -0.7469   -1.7933   -0.9862 C.ar    1  LIG1        0.0352
      3 C          -0.5393   -0.5815   -0.2373 C.ar    1  LIG1       -0.0145
      4 C          -0.7264    0.5406   -1.0031 C.ar    1  LIG1        0.0324
      5 S          -1.1745    0.1276   -2.6361 S.2     1  LIG1       -0.0939
      6 H          -1.3275   -2.2933   -3.0443 H       1  LIG1        0.0712
      7 N          -0.6744   -3.0458   -0.3665 N.pl3   1  LIG1       -0.3573
      8 H          -0.6602   -3.8212   -1.0142 H       1  LIG1        0.1423
      9 H           0.0806   -3.1266    0.3013 H       1  LIG1        0.1423
     10 C          -0.2342   -0.5896    1.2299 C.3     1  LIG1       -0.0369
     11 H          -0.3826    0.3990    1.6647 H       1  LIG1        0.0278
     12 H           0.8026   -0.8803    1.4397 H       1  LIG1        0.0278
     13 H          -0.8860   -1.3021    1.7446 H       1  LIG1        0.0278
     14 C          -0.5746    1.9333   -0.6008 C.ar    1  LIG1        0.0477
     15 C           0.5347    2.5127   -0.0379 C.ar    1  LIG1        0.0436
     16 C           0.3676    3.9087    0.2546 C.ar    1  LIG1       -0.0139
     17 C          -0.8668    4.3735   -0.1220 C.ar    1  LIG1        0.0330
     18 S          -1.8461    3.1083   -0.8085 S.2     1  LIG1       -0.0850
     19 N           1.7102    1.8321    0.2838 N.pl3   1  LIG1       -0.3568
     20 H           1.7925    0.9442   -0.1951 H       1  LIG1        0.1424
     21 H           2.5464    2.3885    0.1674 H       1  LIG1        0.1424
     22 C           1.4231    4.7141    0.9498 C.3     1  LIG1       -0.0368
     23 H           1.0158    5.6574    1.3141 H       1  LIG1        0.0278
     24 H           2.2631    4.9615    0.2892 H       1  LIG1        0.0278
     25 H           1.8265    4.1548    1.7996 H       1  LIG1        0.0278
     26 C          -1.3765    5.7348   -0.0180 C.ar    1  LIG1        0.0477
     27 C          -0.7999    6.8723   -0.5255 C.ar    1  LIG1        0.0436
     28 C          -1.5469    8.0670   -0.2479 C.ar    1  LIG1       -0.0139
     29 C          -2.7014    7.8076    0.4457 C.ar    1  LIG1        0.0330
     30 S          -2.8759    6.1103    0.7894 S.2     1  LIG1       -0.0850
     31 N           0.4189    6.9115   -1.2045 N.pl3   1  LIG1       -0.3568
     32 H           0.7010    6.0062   -1.5584 H       1  LIG1        0.1424
     33 H           0.4567    7.6141   -1.9307 H       1  LIG1        0.1424
     34 C          -1.0549    9.4284   -0.6359 C.3     1  LIG1       -0.0368
     35 H          -1.6156   10.2066   -0.1179 H       1  LIG1        0.0278
     36 H          -1.1594    9.6197   -1.7110 H       1  LIG1        0.0278
     37 H           0.0051    9.5331   -0.3846 H       1  LIG1        0.0278
     38 C          -3.7206    8.7605    0.8666 C.ar    1  LIG1        0.0471
     39 C          -4.4091    9.6400    0.0681 C.ar    1  LIG1        0.0430
     40 C          -5.3634   10.4365    0.7914 C.ar    1  LIG1       -0.0222
     41 C          -5.3749   10.1247    2.1147 C.ar    1  LIG1       -0.0190
     42 S          -4.2424    8.8964    2.5274 S.2     1  LIG1       -0.0940
     43 H          -5.9963   10.5689    2.8797 H       1  LIG1        0.0697
     44 N          -4.2082    9.7962   -1.3042 N.pl3   1  LIG1       -0.3569
     45 H          -3.7331    9.0068   -1.7234 H       1  LIG1        0.1424
     46 H          -5.0521   10.0219   -1.8138 H       1  LIG1        0.1424
     47 C          -6.2247   11.4705    0.1329 C.3     1  LIG1       -0.0374
     48 H          -6.8354   11.9993    0.8668 H       1  LIG1        0.0278
     49 H          -6.9084   11.0231   -0.5988 H       1  LIG1        0.0278
     50 H          -5.6171   12.2090   -0.3999 H       1  LIG1        0.0278
@<TRIPOS>BOND
     1     6     1    1
     2     5     1   ar
     3     5     4   ar
     4     1     2   ar
     5    33    31    1
     6    46    44    1
     7    45    44    1
     8    36    34    1
     9    32    31    1
    10    44    39    1
    11    31    27    1
    12     8     7    1
    13     4    14    1
    14     4     3   ar
    15     2     7    1
    16     2     3   ar
    17    18    14   ar
    18    18    17   ar
    19    34    37    1
    20    34    28    1
    21    34    35    1
    22    14    15   ar
    23    49    47    1
    24    27    28   ar
    25    27    26   ar
    26    50    47    1
    27     7     9    1
    28    28    29   ar
    29     3    10    1
    30    20    19    1
    31    17    26    1
    32    17    16   ar
    33    15    16   ar
    34    15    19    1
    35    26    30   ar
    36    39    40   ar
    37    39    38   ar
    38    47    40    1
    39    47    48    1
    40    21    19    1
    41    16    22    1
    42    24    22    1
    43    29    30   ar
    44    29    38    1
    45    40    41   ar
    46    38    42   ar
    47    22    23    1
    48    22    25    1
    49    10    12    1
    50    10    11    1
    51    10    13    1
    52    41    42   ar
    53    41    43    1
