@<TRIPOS>MOLECULE
mol_data/opt/cam/geoms/mol2/5hi5hi-5hi.out
 38 40 0 0 0
SMALL
GASTEIGER

@<TRIPOS>ATOM
      1 C          -1.7146   -1.6872   -1.5392 C.ar    1  LIG1       -0.0028
      2 C          -0.8069   -1.8498   -0.5357 C.ar    1  LIG1        0.0352
      3 C          -0.3704   -0.6012    0.0327 C.ar    1  LIG1       -0.0145
      4 C          -0.9582    0.4790   -0.5743 C.ar    1  LIG1        0.0324
      5 S          -2.0604   -0.0193   -1.8290 S.2     1  LIG1       -0.0939
      6 H          -2.2117   -2.4581   -2.1102 H       1  LIG1        0.0712
      7 N          -0.3779   -3.0726   -0.0074 N.pl3   1  LIG1       -0.3573
      8 H          -0.6054   -3.8688   -0.5865 H       1  LIG1        0.1423
      9 H           0.6010   -3.0859    0.2459 H       1  LIG1        0.1423
     10 C           0.5593   -0.5371    1.2063 C.3     1  LIG1       -0.0369
     11 H           0.5465    0.4540    1.6604 H       1  LIG1        0.0278
     12 H           1.5990   -0.7493    0.9284 H       1  LIG1        0.0278
     13 H           0.2634   -1.2735    1.9598 H       1  LIG1        0.0278
     14 C          -0.7399    1.8920   -0.2912 C.ar    1  LIG1        0.0477
     15 C           0.4603    2.5574   -0.2908 C.ar    1  LIG1        0.0436
     16 C           0.3443    3.9505    0.0382 C.ar    1  LIG1       -0.0139
     17 C          -0.9571    4.3257    0.2548 C.ar    1  LIG1        0.0330
     18 S          -2.0486    2.9801    0.0877 S.2     1  LIG1       -0.0850
     19 N           1.7001    1.9610   -0.5283 N.pl3   1  LIG1       -0.3568
     20 H           1.6204    1.0618   -0.9860 H       1  LIG1        0.1424
     21 H           2.3522    2.5611   -1.0151 H       1  LIG1        0.1424
     22 C           1.5394    4.8439    0.1784 C.3     1  LIG1       -0.0368
     23 H           1.2753    5.7682    0.6929 H       1  LIG1        0.0278
     24 H           1.9655    5.1279   -0.7916 H       1  LIG1        0.0278
     25 H           2.3250    4.3375    0.7478 H       1  LIG1        0.0278
     26 C          -1.4590    5.6569    0.5706 C.ar    1  LIG1        0.0471
     27 C          -1.2589    6.8074   -0.1515 C.ar    1  LIG1        0.0430
     28 C          -1.9020    7.9581    0.4234 C.ar    1  LIG1       -0.0222
     29 C          -2.5796    7.6382    1.5578 C.ar    1  LIG1       -0.0190
     30 S          -2.4506    5.9730    1.9727 S.2     1  LIG1       -0.0940
     31 H          -3.1496    8.3107    2.1836 H       1  LIG1        0.0697
     32 N          -0.4891    6.8960   -1.3124 N.pl3   1  LIG1       -0.3569
     33 H          -0.3371    5.9965   -1.7512 H       1  LIG1        0.1424
     34 H          -0.8402    7.5691   -1.9806 H       1  LIG1        0.1424
     35 C          -1.8170    9.3251   -0.1839 C.3     1  LIG1       -0.0374
     36 H          -2.3212   10.0649    0.4404 H       1  LIG1        0.0278
     37 H          -2.2870    9.3595   -1.1743 H       1  LIG1        0.0278
     38 H          -0.7752    9.6376   -0.3077 H       1  LIG1        0.0278
@<TRIPOS>BOND
     1     6     1    1
     2    34    32    1
     3     5     1   ar
     4     5     4   ar
     5    33    32    1
     6     1     2   ar
     7    32    27    1
     8    37    35    1
     9    21    19    1
    10    20    19    1
    11    24    22    1
    12     8     7    1
    13     4    14    1
    14     4     3   ar
    15     2     7    1
    16     2     3   ar
    17    19    15    1
    18    38    35    1
    19    14    15   ar
    20    14    18   ar
    21    15    16   ar
    22    35    28    1
    23    35    36    1
    24    27    28   ar
    25    27    26   ar
    26     7     9    1
    27     3    10    1
    28    16    22    1
    29    16    17   ar
    30    18    17   ar
    31    22    23    1
    32    22    25    1
    33    17    26    1
    34    28    29   ar
    35    26    30   ar
    36    12    10    1
    37    10    11    1
    38    10    13    1
    39    29    30   ar
    40    29    31    1
