@<TRIPOS>MOLECULE
mol_data/opt/cam/geoms/mol2/5hi5hi5hi-5hi-.out
 50 53 0 0 0
SMALL
GASTEIGER

@<TRIPOS>ATOM
      1 C          -1.0735   -1.5590   -2.2925 C.ar    1  LIG1       -0.0028
      2 C          -0.7367   -1.7919   -0.9926 C.ar    1  LIG1        0.0352
      3 C          -0.5360   -0.5810   -0.2402 C.ar    1  LIG1       -0.0145
      4 C          -0.7168    0.5421   -1.0062 C.ar    1  LIG1        0.0324
      5 S          -1.1502    0.1311   -2.6436 S.2     1  LIG1       -0.0939
      6 H          -1.2990   -2.2892   -3.0564 H       1  LIG1        0.0712
      7 N          -0.6693   -3.0452   -0.3739 N.pl3   1  LIG1       -0.3573
      8 H          -0.6492   -3.8197   -1.0226 H       1  LIG1        0.1423
      9 H           0.0798   -3.1267    0.3004 H       1  LIG1        0.1423
     10 C          -0.2439   -0.5910    1.2296 C.3     1  LIG1       -0.0369
     11 H          -0.3964    0.3970    1.6644 H       1  LIG1        0.0278
     12 H           0.7911   -0.8817    1.4481 H       1  LIG1        0.0278
     13 H          -0.9000   -1.3044    1.7375 H       1  LIG1        0.0278
     14 C          -0.5689    1.9342   -0.6007 C.ar    1  LIG1        0.0477
     15 C           0.5353    2.5132   -0.0272 C.ar    1  LIG1        0.0436
     16 C           0.3652    3.9088    0.2657 C.ar    1  LIG1       -0.0139
     17 C          -0.8659    4.3737   -0.1211 C.ar    1  LIG1        0.0330
     18 S          -1.8388    3.1092   -0.8179 S.2     1  LIG1       -0.0850
     19 N           1.7081    1.8325    0.3040 N.pl3   1  LIG1       -0.3568
     20 H           1.7948    0.9453   -0.1755 H       1  LIG1        0.1424
     21 H           2.5451    2.3893    0.1957 H       1  LIG1        0.1424
     22 C           1.4143    4.7135    0.9713 C.3     1  LIG1       -0.0368
     23 H           1.0035    5.6562    1.3333 H       1  LIG1        0.0278
     24 H           2.2600    4.9620    0.3184 H       1  LIG1        0.0278
     25 H           1.8103    4.1531    1.8238 H       1  LIG1        0.0278
     26 C          -1.3770    5.7348   -0.0198 C.ar    1  LIG1        0.0477
     27 C          -0.7963    6.8731   -0.5207 C.ar    1  LIG1        0.0436
     28 C          -1.5460    8.0672   -0.2480 C.ar    1  LIG1       -0.0139
     29 C          -2.7065    7.8066    0.4350 C.ar    1  LIG1        0.0330
     30 S          -2.8836    6.1087    0.7748 S.2     1  LIG1       -0.0850
     31 N           0.4285    6.9135   -1.1889 N.pl3   1  LIG1       -0.3568
     32 H           0.7140    6.0088   -1.5414 H       1  LIG1        0.1424
     33 H           0.4724    7.6172   -1.9137 H       1  LIG1        0.1424
     34 C          -1.0509    9.4292   -0.6299 C.3     1  LIG1       -0.0368
     35 H          -1.6165   10.2067   -0.1158 H       1  LIG1        0.0278
     36 H          -1.1460    9.6220   -1.7056 H       1  LIG1        0.0278
     37 H           0.0068    9.5340   -0.3691 H       1  LIG1        0.0278
     38 C          -3.7297    8.7587    0.8482 C.ar    1  LIG1        0.0471
     39 C          -4.4113    9.6390    0.0448 C.ar    1  LIG1        0.0430
     40 C          -5.3722   10.4343    0.7608 C.ar    1  LIG1       -0.0222
     41 C          -5.3953   10.1207    2.0834 C.ar    1  LIG1       -0.0190
     42 S          -4.2661    8.8921    2.5045 S.2     1  LIG1       -0.0940
     43 H          -6.0236   10.5637    2.8436 H       1  LIG1        0.0697
     44 N          -4.1984    9.7971   -1.3254 N.pl3   1  LIG1       -0.3569
     45 H          -3.7194    9.0084   -1.7415 H       1  LIG1        0.1424
     46 H          -5.0379   10.0233   -1.8422 H       1  LIG1        0.1424
     47 C          -6.2280   11.4689    0.0960 C.3     1  LIG1       -0.0374
     48 H          -6.8453   11.9965    0.8252 H       1  LIG1        0.0278
     49 H          -6.9051   11.0223   -0.6423 H       1  LIG1        0.0278
     50 H          -5.6159   12.2083   -0.4303 H       1  LIG1        0.0278
@<TRIPOS>BOND
     1     6     1    1
     2     5     1   ar
     3     5     4   ar
     4     1     2   ar
     5    33    31    1
     6    46    44    1
     7    45    44    1
     8    36    34    1
     9    32    31    1
    10    44    39    1
    11    31    27    1
    12     8     7    1
    13     4    14    1
    14     4     3   ar
    15     2     7    1
    16     2     3   ar
    17    18    14   ar
    18    18    17   ar
    19    49    47    1
    20    34    37    1
    21    34    28    1
    22    34    35    1
    23    14    15   ar
    24    27    28   ar
    25    27    26   ar
    26    50    47    1
    27     7     9    1
    28    28    29   ar
    29     3    10    1
    30    20    19    1
    31    17    26    1
    32    17    16   ar
    33    15    16   ar
    34    15    19    1
    35    26    30   ar
    36    39    40   ar
    37    39    38   ar
    38    47    40    1
    39    47    48    1
    40    21    19    1
    41    16    22    1
    42    24    22    1
    43    29    30   ar
    44    29    38    1
    45    40    41   ar
    46    38    42   ar
    47    22    23    1
    48    22    25    1
    49    10    12    1
    50    10    11    1
    51    10    13    1
    52    41    42   ar
    53    41    43    1
