@<TRIPOS>MOLECULE
mol_data/opt/cam/geoms/mol2/5hi5hi.out
 26 27 0 0 0
SMALL
GASTEIGER

@<TRIPOS>ATOM
      1 C          -2.0118   -1.7279   -0.8164 C.ar    1  LIG1       -0.0028
      2 C          -0.7702   -1.8235   -0.2628 C.ar    1  LIG1        0.0352
      3 C          -0.2475   -0.5516    0.1633 C.ar    1  LIG1       -0.0145
      4 C          -1.1141    0.4789   -0.0965 C.ar    1  LIG1        0.0324
      5 S          -2.5786   -0.0958   -0.8456 S.2     1  LIG1       -0.0939
      6 H          -2.6302   -2.5306   -1.1918 H       1  LIG1        0.0712
      7 N          -0.0682   -3.0101   -0.0213 N.pl3   1  LIG1       -0.3573
      8 H          -0.4427   -3.8108   -0.5110 H       1  LIG1        0.1423
      9 H           0.9277   -2.9325   -0.1785 H       1  LIG1        0.1423
     10 C           1.0633   -0.4231    0.8779 C.3     1  LIG1       -0.0369
     11 H           1.1518    0.5523    1.3570 H       1  LIG1        0.0278
     12 H           1.9205   -0.5276    0.2014 H       1  LIG1        0.0278
     13 H           1.1515   -1.2006    1.6429 H       1  LIG1        0.0278
     14 C          -0.9165    1.8994    0.1641 C.ar    1  LIG1        0.0470
     15 C           0.1229    2.6822   -0.2732 C.ar    1  LIG1        0.0430
     16 C           0.0170    4.0539    0.1458 C.ar    1  LIG1       -0.0222
     17 C          -1.1076    4.2680    0.8790 C.ar    1  LIG1       -0.0190
     18 S          -2.0473    2.8431    1.1015 S.2     1  LIG1       -0.0940
     19 H          -1.4299    5.2042    1.3132 H       1  LIG1        0.0697
     20 N           1.2074    2.2212   -1.0218 N.pl3   1  LIG1       -0.3569
     21 H           1.0240    1.3304   -1.4663 H       1  LIG1        0.1424
     22 H           1.5522    2.8955   -1.6921 H       1  LIG1        0.1424
     23 C           1.0383    5.0923   -0.2055 C.3     1  LIG1       -0.0374
     24 H           0.8018    6.0504    0.2608 H       1  LIG1        0.0278
     25 H           1.0908    5.2605   -1.2881 H       1  LIG1        0.0278
     26 H           2.0374    4.7900    0.1248 H       1  LIG1        0.0278
@<TRIPOS>BOND
     1    22    20    1
     2    21    20    1
     3    25    23    1
     4     6     1    1
     5    20    15    1
     6     5     1   ar
     7     5     4   ar
     8     1     2   ar
     9     8     7    1
    10    15    16   ar
    11    15    14   ar
    12     2     7    1
    13     2     3   ar
    14    23    26    1
    15    23    16    1
    16    23    24    1
    17     9     7    1
    18     4     3   ar
    19     4    14    1
    20    16    17   ar
    21     3    10    1
    22    14    18   ar
    23    12    10    1
    24    10    11    1
    25    10    13    1
    26    17    18   ar
    27    17    19    1
