@<TRIPOS>MOLECULE
mol_data/opt/cam/geoms/mol2/5hi5hi-5hi-.out
 38 40 0 0 0
SMALL
GASTEIGER

@<TRIPOS>ATOM
      1 C          -1.6967   -1.6855   -1.5535 C.ar    1  LIG1       -0.0028
      2 C          -0.7997   -1.8493   -0.5406 C.ar    1  LIG1        0.0352
      3 C          -0.3699   -0.6013    0.0343 C.ar    1  LIG1       -0.0145
      4 C          -0.9514    0.4795   -0.5775 C.ar    1  LIG1        0.0324
      5 S          -2.0400   -0.0173   -1.8447 S.2     1  LIG1       -0.0939
      6 H          -2.1873   -2.4559   -2.1310 H       1  LIG1        0.0712
      7 N          -0.3760   -3.0727   -0.0094 N.pl3   1  LIG1       -0.3573
      8 H          -0.5970   -3.8681   -0.5920 H       1  LIG1        0.1423
      9 H           0.6001   -3.0860    0.2544 H       1  LIG1        0.1423
     10 C           0.5472   -0.5386    1.2179 C.3     1  LIG1       -0.0369
     11 H           0.5291    0.4518    1.6733 H       1  LIG1        0.0278
     12 H           1.5899   -0.7500    0.9508 H       1  LIG1        0.0278
     13 H           0.2435   -1.2761    1.9671 H       1  LIG1        0.0278
     14 C          -0.7367    1.8922   -0.2900 C.ar    1  LIG1        0.0477
     15 C           0.4632    2.5580   -0.2758 C.ar    1  LIG1        0.0436
     16 C           0.3432    3.9506    0.0538 C.ar    1  LIG1       -0.0139
     17 C          -0.9606    4.3250    0.2570 C.ar    1  LIG1        0.0330
     18 S          -2.0498    2.9793    0.0763 S.2     1  LIG1       -0.0850
     19 N           1.7057    1.9624   -0.5009 N.pl3   1  LIG1       -0.3568
     20 H           1.6313    1.0638   -0.9607 H       1  LIG1        0.1424
     21 H           2.3628    2.5634   -0.9798 H       1  LIG1        0.1424
     22 C           1.5364    4.8442    0.2082 C.3     1  LIG1       -0.0368
     23 H           1.2664    5.7677    0.7210 H       1  LIG1        0.0278
     24 H           1.9728    5.1296   -0.7568 H       1  LIG1        0.0278
     25 H           2.3159    4.3373    0.7852 H       1  LIG1        0.0278
     26 C          -1.4663    5.6557    0.5693 C.ar    1  LIG1        0.0471
     27 C          -1.2589    6.8072   -0.1490 C.ar    1  LIG1        0.0430
     28 C          -1.9086    7.9569    0.4206 C.ar    1  LIG1       -0.0222
     29 C          -2.5982    7.6352    1.5472 C.ar    1  LIG1       -0.0190
     30 S          -2.4730    5.9694    1.9611 S.2     1  LIG1       -0.0940
     31 H          -3.1751    8.3066    2.1678 H       1  LIG1        0.0697
     32 N          -0.4767    6.8977   -1.3015 N.pl3   1  LIG1       -0.3569
     33 H          -0.3197    5.9989   -1.7398 H       1  LIG1        0.1424
     34 H          -0.8209    7.5716   -1.9725 H       1  LIG1        0.1424
     35 C          -1.8175    9.3248   -0.1838 C.3     1  LIG1       -0.0374
     36 H          -2.3287   10.0636    0.4360 H       1  LIG1        0.0278
     37 H          -2.2768    9.3605   -1.1792 H       1  LIG1        0.0278
     38 H          -0.7745    9.6378   -0.2960 H       1  LIG1        0.0278
@<TRIPOS>BOND
     1     6     1    1
     2    34    32    1
     3     5     1   ar
     4     5     4   ar
     5    33    32    1
     6     1     2   ar
     7    32    27    1
     8    37    35    1
     9    21    19    1
    10    20    19    1
    11    24    22    1
    12     8     7    1
    13     4    14    1
    14     4     3   ar
    15     2     7    1
    16     2     3   ar
    17    19    15    1
    18    38    35    1
    19    14    15   ar
    20    14    18   ar
    21    15    16   ar
    22    35    28    1
    23    35    36    1
    24    27    28   ar
    25    27    26   ar
    26     7     9    1
    27     3    10    1
    28    16    22    1
    29    16    17   ar
    30    18    17   ar
    31    22    23    1
    32    22    25    1
    33    17    26    1
    34    28    29   ar
    35    26    30   ar
    36    12    10    1
    37    10    11    1
    38    10    13    1
    39    29    30   ar
    40    29    31    1
