@<TRIPOS>MOLECULE
mol_data/opt/cam/geoms/mol2/5hi5hi5hi-5hi.out
 50 53 0 0 0
SMALL
GASTEIGER

@<TRIPOS>ATOM
      1 C          -1.0725   -1.5497   -2.3149 C.ar    1  LIG1       -0.0028
      2 C          -0.7371   -1.7880   -1.0157 C.ar    1  LIG1        0.0352
      3 C          -0.5370   -0.5804   -0.2580 C.ar    1  LIG1       -0.0145
      4 C          -0.7166    0.5459   -1.0194 C.ar    1  LIG1        0.0324
      5 S          -1.1484    0.1419   -2.6590 S.2     1  LIG1       -0.0939
      6 H          -1.2973   -2.2766   -3.0821 H       1  LIG1        0.0712
      7 N          -0.6706   -3.0440   -0.4022 N.pl3   1  LIG1       -0.3573
      8 H          -0.6501   -3.8158   -1.0541 H       1  LIG1        0.1423
      9 H           0.0776   -3.1285    0.2726 H       1  LIG1        0.1423
     10 C          -0.2464   -0.5967    1.2121 C.3     1  LIG1       -0.0369
     11 H          -0.3992    0.3895    1.6509 H       1  LIG1        0.0278
     12 H           0.7882   -0.8885    1.4305 H       1  LIG1        0.0278
     13 H          -0.9033   -1.3120    1.7163 H       1  LIG1        0.0278
     14 C          -0.5689    1.9363   -0.6079 C.ar    1  LIG1        0.0477
     15 C           0.5348    2.5126   -0.0308 C.ar    1  LIG1        0.0436
     16 C           0.3647    3.9070    0.2678 C.ar    1  LIG1       -0.0139
     17 C          -0.8659    4.3739   -0.1184 C.ar    1  LIG1        0.0330
     18 S          -1.8382    3.1125   -0.8216 S.2     1  LIG1       -0.0850
     19 N           1.7071    1.8302    0.2988 N.pl3   1  LIG1       -0.3568
     20 H           1.7942    0.9450   -0.1843 H       1  LIG1        0.1424
     21 H           2.5443    2.3873    0.1937 H       1  LIG1        0.1424
     22 C           1.4132    4.7085    0.9778 C.3     1  LIG1       -0.0368
     23 H           1.0023    5.6498    1.3434 H       1  LIG1        0.0278
     24 H           2.2597    4.9596    0.3270 H       1  LIG1        0.0278
     25 H           1.8082    4.1445    1.8284 H       1  LIG1        0.0278
     26 C          -1.3767    5.7346   -0.0120 C.ar    1  LIG1        0.0477
     27 C          -0.7952    6.8748   -0.5074 C.ar    1  LIG1        0.0436
     28 C          -1.5449    8.0680   -0.2306 C.ar    1  LIG1       -0.0139
     29 C          -2.7062    7.8047    0.4501 C.ar    1  LIG1        0.0330
     30 S          -2.8841    6.1056    0.7826 S.2     1  LIG1       -0.0850
     31 N           0.4303    6.9178   -1.1741 N.pl3   1  LIG1       -0.3568
     32 H           0.7160    6.0145   -1.5302 H       1  LIG1        0.1424
     33 H           0.4752    7.6245   -1.8959 H       1  LIG1        0.1424
     34 C          -1.0491    9.4315   -0.6062 C.3     1  LIG1       -0.0368
     35 H          -1.6151   10.2069   -0.0894 H       1  LIG1        0.0278
     36 H          -1.1430    9.6288   -1.6811 H       1  LIG1        0.0278
     37 H           0.0083    9.5349   -0.3438 H       1  LIG1        0.0278
     38 C          -3.7296    8.7553    0.8662 C.ar    1  LIG1        0.0471
     39 C          -4.4102    9.6392    0.0657 C.ar    1  LIG1        0.0430
     40 C          -5.3717   10.4317    0.7840 C.ar    1  LIG1       -0.0222
     41 C          -5.3963   10.1126    2.1053 C.ar    1  LIG1       -0.0190
     42 S          -4.2679    8.8820    2.5224 S.2     1  LIG1       -0.0940
     43 H          -6.0253   10.5525    2.8666 H       1  LIG1        0.0697
     44 N          -4.1958    9.8030   -1.3036 N.pl3   1  LIG1       -0.3569
     45 H          -3.7164    9.0159   -1.7225 H       1  LIG1        0.1424
     46 H          -5.0346   10.0316   -1.8203 H       1  LIG1        0.1424
     47 C          -6.2265   11.4693    0.1227 C.3     1  LIG1       -0.0374
     48 H          -6.8445   11.9940    0.8535 H       1  LIG1        0.0278
     49 H          -6.9029   11.0260   -0.6182 H       1  LIG1        0.0278
     50 H          -5.6136   12.2108   -0.3999 H       1  LIG1        0.0278
@<TRIPOS>BOND
     1     6     1    1
     2     5     1   ar
     3     5     4   ar
     4     1     2   ar
     5    33    31    1
     6    46    44    1
     7    45    44    1
     8    36    34    1
     9    32    31    1
    10    44    39    1
    11    31    27    1
    12     8     7    1
    13     4    14    1
    14     4     3   ar
    15     2     7    1
    16     2     3   ar
    17    18    14   ar
    18    18    17   ar
    19    49    47    1
    20    14    15   ar
    21    34    37    1
    22    34    28    1
    23    34    35    1
    24    27    28   ar
    25    27    26   ar
    26     7     9    1
    27    50    47    1
    28     3    10    1
    29    28    29   ar
    30    20    19    1
    31    17    26    1
    32    17    16   ar
    33    15    16   ar
    34    15    19    1
    35    26    30   ar
    36    39    40   ar
    37    39    38   ar
    38    47    40    1
    39    47    48    1
    40    21    19    1
    41    16    22    1
    42    24    22    1
    43    29    30   ar
    44    29    38    1
    45    40    41   ar
    46    38    42   ar
    47    22    23    1
    48    22    25    1
    49    10    12    1
    50    10    11    1
    51    10    13    1
    52    41    42   ar
    53    41    43    1
