@<TRIPOS>MOLECULE
mol_data/opt/cam/geoms/mol2/5hi5hi5hi-.out
 38 40 0 0 0
SMALL
GASTEIGER

@<TRIPOS>ATOM
      1 C          -1.6970   -1.6867   -1.5551 C.ar    1  LIG1       -0.0028
      2 C          -0.8027   -1.8498   -0.5397 C.ar    1  LIG1        0.0352
      3 C          -0.3732   -0.6014    0.0345 C.ar    1  LIG1       -0.0145
      4 C          -0.9522    0.4791   -0.5803 C.ar    1  LIG1        0.0324
      5 S          -2.0380   -0.0185   -1.8495 S.2     1  LIG1       -0.0939
      6 H          -2.1869   -2.4573   -2.1327 H       1  LIG1        0.0712
      7 N          -0.3814   -3.0728   -0.0057 N.pl3   1  LIG1       -0.3573
      8 H          -0.6017   -3.8689   -0.5878 H       1  LIG1        0.1423
      9 H           0.5939   -3.0866    0.2605 H       1  LIG1        0.1423
     10 C           0.5410   -0.5379    1.2203 C.3     1  LIG1       -0.0369
     11 H           0.5227    0.4533    1.6742 H       1  LIG1        0.0278
     12 H           1.5842   -0.7506    0.9561 H       1  LIG1        0.0278
     13 H           0.2347   -1.2740    1.9697 H       1  LIG1        0.0278
     14 C          -0.7369    1.8920   -0.2943 C.ar    1  LIG1        0.0477
     15 C           0.4636    2.5567   -0.2780 C.ar    1  LIG1        0.0436
     16 C           0.3440    3.9499    0.0494 C.ar    1  LIG1       -0.0139
     17 C          -0.9600    4.3258    0.2487 C.ar    1  LIG1        0.0330
     18 S          -2.0500    2.9808    0.0672 S.2     1  LIG1       -0.0850
     19 N           1.7060    1.9596   -0.4990 N.pl3   1  LIG1       -0.3568
     20 H           1.6320    1.0605   -0.9578 H       1  LIG1        0.1424
     21 H           2.3649    2.5594   -0.9772 H       1  LIG1        0.1424
     22 C           1.5376    4.8426    0.2055 C.3     1  LIG1       -0.0368
     23 H           1.2672    5.7671    0.7164 H       1  LIG1        0.0278
     24 H           1.9767    5.1263   -0.7588 H       1  LIG1        0.0278
     25 H           2.3152    4.3358    0.7853 H       1  LIG1        0.0278
     26 C          -1.4653    5.6573    0.5579 C.ar    1  LIG1        0.0471
     27 C          -1.2550    6.8077   -0.1615 C.ar    1  LIG1        0.0430
     28 C          -1.9051    7.9587    0.4048 C.ar    1  LIG1       -0.0222
     29 C          -2.5978    7.6392    1.5302 C.ar    1  LIG1       -0.0190
     30 S          -2.4752    5.9739    1.9467 S.2     1  LIG1       -0.0940
     31 H          -3.1757    8.3120    2.1484 H       1  LIG1        0.0697
     32 N          -0.4699    6.8958   -1.3121 N.pl3   1  LIG1       -0.3569
     33 H          -0.3125    5.9962   -1.7488 H       1  LIG1        0.1424
     34 H          -0.8118    7.5691   -1.9850 H       1  LIG1        0.1424
     35 C          -1.8113    9.3257   -0.2013 C.3     1  LIG1       -0.0374
     36 H          -2.3233   10.0658    0.4163 H       1  LIG1        0.0278
     37 H          -2.2681    9.3604   -1.1978 H       1  LIG1        0.0278
     38 H          -0.7677    9.6376   -0.3113 H       1  LIG1        0.0278
@<TRIPOS>BOND
     1     6     1    1
     2    34    32    1
     3     5     1   ar
     4     5     4   ar
     5    33    32    1
     6     1     2   ar
     7    32    27    1
     8    37    35    1
     9    21    19    1
    10    20    19    1
    11    24    22    1
    12     8     7    1
    13     4    14    1
    14     4     3   ar
    15     2     7    1
    16     2     3   ar
    17    19    15    1
    18    38    35    1
    19    14    15   ar
    20    14    18   ar
    21    15    16   ar
    22    35    28    1
    23    35    36    1
    24    27    28   ar
    25    27    26   ar
    26     7     9    1
    27     3    10    1
    28    16    22    1
    29    16    17   ar
    30    18    17   ar
    31    22    23    1
    32    22    25    1
    33    17    26    1
    34    28    29   ar
    35    26    30   ar
    36    12    10    1
    37    10    11    1
    38    10    13    1
    39    29    30   ar
    40    29    31    1
