@<TRIPOS>MOLECULE
mol_data/opt/cam/geoms/mol2/5hi5hi-5hi5hi-.out
 50 53 0 0 0
SMALL
GASTEIGER

@<TRIPOS>ATOM
      1 C          -1.1080   -1.5528   -2.2940 C.ar    1  LIG1       -0.0028
      2 C          -0.7496   -1.7889   -1.0005 C.ar    1  LIG1        0.0352
      3 C          -0.5370   -0.5800   -0.2483 C.ar    1  LIG1       -0.0145
      4 C          -0.7309    0.5450   -1.0082 C.ar    1  LIG1        0.0324
      5 S          -1.1913    0.1382   -2.6393 S.2     1  LIG1       -0.0939
      6 H          -1.3459   -2.2810   -3.0560 H       1  LIG1        0.0712
      7 N          -0.6713   -3.0439   -0.3864 N.pl3   1  LIG1       -0.3573
      8 H          -0.6617   -3.8167   -1.0374 H       1  LIG1        0.1423
      9 H           0.0888   -3.1268    0.2751 H       1  LIG1        0.1423
     10 C          -0.2205   -0.5938    1.2164 C.3     1  LIG1       -0.0369
     11 H          -0.3661    0.3930    1.6563 H       1  LIG1        0.0278
     12 H           0.8181   -0.8846    1.4169 H       1  LIG1        0.0278
     13 H          -0.8678   -1.3089    1.7332 H       1  LIG1        0.0278
     14 C          -0.5770    1.9362   -0.6014 C.ar    1  LIG1        0.0477
     15 C           0.5363    2.5141   -0.0448 C.ar    1  LIG1        0.0436
     16 C           0.3705    3.9089    0.2546 C.ar    1  LIG1       -0.0139
     17 C          -0.8671    4.3742   -0.1104 C.ar    1  LIG1        0.0330
     18 S          -1.8508    3.1111   -0.7944 S.2     1  LIG1       -0.0850
     19 N           1.7148    1.8331    0.2650 N.pl3   1  LIG1       -0.3568
     20 H           1.7939    0.9473   -0.2182 H       1  LIG1        0.1424
     21 H           2.5496    2.3906    0.1443 H       1  LIG1        0.1424
     22 C           1.4308    4.7122    0.9448 C.3     1  LIG1       -0.0368
     23 H           1.0257    5.6537    1.3161 H       1  LIG1        0.0278
     24 H           2.2655    4.9629    0.2787 H       1  LIG1        0.0278
     25 H           1.8412    4.1498    1.7892 H       1  LIG1        0.0278
     26 C          -1.3770    5.7348    0.0030 C.ar    1  LIG1        0.0477
     27 C          -0.8052    6.8747   -0.5044 C.ar    1  LIG1        0.0436
     28 C          -1.5508    8.0677   -0.2161 C.ar    1  LIG1       -0.0139
     29 C          -2.6997    7.8046    0.4854 C.ar    1  LIG1        0.0330
     30 S          -2.8703    6.1058    0.8236 S.2     1  LIG1       -0.0850
     31 N           0.4083    6.9175   -1.1927 N.pl3   1  LIG1       -0.3568
     32 H           0.6883    6.0139   -1.5524 H       1  LIG1        0.1424
     33 H           0.4399    7.6231   -1.9163 H       1  LIG1        0.1424
     34 C          -1.0628    9.4310   -0.6025 C.3     1  LIG1       -0.0368
     35 H          -1.6200   10.2068   -0.0769 H       1  LIG1        0.0278
     36 H          -1.1758    9.6266   -1.6759 H       1  LIG1        0.0278
     37 H          -0.0009    9.5355   -0.3590 H       1  LIG1        0.0278
     38 C          -3.7163    8.7551    0.9181 C.ar    1  LIG1        0.0471
     39 C          -4.4115    9.6373    0.1285 C.ar    1  LIG1        0.0430
     40 C          -5.3608   10.4302    0.8625 C.ar    1  LIG1       -0.0222
     41 C          -5.3618   10.1130    2.1845 C.ar    1  LIG1       -0.0190
     42 S          -4.2252    8.8839    2.5834 S.2     1  LIG1       -0.0940
     43 H          -5.9775   10.5537    2.9562 H       1  LIG1        0.0697
     44 N          -4.2215    9.7991   -1.2447 N.pl3   1  LIG1       -0.3569
     45 H          -3.7491    9.0118   -1.6708 H       1  LIG1        0.1424
     46 H          -5.0695   10.0263   -1.7468 H       1  LIG1        0.1424
     47 C          -6.2279   11.4662    0.2148 C.3     1  LIG1       -0.0374
     48 H          -6.8333   11.9915    0.9556 H       1  LIG1        0.0278
     49 H          -6.9170   11.0212   -0.5133 H       1  LIG1        0.0278
     50 H          -5.6250   12.2073   -0.3196 H       1  LIG1        0.0278
@<TRIPOS>BOND
     1     6     1    1
     2     5     1   ar
     3     5     4   ar
     4     1     2   ar
     5    33    31    1
     6    46    44    1
     7    36    34    1
     8    45    44    1
     9    32    31    1
    10    44    39    1
    11    31    27    1
    12     8     7    1
    13     4    14    1
    14     4     3   ar
    15     2     7    1
    16     2     3   ar
    17    18    14   ar
    18    18    17   ar
    19    34    37    1
    20    34    28    1
    21    34    35    1
    22    14    15   ar
    23    49    47    1
    24    27    28   ar
    25    27    26   ar
    26     7     9    1
    27    50    47    1
    28     3    10    1
    29    20    19    1
    30    28    29   ar
    31    17    26    1
    32    17    16   ar
    33    15    16   ar
    34    15    19    1
    35    26    30   ar
    36    39    40   ar
    37    39    38   ar
    38    21    19    1
    39    47    40    1
    40    47    48    1
    41    16    22    1
    42    24    22    1
    43    29    30   ar
    44    29    38    1
    45    40    41   ar
    46    38    42   ar
    47    22    23    1
    48    22    25    1
    49    10    12    1
    50    10    11    1
    51    10    13    1
    52    41    42   ar
    53    41    43    1
