@<TRIPOS>MOLECULE
mol_data/opt/cam/geoms/mol2/5hi5hi5hi.out
 38 40 0 0 0
SMALL
GASTEIGER

@<TRIPOS>ATOM
      1 C          -1.7086   -1.6962   -1.5194 C.ar    1  LIG1       -0.0028
      2 C          -0.8055   -1.8527   -0.5107 C.ar    1  LIG1        0.0352
      3 C          -0.3714   -0.6007    0.0519 C.ar    1  LIG1       -0.0145
      4 C          -0.9561    0.4758   -0.5645 C.ar    1  LIG1        0.0324
      5 S          -2.0527   -0.0300   -1.8212 S.2     1  LIG1       -0.0939
      6 H          -2.2033   -2.4706   -2.0878 H       1  LIG1        0.0712
      7 N          -0.3793   -3.0723    0.0272 N.pl3   1  LIG1       -0.3573
      8 H          -0.6044   -3.8721   -0.5479 H       1  LIG1        0.1423
      9 H           0.5984   -3.0842    0.2850 H       1  LIG1        0.1423
     10 C           0.5529   -0.5295    1.2293 C.3     1  LIG1       -0.0369
     11 H           0.5382    0.4645    1.6772 H       1  LIG1        0.0278
     12 H           1.5938   -0.7436    0.9574 H       1  LIG1        0.0278
     13 H           0.2534   -1.2610    1.9860 H       1  LIG1        0.0278
     14 C          -0.7387    1.8905   -0.2893 C.ar    1  LIG1        0.0477
     15 C           0.4616    2.5556   -0.2876 C.ar    1  LIG1        0.0436
     16 C           0.3444    3.9508    0.0321 C.ar    1  LIG1       -0.0139
     17 C          -0.9578    4.3276    0.2404 C.ar    1  LIG1        0.0330
     18 S          -2.0490    2.9813    0.0768 S.2     1  LIG1       -0.0850
     19 N           1.7023    1.9575   -0.5157 N.pl3   1  LIG1       -0.3568
     20 H           1.6245    1.0554   -0.9682 H       1  LIG1        0.1424
     21 H           2.3568    2.5544   -1.0033 H       1  LIG1        0.1424
     22 C           1.5391    4.8448    0.1722 C.3     1  LIG1       -0.0368
     23 H           1.2729    5.7723    0.6797 H       1  LIG1        0.0278
     24 H           1.9697    5.1226   -0.7976 H       1  LIG1        0.0278
     25 H           2.3219    4.3418    0.7483 H       1  LIG1        0.0278
     26 C          -1.4608    5.6609    0.5456 C.ar    1  LIG1        0.0471
     27 C          -1.2572    6.8068   -0.1827 C.ar    1  LIG1        0.0430
     28 C          -1.9026    7.9612    0.3820 C.ar    1  LIG1       -0.0222
     29 C          -2.5855    7.6486    1.5152 C.ar    1  LIG1       -0.0190
     30 S          -2.4587    5.9860    1.9411 S.2     1  LIG1       -0.0940
     31 H          -3.1581    8.3251    2.1342 H       1  LIG1        0.0697
     32 N          -0.4821    6.8879   -1.3407 N.pl3   1  LIG1       -0.3569
     33 H          -0.3282    5.9857   -1.7731 H       1  LIG1        0.1424
     34 H          -0.8299    7.5569   -2.0147 H       1  LIG1        0.1424
     35 C          -1.8145    9.3244   -0.2335 C.3     1  LIG1       -0.0374
     36 H          -2.3214   10.0682    0.3839 H       1  LIG1        0.0278
     37 H          -2.2799    9.3527   -1.2262 H       1  LIG1        0.0278
     38 H          -0.7720    9.6359   -0.3545 H       1  LIG1        0.0278
@<TRIPOS>BOND
     1     6     1    1
     2    34    32    1
     3     5     1   ar
     4     5     4   ar
     5    33    32    1
     6     1     2   ar
     7    32    27    1
     8    37    35    1
     9    21    19    1
    10    20    19    1
    11    24    22    1
    12     4    14    1
    13     4     3   ar
    14     8     7    1
    15    19    15    1
    16     2     7    1
    17     2     3   ar
    18    38    35    1
    19    14    15   ar
    20    14    18   ar
    21    15    16   ar
    22    35    28    1
    23    35    36    1
    24    27    28   ar
    25    27    26   ar
    26     7     9    1
    27    16    22    1
    28    16    17   ar
    29     3    10    1
    30    18    17   ar
    31    22    23    1
    32    22    25    1
    33    17    26    1
    34    28    29   ar
    35    26    30   ar
    36    12    10    1
    37    10    11    1
    38    10    13    1
    39    29    30   ar
    40    29    31    1
