@<TRIPOS>MOLECULE
mol_data/opt/cam/geoms/mol2/5hi5hi-5hi-5hi.out
 50 53 0 0 0
SMALL
GASTEIGER

@<TRIPOS>ATOM
      1 C          -1.0862   -1.5448   -2.3124 C.ar    1  LIG1       -0.0028
      2 C          -0.7402   -1.7855   -1.0163 C.ar    1  LIG1        0.0352
      3 C          -0.5349   -0.5792   -0.2579 C.ar    1  LIG1       -0.0145
      4 C          -0.7214    0.5485   -1.0156 C.ar    1  LIG1        0.0324
      5 S          -1.1661    0.1475   -2.6525 S.2     1  LIG1       -0.0939
      6 H          -1.3166   -2.2703   -3.0792 H       1  LIG1        0.0712
      7 N          -0.6679   -3.0426   -0.4060 N.pl3   1  LIG1       -0.3573
      8 H          -0.6521   -3.8131   -1.0595 H       1  LIG1        0.1423
      9 H           0.0858   -3.1279    0.2626 H       1  LIG1        0.1423
     10 C          -0.2325   -0.5982    1.2098 C.3     1  LIG1       -0.0369
     11 H          -0.3825    0.3870    1.6518 H       1  LIG1        0.0278
     12 H           0.8040   -0.8897    1.4193 H       1  LIG1        0.0278
     13 H          -0.8848   -1.3151    1.7178 H       1  LIG1        0.0278
     14 C          -0.5714    1.9382   -0.6025 C.ar    1  LIG1        0.0477
     15 C           0.5365    2.5141   -0.0331 C.ar    1  LIG1        0.0436
     16 C           0.3678    3.9078    0.2696 C.ar    1  LIG1       -0.0139
     17 C          -0.8662    4.3745   -0.1058 C.ar    1  LIG1        0.0330
     18 S          -1.8433    3.1139   -0.8036 S.2     1  LIG1       -0.0850
     19 N           1.7118    1.8319    0.2857 N.pl3   1  LIG1       -0.3568
     20 H           1.7957    0.9478   -0.1998 H       1  LIG1        0.1424
     21 H           2.5478    2.3898    0.1750 H       1  LIG1        0.1424
     22 C           1.4214    4.7086    0.9729 C.3     1  LIG1       -0.0368
     23 H           1.0127    5.6489    1.3435 H       1  LIG1        0.0278
     24 H           2.2625    4.9616    0.3157 H       1  LIG1        0.0278
     25 H           1.8236    4.1432    1.8192 H       1  LIG1        0.0278
     26 C          -1.3771    5.7347    0.0075 C.ar    1  LIG1        0.0477
     27 C          -0.8004    6.8763   -0.4903 C.ar    1  LIG1        0.0436
     28 C          -1.5487    8.0684   -0.2051 C.ar    1  LIG1       -0.0139
     29 C          -2.7044    7.8029    0.4844 C.ar    1  LIG1        0.0330
     30 S          -2.8783    6.1030    0.8149 S.2     1  LIG1       -0.0850
     31 N           0.4197    6.9215   -1.1667 N.pl3   1  LIG1       -0.3568
     32 H           0.7032    6.0191   -1.5268 H       1  LIG1        0.1424
     33 H           0.4583    7.6296   -1.8874 H       1  LIG1        0.1424
     34 C          -1.0569    9.4330   -0.5819 C.3     1  LIG1       -0.0368
     35 H          -1.6193   10.2069   -0.0591 H       1  LIG1        0.0278
     36 H          -1.1596    9.6324   -1.6557 H       1  LIG1        0.0278
     37 H           0.0025    9.5366   -0.3278 H       1  LIG1        0.0278
     38 C          -3.7250    8.7520    0.9105 C.ar    1  LIG1        0.0471
     39 C          -4.4126    9.6369    0.1173 C.ar    1  LIG1        0.0430
     40 C          -5.3689   10.4273    0.8449 C.ar    1  LIG1       -0.0222
     41 C          -5.3827   10.1055    2.1657 C.ar    1  LIG1       -0.0190
     42 S          -4.2501    8.8749    2.5713 S.2     1  LIG1       -0.0940
     43 H          -6.0058   10.5435    2.9329 H       1  LIG1        0.0697
     44 N          -4.2093    9.8036   -1.2533 N.pl3   1  LIG1       -0.3569
     45 H          -3.7328    9.0177   -1.6776 H       1  LIG1        0.1424
     46 H          -5.0524   10.0326   -1.7628 H       1  LIG1        0.1424
     47 C          -6.2297   11.4656    0.1925 C.3     1  LIG1       -0.0374
     48 H          -6.8422   11.9884    0.9293 H       1  LIG1        0.0278
     49 H          -6.9117   11.0232   -0.5438 H       1  LIG1        0.0278
     50 H          -5.6216   12.2086   -0.3335 H       1  LIG1        0.0278
@<TRIPOS>BOND
     1     6     1    1
     2     5     1   ar
     3     5     4   ar
     4     1     2   ar
     5    33    31    1
     6    46    44    1
     7    45    44    1
     8    36    34    1
     9    32    31    1
    10    44    39    1
    11    31    27    1
    12     8     7    1
    13     2     7    1
    14     2     3   ar
    15     4    14    1
    16     4     3   ar
    17    18    14   ar
    18    18    17   ar
    19    14    15   ar
    20    34    37    1
    21    34    28    1
    22    34    35    1
    23    49    47    1
    24    27    28   ar
    25    27    26   ar
    26     7     9    1
    27    50    47    1
    28     3    10    1
    29    28    29   ar
    30    20    19    1
    31    17    26    1
    32    17    16   ar
    33    15    16   ar
    34    15    19    1
    35    26    30   ar
    36    39    40   ar
    37    39    38   ar
    38    21    19    1
    39    47    40    1
    40    47    48    1
    41    16    22    1
    42    24    22    1
    43    29    30   ar
    44    29    38    1
    45    40    41   ar
    46    38    42   ar
    47    22    23    1
    48    22    25    1
    49    10    12    1
    50    10    11    1
    51    10    13    1
    52    41    42   ar
    53    41    43    1
