@<TRIPOS>MOLECULE
mol_data/opt/cam/geoms/mol2/5hi5hi5hi5hi.out
 50 53 0 0 0
SMALL
GASTEIGER

@<TRIPOS>ATOM
      1 C          -1.0898   -1.5574   -2.2914 C.ar    1  LIG1       -0.0028
      2 C          -0.7430   -1.7911   -0.9943 C.ar    1  LIG1        0.0352
      3 C          -0.5367   -0.5806   -0.2426 C.ar    1  LIG1       -0.0145
      4 C          -0.7234    0.5429   -1.0065 C.ar    1  LIG1        0.0324
      5 S          -1.1693    0.1329   -2.6408 S.2     1  LIG1       -0.0939
      6 H          -1.3210   -2.2871   -3.0540 H       1  LIG1        0.0712
      7 N          -0.6707   -3.0448   -0.3769 N.pl3   1  LIG1       -0.3573
      8 H          -0.6556   -3.8189   -1.0262 H       1  LIG1        0.1423
      9 H           0.0834   -3.1267    0.2916 H       1  LIG1        0.1423
     10 C          -0.2334   -0.5916    1.2249 C.3     1  LIG1       -0.0369
     11 H          -0.3827    0.3961    1.6615 H       1  LIG1        0.0278
     12 H           0.8032   -0.8823    1.4353 H       1  LIG1        0.0278
     13 H          -0.8856   -1.3054    1.7373 H       1  LIG1        0.0278
     14 C          -0.5726    1.9348   -0.6012 C.ar    1  LIG1        0.0477
     15 C           0.5358    2.5135   -0.0358 C.ar    1  LIG1        0.0436
     16 C           0.3678    3.9089    0.2593 C.ar    1  LIG1       -0.0139
     17 C          -0.8663    4.3740   -0.1178 C.ar    1  LIG1        0.0330
     18 S          -1.8443    3.1098   -0.8080 S.2     1  LIG1       -0.0850
     19 N           1.7112    1.8327    0.2860 N.pl3   1  LIG1       -0.3568
     20 H           1.7944    0.9458   -0.1947 H       1  LIG1        0.1424
     21 H           2.5473    2.3897    0.1717 H       1  LIG1        0.1424
     22 C           1.4222    4.7133    0.9574 C.3     1  LIG1       -0.0368
     23 H           1.0140    5.6557    1.3231 H       1  LIG1        0.0278
     24 H           2.2629    4.9623    0.2983 H       1  LIG1        0.0278
     25 H           1.8248    4.1524    1.8065 H       1  LIG1        0.0278
     26 C          -1.3767    5.7349   -0.0117 C.ar    1  LIG1        0.0477
     27 C          -0.7999    6.8736   -0.5163 C.ar    1  LIG1        0.0436
     28 C          -1.5476    8.0674   -0.2371 C.ar    1  LIG1       -0.0139
     29 C          -2.7029    7.8062    0.4546 C.ar    1  LIG1        0.0330
     30 S          -2.8772    6.1082    0.7946 S.2     1  LIG1       -0.0850
     31 N           0.4197    6.9146   -1.1937 N.pl3   1  LIG1       -0.3568
     32 H           0.7026    6.0101   -1.5491 H       1  LIG1        0.1424
     33 H           0.4581    7.6187   -1.9184 H       1  LIG1        0.1424
     34 C          -1.0557    9.4298   -0.6219 C.3     1  LIG1       -0.0368
     35 H          -1.6174   10.2068   -0.1030 H       1  LIG1        0.0278
     36 H          -1.1590    9.6233   -1.6966 H       1  LIG1        0.0278
     37 H           0.0040    9.5344   -0.3691 H       1  LIG1        0.0278
     38 C          -3.7230    8.7579    0.8762 C.ar    1  LIG1        0.0471
     39 C          -4.4108    9.6387    0.0785 C.ar    1  LIG1        0.0430
     40 C          -5.3663   10.4334    0.8023 C.ar    1  LIG1       -0.0222
     41 C          -5.3793   10.1190    2.1249 C.ar    1  LIG1       -0.0190
     42 S          -4.2468    8.8903    2.5365 S.2     1  LIG1       -0.0940
     43 H          -6.0018   10.5614    2.8901 H       1  LIG1        0.0697
     44 N          -4.2084    9.7977   -1.2932 N.pl3   1  LIG1       -0.3569
     45 H          -3.7324    9.0093   -1.7134 H       1  LIG1        0.1424
     46 H          -5.0518   10.0242   -1.8034 H       1  LIG1        0.1424
     47 C          -6.2272   11.4684    0.1448 C.3     1  LIG1       -0.0374
     48 H          -6.8390   11.9955    0.8791 H       1  LIG1        0.0278
     49 H          -6.9099   11.0222   -0.5886 H       1  LIG1        0.0278
     50 H          -5.6192   12.2082   -0.3857 H       1  LIG1        0.0278
@<TRIPOS>BOND
     1     6     1    1
     2     5     1   ar
     3     5     4   ar
     4     1     2   ar
     5    33    31    1
     6    46    44    1
     7    45    44    1
     8    36    34    1
     9    32    31    1
    10    44    39    1
    11    31    27    1
    12     8     7    1
    13     4    14    1
    14     4     3   ar
    15     2     7    1
    16     2     3   ar
    17    18    14   ar
    18    18    17   ar
    19    34    37    1
    20    34    28    1
    21    34    35    1
    22    14    15   ar
    23    49    47    1
    24    27    28   ar
    25    27    26   ar
    26    50    47    1
    27     7     9    1
    28     3    10    1
    29    28    29   ar
    30    20    19    1
    31    17    26    1
    32    17    16   ar
    33    15    16   ar
    34    15    19    1
    35    26    30   ar
    36    39    40   ar
    37    39    38   ar
    38    47    40    1
    39    47    48    1
    40    21    19    1
    41    16    22    1
    42    24    22    1
    43    29    30   ar
    44    29    38    1
    45    40    41   ar
    46    38    42   ar
    47    22    23    1
    48    22    25    1
    49    10    12    1
    50    10    11    1
    51    10    13    1
    52    41    42   ar
    53    41    43    1
