@<TRIPOS>MOLECULE
mol_data/opt/cam/geoms/mol2/5hi5hi-.out
 26 27 0 0 0
SMALL
GASTEIGER

@<TRIPOS>ATOM
      1 C          -2.0160   -1.7254   -0.8244 C.ar    1  LIG1       -0.0028
      2 C          -0.7720   -1.8226   -0.2763 C.ar    1  LIG1        0.0352
      3 C          -0.2473   -0.5519    0.1508 C.ar    1  LIG1       -0.0145
      4 C          -1.1148    0.4795   -0.1025 C.ar    1  LIG1        0.0324
      5 S          -2.5826   -0.0931   -0.8469 S.2     1  LIG1       -0.0939
      6 H          -2.6361   -2.5269   -1.1993 H       1  LIG1        0.0712
      7 N          -0.0692   -3.0099   -0.0410 N.pl3   1  LIG1       -0.3573
      8 H          -0.4459   -3.8093   -0.5312 H       1  LIG1        0.1423
      9 H           0.9260   -2.9321   -0.2024 H       1  LIG1        0.1423
     10 C           1.0666   -0.4254    0.8602 C.3     1  LIG1       -0.0369
     11 H           1.1573    0.5487    1.3415 H       1  LIG1        0.0278
     12 H           1.9209   -0.5283    0.1797 H       1  LIG1        0.0278
     13 H           1.1580   -1.2050    1.6227 H       1  LIG1        0.0278
     14 C          -0.9159    1.8992    0.1609 C.ar    1  LIG1        0.0470
     15 C           0.1218    2.6830   -0.2787 C.ar    1  LIG1        0.0430
     16 C           0.0179    4.0536    0.1443 C.ar    1  LIG1       -0.0222
     17 C          -1.1035    4.2659    0.8830 C.ar    1  LIG1       -0.0190
     18 S          -2.0424    2.8406    1.1058 S.2     1  LIG1       -0.0940
     19 H          -1.4237    5.2010    1.3210 H       1  LIG1        0.0697
     20 N           1.2029    2.2238   -1.0332 N.pl3   1  LIG1       -0.3569
     21 H           1.0175    1.3341   -1.4793 H       1  LIG1        0.1424
     22 H           1.5450    2.8998   -1.7032 H       1  LIG1        0.1424
     23 C           1.0379    5.0927   -0.2086 C.3     1  LIG1       -0.0374
     24 H           0.8036    6.0496    0.2613 H       1  LIG1        0.0278
     25 H           1.0857    5.2638   -1.2910 H       1  LIG1        0.0278
     26 H           2.0383    4.7894    0.1165 H       1  LIG1        0.0278
@<TRIPOS>BOND
     1    22    20    1
     2    21    20    1
     3    25    23    1
     4     6     1    1
     5    20    15    1
     6     5     1   ar
     7     5     4   ar
     8     1     2   ar
     9     8     7    1
    10    15    16   ar
    11    15    14   ar
    12     2     7    1
    13     2     3   ar
    14    23    26    1
    15    23    16    1
    16    23    24    1
    17     9     7    1
    18     4     3   ar
    19     4    14    1
    20    16    17   ar
    21     3    10    1
    22    14    18   ar
    23    12    10    1
    24    10    11    1
    25    10    13    1
    26    17    18   ar
    27    17    19    1
