@<TRIPOS>MOLECULE
mol_data/opt/cam/geoms/mol2/5hl.out
 15 15 0 0 0
SMALL
GASTEIGER

@<TRIPOS>ATOM
      1 C          -2.3586   -1.5981   -0.1092 C.ar    1  LIG1        0.0000
      2 C          -1.1150   -2.1146    0.0838 C.ar    1  LIG1        0.0739
      3 C          -0.0995   -1.1034   -0.0555 C.ar    1  LIG1        0.1476
      4 C          -0.5899    0.1322   -0.3386 C.ar    1  LIG1        0.0193
      5 S          -2.3169    0.1027   -0.4472 S.2     1  LIG1       -0.0995
      6 H          -3.3030   -2.1191   -0.0546 H       1  LIG1        0.0713
      7 H          -0.0465    1.0502   -0.4956 H       1  LIG1        0.0731
      8 N          -0.7684   -3.4174    0.4307 N.pl3   1  LIG1       -0.3547
      9 H          -1.4105   -4.1255    0.1064 H       1  LIG1        0.1424
     10 H           0.1908   -3.6392    0.2018 H       1  LIG1        0.1424
     11 O           1.1922   -1.4970    0.0910 O.3     1  LIG1       -0.4927
     12 C           2.1679   -0.4888   -0.0626 C.3     1  LIG1        0.0789
     13 H           2.0343    0.3044    0.6824 H       1  LIG1        0.0660
     14 H           3.1376   -0.9638    0.0839 H       1  LIG1        0.0660
     15 H           2.1248   -0.0472   -1.0655 H       1  LIG1        0.0660
@<TRIPOS>BOND
     1    15    12    1
     2     7     4    1
     3     5     4   ar
     4     5     1   ar
     5     4     3   ar
     6     1     6    1
     7     1     2   ar
     8    12    14    1
     9    12    11    1
    10    12    13    1
    11     3     2   ar
    12     3    11    1
    13     2     8    1
    14     9     8    1
    15    10     8    1
