@<TRIPOS>MOLECULE
mol_data/opt/cam/geoms/mol2/5hl5hl.out
 28 29 0 0 0
SMALL
GASTEIGER

@<TRIPOS>ATOM
      1 C          -0.9838   -1.8838    1.5827 C.ar    1  LIG1        0.0006
      2 C          -0.9255   -2.1342    0.2467 C.ar    1  LIG1        0.0746
      3 C          -0.4574   -0.9949   -0.4875 C.ar    1  LIG1        0.1559
      4 C          -0.1675    0.1017    0.2767 C.ar    1  LIG1        0.0712
      5 S          -0.4967   -0.2602    1.9540 S.2     1  LIG1       -0.0905
      6 H          -1.2833   -2.5518    2.3763 H       1  LIG1        0.0713
      7 N          -1.2059   -3.3225   -0.4238 N.pl3   1  LIG1       -0.3547
      8 H          -1.8322   -3.9430    0.0690 H       1  LIG1        0.1424
      9 H          -1.5182   -3.1534   -1.3718 H       1  LIG1        0.1424
     10 O          -0.3678   -1.0340   -1.8556 O.3     1  LIG1       -0.4921
     11 C           0.8773   -1.5465   -2.3320 C.3     1  LIG1        0.0789
     12 H           0.8084   -1.5700   -3.4202 H       1  LIG1        0.0660
     13 H           1.7032   -0.8933   -2.0349 H       1  LIG1        0.0660
     14 H           1.0511   -2.5575   -1.9501 H       1  LIG1        0.0660
     15 C           0.2985    1.4018   -0.1638 C.ar    1  LIG1        0.0537
     16 C           0.9259    2.3776    0.5726 C.ar    1  LIG1        0.0824
     17 C           1.2094    3.5482   -0.2079 C.ar    1  LIG1        0.1482
     18 C           0.8130    3.4514   -1.5005 C.ar    1  LIG1        0.0199
     19 S           0.0766    1.9284   -1.8253 S.2     1  LIG1       -0.0904
     20 H           0.9408    4.1902   -2.2776 H       1  LIG1        0.0731
     21 N           1.2606    2.3532    1.9212 N.pl3   1  LIG1       -0.3542
     22 H           1.4373    1.4329    2.3022 H       1  LIG1        0.1425
     23 H           2.0102    3.0019    2.1277 H       1  LIG1        0.1425
     24 O           1.8610    4.6164    0.3514 O.3     1  LIG1       -0.4927
     25 C           0.9869    5.5416    0.9923 C.3     1  LIG1        0.0789
     26 H           1.6168    6.3197    1.4255 H       1  LIG1        0.0660
     27 H           0.2974    5.9909    0.2698 H       1  LIG1        0.0660
     28 H           0.4078    5.0546    1.7844 H       1  LIG1        0.0660
@<TRIPOS>BOND
     1    12    11    1
     2    11    13    1
     3    11    14    1
     4    11    10    1
     5    20    18    1
     6    10     3    1
     7    19    18   ar
     8    19    15   ar
     9    18    17   ar
    10     9     7    1
    11     3     2   ar
    12     3     4   ar
    13     7     8    1
    14     7     2    1
    15    17    24    1
    16    17    16   ar
    17    15     4    1
    18    15    16   ar
    19     2     1   ar
    20    27    25    1
    21     4     5   ar
    22    24    25    1
    23    16    21    1
    24    25    26    1
    25    25    28    1
    26     1     5   ar
    27     1     6    1
    28    21    23    1
    29    21    22    1
