@<TRIPOS>MOLECULE
mol_data/opt/cam/geoms/mol2/5hl5hl5hl-5hl.out
 54 57 0 0 0
SMALL
GASTEIGER

@<TRIPOS>ATOM
      1 C          -2.2389   -2.0465   -1.2550 C.ar    1  LIG1        0.0006
      2 C          -1.0334   -2.2791   -0.6683 C.ar    1  LIG1        0.0746
      3 C          -0.3482   -1.0574   -0.3618 C.ar    1  LIG1        0.1559
      4 C          -1.0219    0.0841   -0.7092 C.ar    1  LIG1        0.0713
      5 S          -2.5417   -0.3498   -1.4486 S.2     1  LIG1       -0.0905
      6 H          -2.9798   -2.7679   -1.5655 H       1  LIG1        0.0713
      7 N          -0.4761   -3.5010   -0.2996 N.pl3   1  LIG1       -0.3547
      8 H          -0.7801   -4.2875   -0.8546 H       1  LIG1        0.1424
      9 H           0.5317   -3.4525   -0.2296 H       1  LIG1        0.1424
     10 O           0.9003   -1.1149    0.2175 O.3     1  LIG1       -0.4921
     11 C           0.9060   -0.8163    1.6148 C.3     1  LIG1        0.0789
     12 H           1.9368   -0.9274    1.9527 H       1  LIG1        0.0660
     13 H           0.5726    0.2095    1.7926 H       1  LIG1        0.0660
     14 H           0.2601   -1.5144    2.1560 H       1  LIG1        0.0660
     15 C          -0.6304    1.4743   -0.5723 C.ar    1  LIG1        0.0544
     16 C           0.6232    2.0404   -0.5993 C.ar    1  LIG1        0.0831
     17 C           0.5711    3.4700   -0.5182 C.ar    1  LIG1        0.1565
     18 C          -0.6846    4.0063   -0.4274 C.ar    1  LIG1        0.0719
     19 S          -1.8616    2.7193   -0.4316 S.2     1  LIG1       -0.0814
     20 N           1.8492    1.4132   -0.6439 N.pl3   1  LIG1       -0.3542
     21 H           1.8485    0.4130   -0.7785 H       1  LIG1        0.1425
     22 H           2.5755    1.9391   -1.1052 H       1  LIG1        0.1425
     23 O           1.7471    4.1853   -0.5621 O.3     1  LIG1       -0.4921
     24 C           2.2282    4.5786    0.7240 C.3     1  LIG1        0.0789
     25 H           3.1661    5.1097    0.5578 H       1  LIG1        0.0660
     26 H           1.5142    5.2444    1.2166 H       1  LIG1        0.0660
     27 H           2.4063    3.6979    1.3485 H       1  LIG1        0.0660
     28 C          -1.1033    5.3907   -0.3332 C.ar    1  LIG1        0.0544
     29 C          -0.5017    6.5290   -0.8218 C.ar    1  LIG1        0.0831
     30 C          -1.2983    7.6983   -0.5920 C.ar    1  LIG1        0.1565
     31 C          -2.4813    7.4826    0.0592 C.ar    1  LIG1        0.0718
     32 S          -2.6414    5.7851    0.4199 S.2     1  LIG1       -0.0814
     33 N           0.7238    6.6630   -1.4322 N.pl3   1  LIG1       -0.3542
     34 H           1.2267    5.8152   -1.6482 H       1  LIG1        0.1425
     35 H           0.7884    7.4240   -2.0906 H       1  LIG1        0.1425
     36 O          -0.8489    8.9141   -1.0553 O.3     1  LIG1       -0.4921
     37 C          -0.2164    9.7152   -0.0561 C.3     1  LIG1        0.0789
     38 H           0.1104   10.6303   -0.5509 H       1  LIG1        0.0660
     39 H          -0.9205    9.9640    0.7427 H       1  LIG1        0.0660
     40 H           0.6481    9.1901    0.3613 H       1  LIG1        0.0660
     41 C          -3.5147    8.4239    0.4506 C.ar    1  LIG1        0.0538
     42 C          -3.8979    9.6037   -0.1471 C.ar    1  LIG1        0.0824
     43 C          -5.0427   10.1860    0.5027 C.ar    1  LIG1        0.1482
     44 C          -5.5053    9.4676    1.5542 C.ar    1  LIG1        0.0199
     45 S          -4.5517    8.0592    1.8217 S.2     1  LIG1       -0.0904
     46 H          -6.3504    9.7036    2.1833 H       1  LIG1        0.0731
     47 N          -3.3302   10.2549   -1.2236 N.pl3   1  LIG1       -0.3542
     48 H          -2.5797    9.7719   -1.6961 H       1  LIG1        0.1425
     49 H          -3.9974   10.7300   -1.8143 H       1  LIG1        0.1425
     50 O          -5.6103   11.3368    0.0262 O.3     1  LIG1       -0.4927
     51 C          -4.9515   12.5215    0.4647 C.3     1  LIG1        0.0789
     52 H          -5.4670   13.3589   -0.0075 H       1  LIG1        0.0660
     53 H          -5.0168   12.6222    1.5536 H       1  LIG1        0.0660
     54 H          -3.8990   12.5212    0.1636 H       1  LIG1        0.0660
@<TRIPOS>BOND
     1    35    33    1
     2    49    47    1
     3    48    47    1
     4    34    33    1
     5     6     1    1
     6     5     1   ar
     7     5     4   ar
     8    33    29    1
     9     1     2   ar
    10    47    42    1
    11    22    20    1
    12    36    30    1
    13    36    37    1
    14     8     7    1
    15    29    30   ar
    16    29    28   ar
    17    21    20    1
    18     4    15    1
    19     4     3   ar
    20     2     3   ar
    21     2     7    1
    22    20    16    1
    23    16    15   ar
    24    16    17   ar
    25    30    31   ar
    26    15    19   ar
    27    23    17    1
    28    23    24    1
    29    38    37    1
    30    17    18   ar
    31    19    18   ar
    32    18    28    1
    33     3    10    1
    34    28    32   ar
    35     7     9    1
    36    42    41   ar
    37    42    43   ar
    38    37    40    1
    39    37    39    1
    40    52    51    1
    41    50    51    1
    42    50    43    1
    43    31    32   ar
    44    31    41    1
    45    54    51    1
    46    10    11    1
    47    41    45   ar
    48    51    53    1
    49    43    44   ar
    50    25    24    1
    51    24    26    1
    52    24    27    1
    53    44    45   ar
    54    44    46    1
    55    11    13    1
    56    11    12    1
    57    11    14    1
