@<TRIPOS>MOLECULE
mol_data/opt/cam/geoms/mol2/5hl5hl-5hl.out
 41 43 0 0 0
SMALL
GASTEIGER

@<TRIPOS>ATOM
      1 C          -2.3811   -2.0633   -0.5465 C.ar    1  LIG1        0.0006
      2 C          -1.0408   -2.2640   -0.4253 C.ar    1  LIG1        0.0746
      3 C          -0.3278   -1.0256   -0.3062 C.ar    1  LIG1        0.1559
      4 C          -1.1131    0.0968   -0.3355 C.ar    1  LIG1        0.0713
      5 S          -2.7815   -0.3759   -0.5290 S.2     1  LIG1       -0.0905
      6 H          -3.1623   -2.8046   -0.6238 H       1  LIG1        0.0713
      7 N          -0.3542   -3.4725   -0.3399 N.pl3   1  LIG1       -0.3547
      8 H          -0.8120   -4.2504   -0.7922 H       1  LIG1        0.1424
      9 H           0.6116   -3.3816   -0.6261 H       1  LIG1        0.1424
     10 O           1.0452   -1.0487   -0.1969 O.3     1  LIG1       -0.4921
     11 C           1.5248   -0.8343    1.1318 C.3     1  LIG1        0.0789
     12 H           2.6118   -0.9089    1.0864 H       1  LIG1        0.0660
     13 H           1.2423    0.1593    1.4896 H       1  LIG1        0.0660
     14 H           1.1278   -1.5978    1.8077 H       1  LIG1        0.0660
     15 C          -0.7396    1.4970   -0.2624 C.ar    1  LIG1        0.0544
     16 C           0.4126    2.1217   -0.6808 C.ar    1  LIG1        0.0831
     17 C           0.3473    3.5431   -0.5074 C.ar    1  LIG1        0.1565
     18 C          -0.8173    4.0136    0.0331 C.ar    1  LIG1        0.0718
     19 S          -1.8854    2.6750    0.3578 S.2     1  LIG1       -0.0814
     20 N           1.5676    1.5567   -1.1739 N.pl3   1  LIG1       -0.3542
     21 H           1.5530    0.5640   -1.3550 H       1  LIG1        0.1425
     22 H           2.0800    2.1370   -1.8201 H       1  LIG1        0.1425
     23 O           1.4124    4.3153   -0.9126 O.3     1  LIG1       -0.4921
     24 C           2.2834    4.7019    0.1512 C.3     1  LIG1        0.0789
     25 H           3.0893    5.2812   -0.3004 H       1  LIG1        0.0660
     26 H           1.7529    5.3212    0.8797 H       1  LIG1        0.0660
     27 H           2.6950    3.8169    0.6461 H       1  LIG1        0.0660
     28 C          -1.2175    5.3745    0.3422 C.ar    1  LIG1        0.0538
     29 C          -0.8638    6.5536   -0.2744 C.ar    1  LIG1        0.0824
     30 C          -1.5656    7.6806    0.2818 C.ar    1  LIG1        0.1482
     31 C          -2.4197    7.3594    1.2833 C.ar    1  LIG1        0.0199
     32 S          -2.3905    5.6702    1.6168 S.2     1  LIG1       -0.0904
     33 H          -3.0530    8.0329    1.8409 H       1  LIG1        0.0731
     34 N           0.0457    6.7607   -1.2922 N.pl3   1  LIG1       -0.3542
     35 H           0.4575    5.9344   -1.7015 H       1  LIG1        0.1425
     36 H          -0.2175    7.4934   -1.9353 H       1  LIG1        0.1425
     37 O          -1.3905    8.9384   -0.2291 O.3     1  LIG1       -0.4927
     38 C          -0.2336    9.6013    0.2732 C.3     1  LIG1        0.0789
     39 H          -0.1835   10.5674   -0.2307 H       1  LIG1        0.0660
     40 H          -0.3148    9.7592    1.3542 H       1  LIG1        0.0660
     41 H           0.6734    9.0272    0.0582 H       1  LIG1        0.0660
@<TRIPOS>BOND
     1    36    34    1
     2    22    20    1
     3    35    34    1
     4    21    20    1
     5    34    29    1
     6    20    16    1
     7    23    17    1
     8    23    24    1
     9     8     7    1
    10    16    17   ar
    11    16    15   ar
    12     9     7    1
    13     6     1    1
    14     1     5   ar
    15     1     2   ar
    16     5     4   ar
    17    17    18   ar
    18     2     7    1
    19     2     3   ar
    20     4     3   ar
    21     4    15    1
    22     3    10    1
    23    25    24    1
    24    29    30   ar
    25    29    28   ar
    26    15    19   ar
    27    39    38    1
    28    37    38    1
    29    37    30    1
    30    10    11    1
    31    18    28    1
    32    18    19   ar
    33    41    38    1
    34    24    27    1
    35    24    26    1
    36    38    40    1
    37    30    31   ar
    38    28    32   ar
    39    12    11    1
    40    11    13    1
    41    11    14    1
    42    31    32   ar
    43    31    33    1
