@<TRIPOS>MOLECULE
mol_data/opt/cam/geoms/mol2/5hl5hl-5hl-.out
 41 43 0 0 0
SMALL
GASTEIGER

@<TRIPOS>ATOM
      1 C          -2.5311   -1.9553   -0.4975 C.ar    1  LIG1        0.0006
      2 C          -1.2054   -2.2476   -0.4054 C.ar    1  LIG1        0.0746
      3 C          -0.4067   -1.0614   -0.2993 C.ar    1  LIG1        0.1559
      4 C          -1.1132    0.1125   -0.3098 C.ar    1  LIG1        0.0713
      5 S          -2.8141   -0.2442   -0.4684 S.2     1  LIG1       -0.0905
      6 H          -3.3627   -2.6412   -0.5584 H       1  LIG1        0.0713
      7 N          -0.6019   -3.5008   -0.3368 N.pl3   1  LIG1       -0.3547
      8 H          -1.1192   -4.2427   -0.7855 H       1  LIG1        0.1424
      9 H           0.3629   -3.4740   -0.6393 H       1  LIG1        0.1424
     10 O           0.9635   -1.1800   -0.2191 O.3     1  LIG1       -0.4921
     11 C           1.4858   -0.9917    1.0974 C.3     1  LIG1        0.0789
     12 H           2.5636   -1.1424    1.0294 H       1  LIG1        0.0660
     13 H           1.2814    0.0214    1.4538 H       1  LIG1        0.0660
     14 H           1.0513   -1.7215    1.7873 H       1  LIG1        0.0660
     15 C          -0.6433    1.4835   -0.2432 C.ar    1  LIG1        0.0544
     16 C           0.5400    2.0287   -0.6853 C.ar    1  LIG1        0.0831
     17 C           0.5776    3.4508   -0.5072 C.ar    1  LIG1        0.1565
     18 C          -0.5400    3.9991    0.0594 C.ar    1  LIG1        0.0718
     19 S          -1.6912    2.7359    0.4044 S.2     1  LIG1       -0.0814
     20 N           1.6414    1.3868   -1.2044 N.pl3   1  LIG1       -0.3542
     21 H           1.5552    0.3994   -1.3924 H       1  LIG1        0.1425
     22 H           2.1893    1.9369   -1.8474 H       1  LIG1        0.1425
     23 O           1.6876    4.1450   -0.9332 O.3     1  LIG1       -0.4921
     24 C           2.5798    4.5128    0.1199 C.3     1  LIG1        0.0789
     25 H           3.4225    5.0218   -0.3490 H       1  LIG1        0.0660
     26 H           2.0899    5.1919    0.8228 H       1  LIG1        0.0660
     27 H           2.9320    3.6214    0.6480 H       1  LIG1        0.0660
     28 C          -0.8436    5.3822    0.3756 C.ar    1  LIG1        0.0538
     29 C          -0.4249    6.5306   -0.2574 C.ar    1  LIG1        0.0824
     30 C          -1.0401    7.7046    0.3076 C.ar    1  LIG1        0.1482
     31 C          -1.8862    7.4484    1.3364 C.ar    1  LIG1        0.0199
     32 S          -1.9553    5.7558    1.6845 S.2     1  LIG1       -0.0904
     33 H          -2.4598    8.1486    1.9227 H       1  LIG1        0.0731
     34 N           0.4738    6.6673   -1.2844 N.pl3   1  LIG1       -0.3542
     35 H           0.8410    5.8297   -1.7085 H       1  LIG1        0.1425
     36 H           0.3728    7.4904   -1.8556 H       1  LIG1        0.1425
     37 O          -0.7254    8.8961   -0.2619 O.3     1  LIG1       -0.4927
     38 C          -1.3708   10.0294    0.2789 C.3     1  LIG1        0.0789
     39 H          -1.0218   10.8910   -0.2895 H       1  LIG1        0.0660
     40 H          -2.4601    9.9452    0.1848 H       1  LIG1        0.0660
     41 H          -1.1129   10.1618    1.3362 H       1  LIG1        0.0660
@<TRIPOS>BOND
     1    36    34    1
     2    22    20    1
     3    35    34    1
     4    21    20    1
     5    34    29    1
     6    20    16    1
     7    23    17    1
     8    23    24    1
     9     8     7    1
    10    16    17   ar
    11    16    15   ar
    12     9     7    1
    13     6     1    1
    14    17    18   ar
    15     1     5   ar
    16     1     2   ar
    17     5     4   ar
    18     2     7    1
    19     2     3   ar
    20    25    24    1
    21     4     3   ar
    22     4    15    1
    23     3    10    1
    24    39    38    1
    25    37    38    1
    26    37    30    1
    27    29    30   ar
    28    29    28   ar
    29    15    19   ar
    30    10    11    1
    31    18    28    1
    32    18    19   ar
    33    24    27    1
    34    24    26    1
    35    40    38    1
    36    38    41    1
    37    30    31   ar
    38    28    32   ar
    39    12    11    1
    40    11    13    1
    41    11    14    1
    42    31    32   ar
    43    31    33    1
