@<TRIPOS>MOLECULE
mol_data/opt/cam/geoms/mol2/5hl5hl5hl5hl-.out
 54 57 0 0 0
SMALL
GASTEIGER

@<TRIPOS>ATOM
      1 C          -2.4508   -1.9718   -1.0348 C.ar    1  LIG1        0.0006
      2 C          -1.2137   -2.2423   -0.5368 C.ar    1  LIG1        0.0746
      3 C          -0.4590   -1.0441   -0.3114 C.ar    1  LIG1        0.1559
      4 C          -1.1117    0.1173   -0.6321 C.ar    1  LIG1        0.0713
      5 S          -2.7002   -0.2682   -1.2432 S.2     1  LIG1       -0.0905
      6 H          -3.2415   -2.6682   -1.2708 H       1  LIG1        0.0713
      7 N          -0.6783   -3.4787   -0.1841 N.pl3   1  LIG1       -0.3547
      8 H          -1.0530   -4.2623   -0.6988 H       1  LIG1        0.1424
      9 H           0.3330   -3.4692   -0.1900 H       1  LIG1        0.1424
     10 O           0.8272   -1.1421    0.1722 O.3     1  LIG1       -0.4921
     11 C           0.9537   -0.8109    1.5563 C.3     1  LIG1        0.0789
     12 H           2.0022   -0.9580    1.8171 H       1  LIG1        0.0660
     13 H           0.6774    0.2322    1.7314 H       1  LIG1        0.0660
     14 H           0.3238   -1.4676    2.1641 H       1  LIG1        0.0660
     15 C          -0.6560    1.4925   -0.5577 C.ar    1  LIG1        0.0544
     16 C           0.6132    2.0056   -0.6942 C.ar    1  LIG1        0.0831
     17 C           0.6249    3.4374   -0.6417 C.ar    1  LIG1        0.1565
     18 C          -0.5974    4.0274   -0.4660 C.ar    1  LIG1        0.0719
     19 S          -1.8217    2.7904   -0.3504 S.2     1  LIG1       -0.0814
     20 N           1.8057    1.3270   -0.8189 N.pl3   1  LIG1       -0.3542
     21 H           1.7549    0.3256   -0.9321 H       1  LIG1        0.1425
     22 H           2.5159    1.8146   -1.3430 H       1  LIG1        0.1425
     23 O           1.8223    4.1012   -0.7925 O.3     1  LIG1       -0.4921
     24 C           2.4102    4.5127    0.4424 C.3     1  LIG1        0.0789
     25 H           3.3539    4.9987    0.1925 H       1  LIG1        0.0660
     26 H           1.7609    5.2227    0.9619 H       1  LIG1        0.0660
     27 H           2.5979    3.6446    1.0817 H       1  LIG1        0.0660
     28 C          -0.9521    5.4292   -0.3713 C.ar    1  LIG1        0.0544
     29 C          -0.3447    6.5318   -0.9300 C.ar    1  LIG1        0.0831
     30 C          -1.0714    7.7385   -0.6644 C.ar    1  LIG1        0.1565
     31 C          -2.2080    7.5859    0.0811 C.ar    1  LIG1        0.0718
     32 S          -2.4091    5.9032    0.4900 S.2     1  LIG1       -0.0814
     33 N           0.8332    6.6015   -1.6359 N.pl3   1  LIG1       -0.3542
     34 H           1.2824    5.7305   -1.8762 H       1  LIG1        0.1425
     35 H           0.8856    7.3560   -2.3024 H       1  LIG1        0.1425
     36 O          -0.6049    8.9237   -1.1872 O.3     1  LIG1       -0.4921
     37 C           0.0949    9.7370   -0.2440 C.3     1  LIG1        0.0789
     38 H           0.4358   10.6196   -0.7860 H       1  LIG1        0.0660
     39 H          -0.5679   10.0432    0.5697 H       1  LIG1        0.0660
     40 H           0.9550    9.1948    0.1606 H       1  LIG1        0.0660
     41 C          -3.1713    8.5740    0.5283 C.ar    1  LIG1        0.0538
     42 C          -3.5495    9.7537   -0.0722 C.ar    1  LIG1        0.0824
     43 C          -4.6200   10.3973    0.6459 C.ar    1  LIG1        0.1482
     44 C          -5.0279    9.7283    1.7531 C.ar    1  LIG1        0.0199
     45 S          -4.1043    8.2855    1.9897 S.2     1  LIG1       -0.0904
     46 H          -5.8007   10.0008    2.4542 H       1  LIG1        0.0731
     47 N          -3.0345   10.3519   -1.1934 N.pl3   1  LIG1       -0.3542
     48 H          -2.3345    9.8521   -1.7193 H       1  LIG1        0.1425
     49 H          -3.6520   10.9758   -1.6866 H       1  LIG1        0.1425
     50 O          -5.0975   11.5563    0.1249 O.3     1  LIG1       -0.4927
     51 C          -6.1766   12.1477    0.8173 C.3     1  LIG1        0.0789
     52 H          -6.4418   13.0527    0.2715 H       1  LIG1        0.0660
     53 H          -7.0408   11.4736    0.8508 H       1  LIG1        0.0660
     54 H          -5.8894   12.4115    1.8420 H       1  LIG1        0.0660
@<TRIPOS>BOND
     1    35    33    1
     2    34    33    1
     3    48    47    1
     4    49    47    1
     5    33    29    1
     6    22    20    1
     7     6     1    1
     8     5     1   ar
     9     5     4   ar
    10    47    42    1
    11    36    30    1
    12    36    37    1
    13     1     2   ar
    14    21    20    1
    15    29    30   ar
    16    29    28   ar
    17    20    16    1
    18    23    17    1
    19    23    24    1
    20    38    37    1
    21     8     7    1
    22    16    17   ar
    23    16    15   ar
    24    30    31   ar
    25    17    18   ar
    26     4    15    1
    27     4     3   ar
    28    15    19   ar
    29     2     3   ar
    30     2     7    1
    31    18    28    1
    32    18    19   ar
    33    28    32   ar
    34     3    10    1
    35    37    40    1
    36    37    39    1
    37     9     7    1
    38    42    41   ar
    39    42    43   ar
    40    31    32   ar
    41    31    41    1
    42    50    43    1
    43    50    51    1
    44    10    11    1
    45    25    24    1
    46    52    51    1
    47    24    26    1
    48    24    27    1
    49    41    45   ar
    50    43    44   ar
    51    51    53    1
    52    51    54    1
    53    11    13    1
    54    11    12    1
    55    11    14    1
    56    44    45   ar
    57    44    46    1
