@<TRIPOS>MOLECULE
mol_data/opt/cam/geoms/mol2/5hl5hl-.out
 28 29 0 0 0
SMALL
GASTEIGER

@<TRIPOS>ATOM
      1 C          -0.9672   -1.8786    1.5949 C.ar    1  LIG1        0.0006
      2 C          -0.9212   -2.1336    0.2592 C.ar    1  LIG1        0.0746
      3 C          -0.4607   -0.9967   -0.4833 C.ar    1  LIG1        0.1559
      4 C          -0.1643    0.1028    0.2744 C.ar    1  LIG1        0.0712
      5 S          -0.4776   -0.2534    1.9560 S.2     1  LIG1       -0.0905
      6 H          -1.2589   -2.5440    2.3936 H       1  LIG1        0.0713
      7 N          -1.2071   -3.3244   -0.4044 N.pl3   1  LIG1       -0.3547
      8 H          -1.8284   -3.9436    0.0963 H       1  LIG1        0.1424
      9 H          -1.5283   -3.1588   -1.3501 H       1  LIG1        0.1424
     10 O          -0.3838   -1.0404   -1.8520 O.3     1  LIG1       -0.4921
     11 C           0.8571   -1.5538   -2.3382 C.3     1  LIG1        0.0789
     12 H           0.7782   -1.5812   -3.4255 H       1  LIG1        0.0660
     13 H           1.6854   -0.8991   -2.0511 H       1  LIG1        0.0660
     14 H           1.0351   -2.5635   -1.9544 H       1  LIG1        0.0660
     15 C           0.2967    1.4016   -0.1749 C.ar    1  LIG1        0.0537
     16 C           0.9304    2.3803    0.5521 C.ar    1  LIG1        0.0824
     17 C           1.2059    3.5484   -0.2349 C.ar    1  LIG1        0.1482
     18 C           0.7975    3.4469   -1.5235 C.ar    1  LIG1        0.0199
     19 S           0.0590    1.9223   -1.8361 S.2     1  LIG1       -0.0904
     20 H           0.9176    4.1830   -2.3043 H       1  LIG1        0.0731
     21 N           1.2777    2.3609    1.8977 N.pl3   1  LIG1       -0.3542
     22 H           1.4585    1.4420    2.2803 H       1  LIG1        0.1425
     23 H           2.0289    3.0107    2.0949 H       1  LIG1        0.1425
     24 O           1.8621    4.6189    0.3145 O.3     1  LIG1       -0.4927
     25 C           0.9934    5.5458    0.9603 C.3     1  LIG1        0.0789
     26 H           1.6269    6.3258    1.3849 H       1  LIG1        0.0660
     27 H           0.2969    5.9922    0.2427 H       1  LIG1        0.0660
     28 H           0.4221    5.0613    1.7595 H       1  LIG1        0.0660
@<TRIPOS>BOND
     1    12    11    1
     2    11    13    1
     3    11    14    1
     4    11    10    1
     5    20    18    1
     6    10     3    1
     7    19    18   ar
     8    19    15   ar
     9    18    17   ar
    10     9     7    1
    11     3     2   ar
    12     3     4   ar
    13     7     8    1
    14     7     2    1
    15    17    24    1
    16    17    16   ar
    17    15     4    1
    18    15    16   ar
    19    27    25    1
    20     2     1   ar
    21     4     5   ar
    22    24    25    1
    23    16    21    1
    24    25    26    1
    25    25    28    1
    26     1     5   ar
    27     1     6    1
    28    21    23    1
    29    21    22    1
