@<TRIPOS>MOLECULE
mol_data/opt/cam/geoms/mol2/5hl5hl5hl-5hl-.out
 54 57 0 0 0
SMALL
GASTEIGER

@<TRIPOS>ATOM
      1 C          -2.2883   -2.0650   -1.0905 C.ar    1  LIG1        0.0006
      2 C          -1.0524   -2.2874   -0.5663 C.ar    1  LIG1        0.0746
      3 C          -0.3539   -1.0604   -0.3163 C.ar    1  LIG1        0.1559
      4 C          -1.0474    0.0749   -0.6444 C.ar    1  LIG1        0.0713
      5 S          -2.6041   -0.3719   -1.2936 S.2     1  LIG1       -0.0905
      6 H          -3.0436   -2.7919   -1.3493 H       1  LIG1        0.0713
      7 N          -0.4738   -3.5028   -0.2095 N.pl3   1  LIG1       -0.3547
      8 H          -0.8061   -4.2982   -0.7350 H       1  LIG1        0.1424
      9 H           0.5362   -3.4523   -0.1948 H       1  LIG1        0.1424
     10 O           0.9242   -1.1077    0.1955 O.3     1  LIG1       -0.4921
     11 C           1.0049   -0.7875    1.5856 C.3     1  LIG1        0.0789
     12 H           2.0527   -0.8923    1.8690 H       1  LIG1        0.0660
     13 H           0.6799    0.2407    1.7653 H       1  LIG1        0.0660
     14 H           0.3905   -1.4777    2.1717 H       1  LIG1        0.0660
     15 C          -0.6515    1.4674   -0.5504 C.ar    1  LIG1        0.0544
     16 C           0.5979    2.0342   -0.6538 C.ar    1  LIG1        0.0831
     17 C           0.5476    3.4648   -0.5922 C.ar    1  LIG1        0.1565
     18 C          -0.7023    4.0014   -0.4419 C.ar    1  LIG1        0.0719
     19 S          -1.8755    2.7133   -0.3625 S.2     1  LIG1       -0.0814
     20 N           1.8207    1.4075   -0.7550 N.pl3   1  LIG1       -0.3542
     21 H           1.8145    0.4054   -0.8739 H       1  LIG1        0.1425
     22 H           2.5201    1.9269   -1.2630 H       1  LIG1        0.1425
     23 O           1.7183    4.1805   -0.7107 O.3     1  LIG1       -0.4921
     24 C           2.2675    4.5941    0.5413 C.3     1  LIG1        0.0789
     25 H           3.1941    5.1235    0.3164 H       1  LIG1        0.0660
     26 H           1.5800    5.2669    1.0614 H       1  LIG1        0.0660
     27 H           2.4807    3.7234    1.1688 H       1  LIG1        0.0660
     28 C          -1.1177    5.3866   -0.3466 C.ar    1  LIG1        0.0544
     29 C          -0.5455    6.5178   -0.8845 C.ar    1  LIG1        0.0831
     30 C          -1.3306    7.6897   -0.6301 C.ar    1  LIG1        0.1565
     31 C          -2.4762    7.4831    0.0874 C.ar    1  LIG1        0.0718
     32 S          -2.6135    5.7913    0.4824 S.2     1  LIG1       -0.0814
     33 N           0.6450    6.6434   -1.5623 N.pl3   1  LIG1       -0.3542
     34 H           1.1370    5.7928   -1.7922 H       1  LIG1        0.1425
     35 H           0.6726    7.3941   -2.2349 H       1  LIG1        0.1425
     36 O          -0.9090    8.8987   -1.1358 O.3     1  LIG1       -0.4921
     37 C          -0.2248    9.7158   -0.1848 C.3     1  LIG1        0.0789
     38 H           0.0731   10.6234   -0.7106 H       1  LIG1        0.0660
     39 H          -0.8851    9.9763    0.6470 H       1  LIG1        0.0660
     40 H           0.6619    9.1980    0.1934 H       1  LIG1        0.0660
     41 C          -3.4886    8.4293    0.5195 C.ar    1  LIG1        0.0538
     42 C          -3.9057    9.5994   -0.0748 C.ar    1  LIG1        0.0824
     43 C          -5.0146   10.1907    0.6270 C.ar    1  LIG1        0.1482
     44 C          -5.4185    9.4883    1.7129 C.ar    1  LIG1        0.0199
     45 S          -4.4493    8.0850    1.9501 S.2     1  LIG1       -0.0904
     46 H          -6.2287    9.7332    2.3831 H       1  LIG1        0.0731
     47 N          -3.3981   10.2343   -1.1903 N.pl3   1  LIG1       -0.3542
     48 H          -2.6734    9.7448   -1.6952 H       1  LIG1        0.1425
     49 H          -4.0971   10.6996   -1.7514 H       1  LIG1        0.1425
     50 O          -5.6092   11.3333    0.1641 O.3     1  LIG1       -0.4927
     51 C          -4.9298   12.5254    0.5479 C.3     1  LIG1        0.0789
     52 H          -5.4716   13.3548    0.0914 H       1  LIG1        0.0660
     53 H          -4.9363   12.6429    1.6371 H       1  LIG1        0.0660
     54 H          -3.8951   12.5214    0.1904 H       1  LIG1        0.0660
@<TRIPOS>BOND
     1    35    33    1
     2    34    33    1
     3    49    47    1
     4    48    47    1
     5    33    29    1
     6     6     1    1
     7     5     1   ar
     8     5     4   ar
     9    22    20    1
    10    47    42    1
    11    36    30    1
    12    36    37    1
    13     1     2   ar
    14    29    30   ar
    15    29    28   ar
    16    21    20    1
    17    20    16    1
    18     8     7    1
    19    23    17    1
    20    23    24    1
    21    38    37    1
    22    16    17   ar
    23    16    15   ar
    24     4    15    1
    25     4     3   ar
    26    30    31   ar
    27    17    18   ar
    28     2     3   ar
    29     2     7    1
    30    15    19   ar
    31    18    19   ar
    32    18    28    1
    33    28    32   ar
    34     3    10    1
    35     7     9    1
    36    37    40    1
    37    37    39    1
    38    42    41   ar
    39    42    43   ar
    40    31    32   ar
    41    31    41    1
    42    52    51    1
    43    50    51    1
    44    50    43    1
    45    54    51    1
    46    10    11    1
    47    25    24    1
    48    41    45   ar
    49    24    26    1
    50    24    27    1
    51    51    53    1
    52    43    44   ar
    53    11    13    1
    54    11    12    1
    55    11    14    1
    56    44    45   ar
    57    44    46    1
