@<TRIPOS>MOLECULE
mol_data/opt/cam/geoms/mol2/5hl5hl5hl5hl.out
 54 57 0 0 0
SMALL
GASTEIGER

@<TRIPOS>ATOM
      1 C          -2.6677   -1.6213    0.1245 C.ar    1  LIG1        0.0006
      2 C          -1.3688   -1.8650    0.4481 C.ar    1  LIG1        0.0746
      3 C          -0.5599   -0.6882    0.3176 C.ar    1  LIG1        0.1559
      4 C          -1.2328    0.4307   -0.0982 C.ar    1  LIG1        0.0713
      5 S          -2.9118    0.0285   -0.3515 S.2     1  LIG1       -0.0905
      6 H          -3.5026   -2.3052    0.1563 H       1  LIG1        0.0713
      7 N          -0.8070   -3.0456    0.9280 N.pl3   1  LIG1       -0.3547
      8 H          -1.2872   -3.8866    0.6428 H       1  LIG1        0.1424
      9 H           0.1862   -3.0950    0.7433 H       1  LIG1        0.1424
     10 O           0.7888   -0.7671    0.5874 O.3     1  LIG1       -0.4921
     11 C           1.1592   -0.2227    1.8553 C.3     1  LIG1        0.0789
     12 H           2.2336   -0.3780    1.9591 H       1  LIG1        0.0660
     13 H           0.9401    0.8476    1.8959 H       1  LIG1        0.0660
     14 H           0.6294   -0.7399    2.6611 H       1  LIG1        0.0660
     15 C          -0.7417    1.7714   -0.3551 C.ar    1  LIG1        0.0544
     16 C           0.4960    2.1862   -0.7892 C.ar    1  LIG1        0.0831
     17 C           0.5456    3.6018   -1.0052 C.ar    1  LIG1        0.1565
     18 C          -0.6173    4.2755   -0.7463 C.ar    1  LIG1        0.0719
     19 S          -1.8294    3.1431   -0.2069 S.2     1  LIG1       -0.0814
     20 N           1.6364    1.4365   -0.9799 N.pl3   1  LIG1       -0.3542
     21 H           1.5448    0.4351   -0.8943 H       1  LIG1        0.1425
     22 H           2.2499    1.7807   -1.7027 H       1  LIG1        0.1425
     23 O           1.7120    4.1677   -1.4695 O.3     1  LIG1       -0.4921
     24 C           2.5320    4.7209   -0.4392 C.3     1  LIG1        0.0789
     25 H           3.4236    5.1156   -0.9275 H       1  LIG1        0.0660
     26 H           2.0100    5.5317    0.0767 H       1  LIG1        0.0660
     27 H           2.8148    3.9451    0.2787 H       1  LIG1        0.0660
     28 C          -0.9189    5.6890   -0.8508 C.ar    1  LIG1        0.0544
     29 C          -0.3831    6.6496   -1.6798 C.ar    1  LIG1        0.0831
     30 C          -1.0297    7.9183   -1.5225 C.ar    1  LIG1        0.1565
     31 C          -2.0417    7.9495   -0.6048 C.ar    1  LIG1        0.0718
     32 S          -2.2248    6.3679    0.1103 S.2     1  LIG1       -0.0814
     33 N           0.6600    6.5363   -2.5731 N.pl3   1  LIG1       -0.3542
     34 H           1.0355    5.6098   -2.7154 H       1  LIG1        0.1425
     35 H           0.5667    7.1188   -3.3924 H       1  LIG1        0.1425
     36 O          -0.6651    8.9871   -2.2997 O.3     1  LIG1       -0.4921
     37 C           0.4561    9.7100   -1.7896 C.3     1  LIG1        0.0789
     38 H           0.6689   10.5016   -2.5088 H       1  LIG1        0.0660
     39 H           0.2196   10.1564   -0.8189 H       1  LIG1        0.0660
     40 H           1.3263    9.0536   -1.6930 H       1  LIG1        0.0660
     41 C          -2.8813    9.0698   -0.2390 C.ar    1  LIG1        0.0538
     42 C          -3.6761    9.2157    0.8741 C.ar    1  LIG1        0.0824
     43 C          -4.3933   10.4587    0.8686 C.ar    1  LIG1        0.1482
     44 C          -4.1365   11.2320   -0.2146 C.ar    1  LIG1        0.0199
     45 S          -3.0086   10.4821   -1.2785 S.2     1  LIG1       -0.0904
     46 H          -4.5388   12.2120   -0.4244 H       1  LIG1        0.0731
     47 N          -3.8647    8.3214    1.9185 N.pl3   1  LIG1       -0.3542
     48 H          -3.0805    7.7156    2.1204 H       1  LIG1        0.1425
     49 H          -4.2144    8.7857    2.7475 H       1  LIG1        0.1425
     50 O          -5.2169   10.7894    1.9127 O.3     1  LIG1       -0.4927
     51 C          -6.5506   10.3111    1.7575 C.3     1  LIG1        0.0789
     52 H          -7.0953   10.6039    2.6561 H       1  LIG1        0.0660
     53 H          -7.0264   10.7611    0.8798 H       1  LIG1        0.0660
     54 H          -6.5703    9.2206    1.6552 H       1  LIG1        0.0660
@<TRIPOS>BOND
     1    35    33    1
     2    34    33    1
     3    33    29    1
     4    38    37    1
     5    36    37    1
     6    36    30    1
     7    37    40    1
     8    37    39    1
     9    22    20    1
    10    29    30   ar
    11    29    28   ar
    12    30    31   ar
    13    23    17    1
    14    23    24    1
    15    45    41   ar
    16    45    44   ar
    17    17    16   ar
    18    17    18   ar
    19    20    21    1
    20    20    16    1
    21    25    24    1
    22    28    18    1
    23    28    32   ar
    24    16    15   ar
    25    18    19   ar
    26    31    41    1
    27    31    32   ar
    28    24    26    1
    29    24    27    1
    30    46    44    1
    31    15    19   ar
    32    15     4    1
    33     5     4   ar
    34     5     1   ar
    35    41    42   ar
    36    44    43   ar
    37     4     3   ar
    38     1     6    1
    39     1     2   ar
    40     3     2   ar
    41     3    10    1
    42     2     7    1
    43    10    11    1
    44     8     7    1
    45     9     7    1
    46    43    42   ar
    47    43    50    1
    48    42    47    1
    49    53    51    1
    50    54    51    1
    51    51    50    1
    52    51    52    1
    53    11    13    1
    54    11    12    1
    55    11    14    1
    56    47    48    1
    57    47    49    1
