@<TRIPOS>MOLECULE
mol_data/opt/cam/geoms/mol2/5hl5hl5hl.out
 41 43 0 0 0
SMALL
GASTEIGER

@<TRIPOS>ATOM
      1 C          -2.3822   -2.0673   -0.5016 C.ar    1  LIG1        0.0006
      2 C          -1.0393   -2.2658   -0.4084 C.ar    1  LIG1        0.0746
      3 C          -0.3259   -1.0263   -0.3046 C.ar    1  LIG1        0.1559
      4 C          -1.1134    0.0949   -0.3179 C.ar    1  LIG1        0.0713
      5 S          -2.7848   -0.3804   -0.4763 S.2     1  LIG1       -0.0905
      6 H          -3.1637   -2.8098   -0.5623 H       1  LIG1        0.0713
      7 N          -0.3492   -3.4733   -0.3370 N.pl3   1  LIG1       -0.3547
      8 H          -0.8151   -4.2520   -0.7794 H       1  LIG1        0.1424
      9 H           0.6103   -3.3810   -0.6433 H       1  LIG1        0.1424
     10 O           1.0491   -1.0473   -0.2241 O.3     1  LIG1       -0.4921
     11 C           1.5561   -0.8316    1.0942 C.3     1  LIG1        0.0789
     12 H           2.6420   -0.9045    1.0261 H       1  LIG1        0.0660
     13 H           1.2795    0.1618    1.4575 H       1  LIG1        0.0660
     14 H           1.1745   -1.5954    1.7786 H       1  LIG1        0.0660
     15 C          -0.7406    1.4957   -0.2531 C.ar    1  LIG1        0.0544
     16 C           0.4016    2.1220   -0.6957 C.ar    1  LIG1        0.0831
     17 C           0.3378    3.5434   -0.5215 C.ar    1  LIG1        0.1565
     18 C          -0.8160    4.0123    0.0431 C.ar    1  LIG1        0.0718
     19 S          -1.8750    2.6721    0.3906 S.2     1  LIG1       -0.0814
     20 N           1.5469    1.5586   -1.2127 N.pl3   1  LIG1       -0.3542
     21 H           1.5301    0.5659   -1.3931 H       1  LIG1        0.1425
     22 H           2.0448    2.1395   -1.8696 H       1  LIG1        0.1425
     23 O           1.3930    4.3171   -0.9491 O.3     1  LIG1       -0.4921
     24 C           2.2854    4.7054    0.0961 C.3     1  LIG1        0.0789
     25 H           3.0808    5.2858   -0.3724 H       1  LIG1        0.0660
     26 H           1.7693    5.3242    0.8353 H       1  LIG1        0.0660
     27 H           2.7086    3.8213    0.5827 H       1  LIG1        0.0660
     28 C          -1.2118    5.3727    0.3600 C.ar    1  LIG1        0.0538
     29 C          -0.8729    6.5521   -0.2642 C.ar    1  LIG1        0.0824
     30 C          -1.5646    7.6782    0.3062 C.ar    1  LIG1        0.1482
     31 C          -2.3972    7.3560    1.3254 C.ar    1  LIG1        0.0199
     32 S          -2.3583    5.6671    1.6588 S.2     1  LIG1       -0.0904
     33 H          -3.0196    8.0288    1.8959 H       1  LIG1        0.0731
     34 N           0.0149    6.7602   -1.3009 N.pl3   1  LIG1       -0.3542
     35 H           0.4193    5.9344   -1.7184 H       1  LIG1        0.1425
     36 H          -0.2629    7.4923   -1.9386 H       1  LIG1        0.1425
     37 O          -1.4022    8.9361   -0.2087 O.3     1  LIG1       -0.4927
     38 C          -0.2361    9.6009    0.2690 C.3     1  LIG1        0.0789
     39 H          -0.1980   10.5670   -0.2361 H       1  LIG1        0.0660
     40 H          -0.2949    9.7591    1.3515 H       1  LIG1        0.0660
     41 H           0.6671    9.0282    0.0353 H       1  LIG1        0.0660
@<TRIPOS>BOND
     1    36    34    1
     2    22    20    1
     3    35    34    1
     4    21    20    1
     5    34    29    1
     6    20    16    1
     7    23    17    1
     8    23    24    1
     9     8     7    1
    10    16    17   ar
    11    16    15   ar
    12     9     7    1
    13     6     1    1
    14    17    18   ar
    15     1     5   ar
    16     1     2   ar
    17     5     4   ar
    18     2     7    1
    19     2     3   ar
    20    25    24    1
    21     4     3   ar
    22     4    15    1
    23     3    10    1
    24    29    30   ar
    25    29    28   ar
    26    15    19   ar
    27    39    38    1
    28    10    11    1
    29    37    38    1
    30    37    30    1
    31    41    38    1
    32    18    28    1
    33    18    19   ar
    34    24    27    1
    35    24    26    1
    36    38    40    1
    37    30    31   ar
    38    28    32   ar
    39    12    11    1
    40    11    13    1
    41    11    14    1
    42    31    32   ar
    43    31    33    1
