@<TRIPOS>MOLECULE
mol_data/opt/cam/geoms/mol2/5hl5hl-5hl-5hl-.out
 54 57 0 0 0
SMALL
GASTEIGER

@<TRIPOS>ATOM
      1 C          -2.2863   -2.0617   -1.0957 C.ar    1  LIG1        0.0006
      2 C          -1.0530   -2.2860   -0.5664 C.ar    1  LIG1        0.0746
      3 C          -0.3552   -1.0599   -0.3097 C.ar    1  LIG1        0.1559
      4 C          -1.0468    0.0765   -0.6379 C.ar    1  LIG1        0.0713
      5 S          -2.6007   -0.3679   -1.2956 S.2     1  LIG1       -0.0905
      6 H          -3.0406   -2.7876   -1.3600 H       1  LIG1        0.0713
      7 N          -0.4765   -3.5025   -0.2101 N.pl3   1  LIG1       -0.3547
      8 H          -0.8065   -4.2964   -0.7394 H       1  LIG1        0.1424
      9 H           0.5335   -3.4524   -0.1906 H       1  LIG1        0.1424
     10 O           0.9204   -1.1091    0.2080 O.3     1  LIG1       -0.4921
     11 C           0.9947   -0.7926    1.5993 C.3     1  LIG1        0.0789
     12 H           2.0411   -0.8986    1.8873 H       1  LIG1        0.0660
     13 H           0.6692    0.2351    1.7803 H       1  LIG1        0.0660
     14 H           0.3773   -1.4843    2.1806 H       1  LIG1        0.0660
     15 C          -0.6509    1.4687   -0.5382 C.ar    1  LIG1        0.0544
     16 C           0.5990    2.0353   -0.6342 C.ar    1  LIG1        0.0831
     17 C           0.5490    3.4658   -0.5689 C.ar    1  LIG1        0.1565
     18 C          -0.7014    4.0023   -0.4229 C.ar    1  LIG1        0.0719
     19 S          -1.8754    2.7144   -0.3526 S.2     1  LIG1       -0.0814
     20 N           1.8221    1.4085   -0.7314 N.pl3   1  LIG1       -0.3542
     21 H           1.8162    0.4067   -0.8531 H       1  LIG1        0.1425
     22 H           2.5241    1.9290   -1.2347 H       1  LIG1        0.1425
     23 O           1.7204    4.1814   -0.6799 O.3     1  LIG1       -0.4921
     24 C           2.2639    4.5914    0.5758 C.3     1  LIG1        0.0789
     25 H           3.1917    5.1211    0.3567 H       1  LIG1        0.0660
     26 H           1.5742    5.2630    1.0945 H       1  LIG1        0.0660
     27 H           2.4739    3.7189    1.2019 H       1  LIG1        0.0660
     28 C          -1.1169    5.3875   -0.3258 C.ar    1  LIG1        0.0544
     29 C          -0.5418    6.5199   -0.8579 C.ar    1  LIG1        0.0831
     30 C          -1.3277    7.6914   -0.6039 C.ar    1  LIG1        0.1565
     31 C          -2.4767    7.4832    0.1076 C.ar    1  LIG1        0.0718
     32 S          -2.6164    5.7903    0.4973 S.2     1  LIG1       -0.0814
     33 N           0.6519    6.6470   -1.5298 N.pl3   1  LIG1       -0.3542
     34 H           1.1447    5.7969   -1.7596 H       1  LIG1        0.1425
     35 H           0.6829    7.3996   -2.2002 H       1  LIG1        0.1425
     36 O          -0.9033    8.9016   -1.1043 O.3     1  LIG1       -0.4921
     37 C          -0.2234    9.7158   -0.1479 C.3     1  LIG1        0.0789
     38 H           0.0773   10.6248   -0.6698 H       1  LIG1        0.0660
     39 H          -0.8875    9.9743    0.6816 H       1  LIG1        0.0660
     40 H           0.6614    9.1967    0.2330 H       1  LIG1        0.0660
     41 C          -3.4908    8.4286    0.5376 C.ar    1  LIG1        0.0538
     42 C          -3.9047    9.6004   -0.0554 C.ar    1  LIG1        0.0824
     43 C          -5.0168   10.1901    0.6427 C.ar    1  LIG1        0.1482
     44 C          -5.4259    9.4849    1.7249 C.ar    1  LIG1        0.0199
     45 S          -4.4583    8.0806    1.9628 S.2     1  LIG1       -0.0904
     46 H          -6.2392    9.7282    2.3919 H       1  LIG1        0.0731
     47 N          -3.3918   10.2382   -1.1668 N.pl3   1  LIG1       -0.3542
     48 H          -2.6648    9.7498   -1.6697 H       1  LIG1        0.1425
     49 H          -4.0880   10.7053   -1.7299 H       1  LIG1        0.1425
     50 O          -5.6088   11.3342    0.1802 O.3     1  LIG1       -0.4927
     51 C          -4.9309   12.5250    0.5705 C.3     1  LIG1        0.0789
     52 H          -5.4702   13.3559    0.1138 H       1  LIG1        0.0660
     53 H          -4.9424   12.6395    1.6600 H       1  LIG1        0.0660
     54 H          -3.8945   12.5216    0.2178 H       1  LIG1        0.0660
@<TRIPOS>BOND
     1    35    33    1
     2    34    33    1
     3    49    47    1
     4    48    47    1
     5    33    29    1
     6     6     1    1
     7     5     1   ar
     8     5     4   ar
     9    22    20    1
    10    47    42    1
    11    36    30    1
    12    36    37    1
    13     1     2   ar
    14    29    30   ar
    15    29    28   ar
    16    21    20    1
    17     8     7    1
    18    20    16    1
    19    23    17    1
    20    23    24    1
    21    38    37    1
    22     4    15    1
    23     4     3   ar
    24    16    17   ar
    25    16    15   ar
    26    30    31   ar
    27    17    18   ar
    28     2     3   ar
    29     2     7    1
    30    15    19   ar
    31    18    19   ar
    32    18    28    1
    33    28    32   ar
    34     3    10    1
    35     7     9    1
    36    37    40    1
    37    37    39    1
    38    42    41   ar
    39    42    43   ar
    40    31    32   ar
    41    31    41    1
    42    52    51    1
    43    50    51    1
    44    50    43    1
    45    10    11    1
    46    54    51    1
    47    25    24    1
    48    41    45   ar
    49    51    53    1
    50    24    26    1
    51    24    27    1
    52    43    44   ar
    53    11    13    1
    54    11    12    1
    55    11    14    1
    56    44    45   ar
    57    44    46    1
