@<TRIPOS>MOLECULE
mol_data/opt/cam/geoms/mol2/5hl5hl-5hl5hl-.out
 54 57 0 0 0
SMALL
GASTEIGER

@<TRIPOS>ATOM
      1 C          -2.2673   -2.0465   -1.2102 C.ar    1  LIG1        0.0006
      2 C          -1.0454   -2.2787   -0.6581 C.ar    1  LIG1        0.0746
      3 C          -0.3527   -1.0566   -0.3703 C.ar    1  LIG1        0.1559
      4 C          -1.0369    0.0846   -0.6975 C.ar    1  LIG1        0.0713
      5 S          -2.5768   -0.3500   -1.3937 S.2     1  LIG1       -0.0905
      6 H          -3.0161   -2.7683   -1.5000 H       1  LIG1        0.0713
      7 N          -0.4768   -3.5003   -0.3064 N.pl3   1  LIG1       -0.3547
      8 H          -0.7960   -4.2867   -0.8532 H       1  LIG1        0.1424
      9 H           0.5325   -3.4511   -0.2651 H       1  LIG1        0.1424
     10 O           0.9118   -1.1136    0.1732 O.3     1  LIG1       -0.4921
     11 C           0.9570   -0.8161    1.5700 C.3     1  LIG1        0.0789
     12 H           1.9971   -0.9266    1.8784 H       1  LIG1        0.0660
     13 H           0.6280    0.2094    1.7580 H       1  LIG1        0.0660
     14 H           0.3273   -1.5151    2.1288 H       1  LIG1        0.0660
     15 C          -0.6428    1.4750   -0.5707 C.ar    1  LIG1        0.0544
     16 C           0.6091    2.0421   -0.6329 C.ar    1  LIG1        0.0831
     17 C           0.5582    3.4716   -0.5492 C.ar    1  LIG1        0.1565
     18 C          -0.6948    4.0069   -0.4223 C.ar    1  LIG1        0.0719
     19 S          -1.8705    2.7189   -0.3940 S.2     1  LIG1       -0.0814
     20 N           1.8338    1.4159   -0.7128 N.pl3   1  LIG1       -0.3542
     21 H           1.8301    0.4159   -0.8482 H       1  LIG1        0.1425
     22 H           2.5463    1.9428   -1.1942 H       1  LIG1        0.1425
     23 O           1.7319    4.1880   -0.6260 O.3     1  LIG1       -0.4921
     24 C           2.2491    4.5806    0.6462 C.3     1  LIG1        0.0789
     25 H           3.1814    5.1126    0.4539 H       1  LIG1        0.0660
     26 H           1.5489    5.2455    1.1594 H       1  LIG1        0.0660
     27 H           2.4456    3.6995    1.2647 H       1  LIG1        0.0660
     28 C          -1.1117    5.3908   -0.3151 C.ar    1  LIG1        0.0544
     29 C          -0.5252    6.5300   -0.8196 C.ar    1  LIG1        0.0831
     30 C          -1.3159    7.6984   -0.5664 C.ar    1  LIG1        0.1565
     31 C          -2.4797    7.4814    0.1180 C.ar    1  LIG1        0.0718
     32 S          -2.6281    5.7834    0.4817 S.2     1  LIG1       -0.0814
     33 N           0.6823    6.6655   -1.4646 N.pl3   1  LIG1       -0.3542
     34 H           1.1796    5.8182   -1.6956 H       1  LIG1        0.1425
     35 H           0.7276    7.4270   -2.1239 H       1  LIG1        0.1425
     36 O          -0.8808    8.9150   -1.0413 O.3     1  LIG1       -0.4921
     37 C          -0.2208    9.7159   -0.0599 C.3     1  LIG1        0.0789
     38 H           0.0911   10.6316   -0.5630 H       1  LIG1        0.0660
     39 H          -0.9021    9.9635    0.7588 H       1  LIG1        0.0660
     40 H           0.6557    9.1911    0.3324 H       1  LIG1        0.0660
     41 C          -3.5023    8.4214    0.5394 C.ar    1  LIG1        0.0538
     42 C          -3.9033    9.6015   -0.0462 C.ar    1  LIG1        0.0824
     43 C          -5.0295   10.1823    0.6364 C.ar    1  LIG1        0.1482
     44 C          -5.4615    9.4627    1.7001 C.ar    1  LIG1        0.0199
     45 S          -4.4996    8.0548    1.9392 S.2     1  LIG1       -0.0904
     46 H          -6.2885    9.6976    2.3531 H       1  LIG1        0.0731
     47 N          -3.3669   10.2539   -1.1379 N.pl3   1  LIG1       -0.3542
     48 H          -2.6298    9.7719   -1.6319 H       1  LIG1        0.1425
     49 H          -4.0510   10.7290   -1.7090 H       1  LIG1        0.1425
     50 O          -5.6114   11.3330    0.1771 O.3     1  LIG1       -0.4927
     51 C          -4.9414   12.5179    0.5976 C.3     1  LIG1        0.0789
     52 H          -5.4707   13.3552    0.1410 H       1  LIG1        0.0660
     53 H          -4.9758   12.6177    1.6881 H       1  LIG1        0.0660
     54 H          -3.8978   12.5187    0.2668 H       1  LIG1        0.0660
@<TRIPOS>BOND
     1    35    33    1
     2    49    47    1
     3    34    33    1
     4    48    47    1
     5     6     1    1
     6    33    29    1
     7     5     1   ar
     8     5     4   ar
     9     1     2   ar
    10    22    20    1
    11    47    42    1
    12    36    30    1
    13    36    37    1
    14     8     7    1
    15    21    20    1
    16    29    30   ar
    17    29    28   ar
    18    20    16    1
    19     4    15    1
    20     4     3   ar
    21     2     3   ar
    22     2     7    1
    23    16    15   ar
    24    16    17   ar
    25    23    17    1
    26    23    24    1
    27    15    19   ar
    28    30    31   ar
    29    38    37    1
    30    17    18   ar
    31    18    19   ar
    32    18    28    1
    33     3    10    1
    34    28    32   ar
    35     7     9    1
    36    37    40    1
    37    37    39    1
    38    42    41   ar
    39    42    43   ar
    40    31    32   ar
    41    31    41    1
    42    52    51    1
    43    10    11    1
    44    50    51    1
    45    50    43    1
    46    54    51    1
    47    25    24    1
    48    41    45   ar
    49    51    53    1
    50    43    44   ar
    51    24    26    1
    52    24    27    1
    53    11    13    1
    54    11    12    1
    55    11    14    1
    56    44    45   ar
    57    44    46    1
