@<TRIPOS>MOLECULE
mol_data/opt/cam/geoms/mol2/5hl5hl-5hl-5hl.out
 54 57 0 0 0
SMALL
GASTEIGER

@<TRIPOS>ATOM
      1 C          -2.2328   -2.0444   -1.2536 C.ar    1  LIG1        0.0006
      2 C          -1.0262   -2.2773   -0.6691 C.ar    1  LIG1        0.0746
      3 C          -0.3421   -1.0556   -0.3601 C.ar    1  LIG1        0.1559
      4 C          -1.0176    0.0861   -0.7034 C.ar    1  LIG1        0.0713
      5 S          -2.5378   -0.3475   -1.4420 S.2     1  LIG1       -0.0905
      6 H          -2.9732   -2.7658   -1.5652 H       1  LIG1        0.0713
      7 N          -0.4670   -3.4994   -0.3045 N.pl3   1  LIG1       -0.3547
      8 H          -0.7709   -4.2848   -0.8613 H       1  LIG1        0.1424
      9 H           0.5408   -3.4500   -0.2356 H       1  LIG1        0.1424
     10 O           0.9072   -1.1132    0.2175 O.3     1  LIG1       -0.4921
     11 C           0.9144   -0.8186    1.6156 C.3     1  LIG1        0.0789
     12 H           1.9457   -0.9294    1.9519 H       1  LIG1        0.0660
     13 H           0.5800    0.2064    1.7967 H       1  LIG1        0.0660
     14 H           0.2700   -1.5190    2.1557 H       1  LIG1        0.0660
     15 C          -0.6275    1.4764   -0.5632 C.ar    1  LIG1        0.0544
     16 C           0.6255    2.0440   -0.5901 C.ar    1  LIG1        0.0831
     17 C           0.5717    3.4733   -0.5050 C.ar    1  LIG1        0.1565
     18 C          -0.6845    4.0079   -0.4111 C.ar    1  LIG1        0.0719
     19 S          -1.8600    2.7195   -0.4173 S.2     1  LIG1       -0.0814
     20 N           1.8520    1.4183   -0.6380 N.pl3   1  LIG1       -0.3542
     21 H           1.8524    0.4186   -0.7755 H       1  LIG1        0.1425
     22 H           2.5772    1.9464   -1.0988 H       1  LIG1        0.1425
     23 O           1.7469    4.1901   -0.5484 O.3     1  LIG1       -0.4921
     24 C           2.2292    4.5803    0.7382 C.3     1  LIG1        0.0789
     25 H           3.1662    5.1130    0.5723 H       1  LIG1        0.0660
     26 H           1.5151    5.2440    1.2335 H       1  LIG1        0.0660
     27 H           2.4091    3.6981    1.3600 H       1  LIG1        0.0660
     28 C          -1.1046    5.3915   -0.3125 C.ar    1  LIG1        0.0544
     29 C          -0.5050    6.5319   -0.7986 C.ar    1  LIG1        0.0831
     30 C          -1.3027    7.6996   -0.5646 C.ar    1  LIG1        0.1565
     31 C          -2.4846    7.4808    0.0875 C.ar    1  LIG1        0.0718
     32 S          -2.6422    5.7821    0.4437 S.2     1  LIG1       -0.0814
     33 N           0.7196    6.6690   -1.4102 N.pl3   1  LIG1       -0.3542
     34 H           1.2232    5.8224   -1.6293 H       1  LIG1        0.1425
     35 H           0.7825    7.4319   -2.0666 H       1  LIG1        0.1425
     36 O          -0.8552    8.9172   -1.0250 O.3     1  LIG1       -0.4921
     37 C          -0.2224    9.7163   -0.0245 C.3     1  LIG1        0.0789
     38 H           0.1026   10.6331   -0.5171 H       1  LIG1        0.0660
     39 H          -0.9258    9.9620    0.7760 H       1  LIG1        0.0660
     40 H           0.6432    9.1910    0.3904 H       1  LIG1        0.0660
     41 C          -3.5185    8.4197    0.4829 C.ar    1  LIG1        0.0538
     42 C          -3.9039    9.6008   -0.1110 C.ar    1  LIG1        0.0824
     43 C          -5.0485   10.1799    0.5419 C.ar    1  LIG1        0.1482
     44 C          -5.5090    9.4580    1.5920 C.ar    1  LIG1        0.0199
     45 S          -4.5534    8.0499    1.8543 S.2     1  LIG1       -0.0904
     46 H          -6.3535    9.6913    2.2228 H       1  LIG1        0.0731
     47 N          -3.3383   10.2556   -1.1864 N.pl3   1  LIG1       -0.3542
     48 H          -2.5879    9.7748   -1.6612 H       1  LIG1        0.1425
     49 H          -4.0068   10.7316   -1.7750 H       1  LIG1        0.1425
     50 O          -5.6181   11.3313    0.0693 O.3     1  LIG1       -0.4927
     51 C          -4.9602   12.5156    0.5103 C.3     1  LIG1        0.0789
     52 H          -5.4772   13.3537    0.0411 H       1  LIG1        0.0660
     53 H          -5.0242   12.6131    1.5996 H       1  LIG1        0.0660
     54 H          -3.9080   12.5174    0.2079 H       1  LIG1        0.0660
@<TRIPOS>BOND
     1    35    33    1
     2    49    47    1
     3    48    47    1
     4    34    33    1
     5     6     1    1
     6     5     1   ar
     7     5     4   ar
     8    33    29    1
     9     1     2   ar
    10    47    42    1
    11    22    20    1
    12    36    30    1
    13    36    37    1
    14     8     7    1
    15    29    30   ar
    16    29    28   ar
    17    21    20    1
    18     4    15    1
    19     4     3   ar
    20     2     3   ar
    21     2     7    1
    22    20    16    1
    23    16    15   ar
    24    16    17   ar
    25    30    31   ar
    26    15    19   ar
    27    23    17    1
    28    23    24    1
    29    38    37    1
    30    17    18   ar
    31    19    18   ar
    32    18    28    1
    33     3    10    1
    34    28    32   ar
    35     7     9    1
    36    42    41   ar
    37    42    43   ar
    38    37    40    1
    39    37    39    1
    40    52    51    1
    41    50    51    1
    42    50    43    1
    43    31    32   ar
    44    31    41    1
    45    54    51    1
    46    10    11    1
    47    41    45   ar
    48    51    53    1
    49    43    44   ar
    50    25    24    1
    51    24    26    1
    52    24    27    1
    53    44    45   ar
    54    44    46    1
    55    11    13    1
    56    11    12    1
    57    11    14    1
