@<TRIPOS>MOLECULE
mol_data/opt/cam/geoms/mol2/5hl5hl-5hl5hl.out
 54 57 0 0 0
SMALL
GASTEIGER

@<TRIPOS>ATOM
      1 C          -2.2501   -2.0347   -1.2901 C.ar    1  LIG1        0.0006
      2 C          -1.0418   -2.2735   -0.7116 C.ar    1  LIG1        0.0746
      3 C          -0.3543   -1.0550   -0.3974 C.ar    1  LIG1        0.1559
      4 C          -1.0290    0.0900   -0.7309 C.ar    1  LIG1        0.0713
      5 S          -2.5528   -0.3361   -1.4665 S.2     1  LIG1       -0.0905
      6 H          -2.9930   -2.7528   -1.6035 H       1  LIG1        0.0713
      7 N          -0.4835   -3.4990   -0.3570 N.pl3   1  LIG1       -0.3547
      8 H          -0.7908   -4.2802   -0.9177 H       1  LIG1        0.1424
      9 H           0.5247   -3.4517   -0.2917 H       1  LIG1        0.1424
     10 O           0.8970   -1.1186    0.1750 O.3     1  LIG1       -0.4921
     11 C           0.9100   -0.8329    1.5750 C.3     1  LIG1        0.0789
     12 H           1.9424   -0.9477    1.9066 H       1  LIG1        0.0660
     13 H           0.5782    0.1914    1.7639 H       1  LIG1        0.0660
     14 H           0.2664   -1.5356    2.1130 H       1  LIG1        0.0660
     15 C          -0.6359    1.4787   -0.5832 C.ar    1  LIG1        0.0544
     16 C           0.6179    2.0442   -0.6112 C.ar    1  LIG1        0.0831
     17 C           0.5671    3.4730   -0.5167 C.ar    1  LIG1        0.1565
     18 C          -0.6878    4.0093   -0.4146 C.ar    1  LIG1        0.0719
     19 S          -1.8656    2.7230   -0.4247 S.2     1  LIG1       -0.0814
     20 N           1.8432    1.4167   -0.6678 N.pl3   1  LIG1       -0.3542
     21 H           1.8412    0.4179   -0.8117 H       1  LIG1        0.1425
     22 H           2.5675    1.9464   -1.1280 H       1  LIG1        0.1425
     23 O           1.7433    4.1881   -0.5600 O.3     1  LIG1       -0.4921
     24 C           2.2312    4.5691    0.7272 C.3     1  LIG1        0.0789
     25 H           3.1686    5.1012    0.5612 H       1  LIG1        0.0660
     26 H           1.5202    5.2309    1.2295 H       1  LIG1        0.0660
     27 H           2.4119    3.6826    1.3427 H       1  LIG1        0.0660
     28 C          -1.1051    5.3930   -0.3055 C.ar    1  LIG1        0.0544
     29 C          -0.5053    6.5354   -0.7866 C.ar    1  LIG1        0.0831
     30 C          -1.2999    7.7030   -0.5421 C.ar    1  LIG1        0.1565
     31 C          -2.4797    7.4821    0.1131 C.ar    1  LIG1        0.0718
     32 S          -2.6390    5.7814    0.4589 S.2     1  LIG1       -0.0814
     33 N           0.7173    6.6743   -1.4020 N.pl3   1  LIG1       -0.3542
     34 H           1.2185    5.8282   -1.6284 H       1  LIG1        0.1425
     35 H           0.7791    7.4412   -2.0536 H       1  LIG1        0.1425
     36 O          -0.8520    8.9228   -0.9964 O.3     1  LIG1       -0.4921
     37 C          -0.2140    9.7142    0.0069 C.3     1  LIG1        0.0789
     38 H           0.1109   10.6337   -0.4811 H       1  LIG1        0.0660
     39 H          -0.9139    9.9561    0.8115 H       1  LIG1        0.0660
     40 H           0.6523    9.1848    0.4151 H       1  LIG1        0.0660
     41 C          -3.5105    8.4202    0.5184 C.ar    1  LIG1        0.0538
     42 C          -3.8960    9.6058   -0.0665 C.ar    1  LIG1        0.0824
     43 C          -5.0371   10.1827    0.5945 C.ar    1  LIG1        0.1482
     44 C          -5.4948    9.4550    1.6417 C.ar    1  LIG1        0.0199
     45 S          -4.5408    8.0435    1.8913 S.2     1  LIG1       -0.0904
     46 H          -6.3365    9.6857    2.2772 H       1  LIG1        0.0731
     47 N          -3.3333   10.2665   -1.1398 N.pl3   1  LIG1       -0.3542
     48 H          -2.5855    9.7875   -1.6205 H       1  LIG1        0.1425
     49 H          -4.0032   10.7475   -1.7227 H       1  LIG1        0.1425
     50 O          -5.6063   11.3382    0.1315 O.3     1  LIG1       -0.4927
     51 C          -4.9446   12.5184    0.5775 C.3     1  LIG1        0.0789
     52 H          -5.4619   13.3604    0.1157 H       1  LIG1        0.0660
     53 H          -5.0044   12.6091    1.6676 H       1  LIG1        0.0660
     54 H          -3.8936   12.5203    0.2711 H       1  LIG1        0.0660
@<TRIPOS>BOND
     1    35    33    1
     2    49    47    1
     3    34    33    1
     4    48    47    1
     5     6     1    1
     6     5     1   ar
     7     5     4   ar
     8    33    29    1
     9     1     2   ar
    10    47    42    1
    11    22    20    1
    12    36    30    1
    13    36    37    1
    14     8     7    1
    15    21    20    1
    16    29    30   ar
    17    29    28   ar
    18     4    15    1
    19     4     3   ar
    20     2     3   ar
    21     2     7    1
    22    20    16    1
    23    16    15   ar
    24    16    17   ar
    25    15    19   ar
    26    23    17    1
    27    23    24    1
    28    30    31   ar
    29    17    18   ar
    30    38    37    1
    31    19    18   ar
    32    18    28    1
    33     3    10    1
    34     7     9    1
    35    28    32   ar
    36    42    41   ar
    37    42    43   ar
    38    37    40    1
    39    37    39    1
    40    31    32   ar
    41    31    41    1
    42    52    51    1
    43    50    51    1
    44    50    43    1
    45    10    11    1
    46    54    51    1
    47    41    45   ar
    48    25    24    1
    49    51    53    1
    50    43    44   ar
    51    24    26    1
    52    24    27    1
    53    11    13    1
    54    11    12    1
    55    11    14    1
    56    44    45   ar
    57    44    46    1
