@<TRIPOS>MOLECULE
mol_data/opt/cam/geoms/mol2/5hl5hl5hl-.out
 41 43 0 0 0
SMALL
GASTEIGER

@<TRIPOS>ATOM
      1 C          -2.3634   -2.0736   -0.5168 C.ar    1  LIG1        0.0006
      2 C          -1.0222   -2.2691   -0.3967 C.ar    1  LIG1        0.0746
      3 C          -0.3133   -1.0277   -0.2846 C.ar    1  LIG1        0.1559
      4 C          -1.1025    0.0918   -0.3181 C.ar    1  LIG1        0.0713
      5 S          -2.7696   -0.3875   -0.5068 S.2     1  LIG1       -0.0905
      6 H          -3.1422   -2.8179   -0.5894 H       1  LIG1        0.0713
      7 N          -0.3314   -3.4748   -0.3065 N.pl3   1  LIG1       -0.3547
      8 H          -0.7872   -4.2565   -0.7543 H       1  LIG1        0.1424
      9 H           0.6336   -3.3820   -0.5945 H       1  LIG1        0.1424
     10 O           1.0599   -1.0456   -0.1773 O.3     1  LIG1       -0.4921
     11 C           1.5408   -0.8231    1.1496 C.3     1  LIG1        0.0789
     12 H           2.6279   -0.8942    1.1029 H       1  LIG1        0.0660
     13 H           1.2554    0.1713    1.5031 H       1  LIG1        0.0660
     14 H           1.1474   -1.5847    1.8299 H       1  LIG1        0.0660
     15 C          -0.7336    1.4937   -0.2524 C.ar    1  LIG1        0.0544
     16 C           0.4157    2.1202   -0.6755 C.ar    1  LIG1        0.0831
     17 C           0.3458    3.5423   -0.5089 C.ar    1  LIG1        0.1565
     18 C          -0.8196    4.0114    0.0311 C.ar    1  LIG1        0.0718
     19 S          -1.8826    2.6707    0.3639 S.2     1  LIG1       -0.0814
     20 N           1.5719    1.5568   -1.1677 N.pl3   1  LIG1       -0.3542
     21 H           1.5604    0.5633   -1.3439 H       1  LIG1        0.1425
     22 H           2.0814    2.1357   -1.8174 H       1  LIG1        0.1425
     23 O           1.4077    4.3161   -0.9195 O.3     1  LIG1       -0.4921
     24 C           2.2789    4.7108    0.1411 C.3     1  LIG1        0.0789
     25 H           3.0822    5.2907   -0.3144 H       1  LIG1        0.0660
     26 H           1.7474    5.3319    0.8674 H       1  LIG1        0.0660
     27 H           2.6943    3.8297    0.6397 H       1  LIG1        0.0660
     28 C          -1.2240    5.3724    0.3342 C.ar    1  LIG1        0.0538
     29 C          -0.8752    6.5497   -0.2886 C.ar    1  LIG1        0.0824
     30 C          -1.5800    7.6769    0.2632 C.ar    1  LIG1        0.1482
     31 C          -2.4316    7.3577    1.2675 C.ar    1  LIG1        0.0199
     32 S          -2.3960    5.6703    1.6091 S.2     1  LIG1       -0.0904
     33 H          -3.0663    8.0317    1.8228 H       1  LIG1        0.0731
     34 N           0.0321    6.7549   -1.3088 N.pl3   1  LIG1       -0.3542
     35 H           0.4461    5.9281   -1.7147 H       1  LIG1        0.1425
     36 H          -0.2346    7.4836   -1.9551 H       1  LIG1        0.1425
     37 O          -1.4100    8.9328   -0.2540 O.3     1  LIG1       -0.4927
     38 C          -0.2547    9.6021    0.2433 C.3     1  LIG1        0.0789
     39 H          -0.2086   10.5660   -0.2653 H       1  LIG1        0.0660
     40 H          -0.3347    9.7649    1.3236 H       1  LIG1        0.0660
     41 H           0.6540    9.0301    0.0297 H       1  LIG1        0.0660
@<TRIPOS>BOND
     1    36    34    1
     2    22    20    1
     3    35    34    1
     4    21    20    1
     5    34    29    1
     6    20    16    1
     7    23    17    1
     8    23    24    1
     9     8     7    1
    10    16    17   ar
    11    16    15   ar
    12     9     7    1
    13     6     1    1
    14     1     5   ar
    15     1     2   ar
    16    17    18   ar
    17     5     4   ar
    18     2     7    1
    19     2     3   ar
    20     4     3   ar
    21     4    15    1
    22    25    24    1
    23    29    30   ar
    24    29    28   ar
    25     3    10    1
    26    39    38    1
    27    37    38    1
    28    37    30    1
    29    15    19   ar
    30    10    11    1
    31    41    38    1
    32    18    28    1
    33    18    19   ar
    34    24    27    1
    35    24    26    1
    36    38    40    1
    37    30    31   ar
    38    28    32   ar
    39    12    11    1
    40    11    13    1
    41    11    14    1
    42    31    32   ar
    43    31    33    1
