@<TRIPOS>MOLECULE
mol_data/opt/cam/geoms/mol2/5ia.out
 12 12 0 0 0
SMALL
GASTEIGER

@<TRIPOS>ATOM
      1 C          -2.0921   -1.6444    0.1186 C.ar    1  LIG1       -0.0214
      2 C          -0.7347   -1.6445    0.0118 C.ar    1  LIG1       -0.0434
      3 C          -0.2174   -0.3112   -0.0836 C.ar    1  LIG1       -0.0518
      4 C          -1.1826    0.6434   -0.0466 C.ar    1  LIG1       -0.0241
      5 S          -2.7548   -0.0501    0.1059 S.2     1  LIG1       -0.1048
      6 H          -2.7456   -2.5011    0.2051 H       1  LIG1        0.0696
      7 H          -1.0635    1.7158   -0.0998 H       1  LIG1        0.0693
      8 C           0.1230   -2.8757   -0.0055 C.3     1  LIG1       -0.0392
      9 H           0.8393   -2.8717    0.8219 H       1  LIG1        0.0278
     10 H           0.7000   -2.9441   -0.9329 H       1  LIG1        0.0278
     11 H          -0.4812   -3.7811    0.0797 H       1  LIG1        0.0278
     12 H           0.8391   -0.0866   -0.1761 H       1  LIG1        0.0625
@<TRIPOS>BOND
     1    10     8    1
     2    12     3    1
     3     7     4    1
     4     3     4   ar
     5     3     2   ar
     6     4     5   ar
     7     8     2    1
     8     8    11    1
     9     8     9    1
    10     2     1   ar
    11     5     1   ar
    12     1     6    1
