@<TRIPOS>MOLECULE
mol_data/opt/cam/geoms/mol2/5ia5ia5ia.out
 32 34 0 0 0
SMALL
GASTEIGER

@<TRIPOS>ATOM
      1 C          -1.7600   -1.7586    1.1362 C.ar    1  LIG1       -0.0208
      2 C          -0.8167   -1.8699    0.1601 C.ar    1  LIG1       -0.0428
      3 C          -0.3923   -0.5870   -0.3066 C.ar    1  LIG1       -0.0435
      4 C          -1.0056    0.4636    0.3173 C.ar    1  LIG1        0.0264
      5 S          -2.1319   -0.1178    1.5133 S.2     1  LIG1       -0.0959
      6 H          -2.2620   -2.5606    1.6592 H       1  LIG1        0.0696
      7 C          -0.2909   -3.1676   -0.3789 C.3     1  LIG1       -0.0392
      8 H           0.7888   -3.2536   -0.2226 H       1  LIG1        0.0278
      9 H          -0.4706   -3.2511   -1.4551 H       1  LIG1        0.0278
     10 H          -0.7684   -4.0205    0.1074 H       1  LIG1        0.0278
     11 H           0.3246   -0.4531   -1.1077 H       1  LIG1        0.0632
     12 C          -0.8079    1.8897    0.0909 C.ar    1  LIG1        0.0294
     13 C           0.3671    2.5627   -0.1400 C.ar    1  LIG1       -0.0346
     14 C           0.1522    3.9590   -0.3334 C.ar    1  LIG1       -0.0429
     15 C          -1.1545    4.3490   -0.2392 C.ar    1  LIG1        0.0270
     16 S          -2.1700    2.9757    0.0855 S.2     1  LIG1       -0.0869
     17 C           1.7320    1.9407   -0.1813 C.3     1  LIG1       -0.0386
     18 H           2.4778    2.6227    0.2351 H       1  LIG1        0.0278
     19 H           2.0396    1.7120   -1.2075 H       1  LIG1        0.0278
     20 H           1.7619    1.0093    0.3870 H       1  LIG1        0.0278
     21 H           0.9547    4.6520   -0.5555 H       1  LIG1        0.0632
     22 C          -1.7099    5.6901   -0.3689 C.ar    1  LIG1        0.0288
     23 C          -1.1996    6.8748    0.1042 C.ar    1  LIG1       -0.0352
     24 C          -2.0360    7.9847   -0.2306 C.ar    1  LIG1       -0.0512
     25 C          -3.1469    7.6386   -0.9311 C.ar    1  LIG1       -0.0235
     26 S          -3.2090    5.9443   -1.2219 S.2     1  LIG1       -0.0959
     27 H          -3.9354    8.2829   -1.2921 H       1  LIG1        0.0693
     28 C           0.0626    7.0216    0.9021 C.3     1  LIG1       -0.0386
     29 H          -0.0429    7.8160    1.6453 H       1  LIG1        0.0278
     30 H           0.9139    7.2858    0.2650 H       1  LIG1        0.0278
     31 H           0.3151    6.0957    1.4221 H       1  LIG1        0.0278
     32 H          -1.8082    9.0033    0.0617 H       1  LIG1        0.0626
@<TRIPOS>BOND
     1     9     7    1
     2    27    25    1
     3    26    25   ar
     4    26    22   ar
     5    19    17    1
     6    11     3    1
     7    25    24   ar
     8    21    14    1
     9     7     8    1
    10     7    10    1
    11     7     2    1
    12    22    15    1
    13    22    23   ar
    14    14    15   ar
    15    14    13   ar
    16     3     2   ar
    17     3     4   ar
    18    15    16   ar
    19    24    32    1
    20    24    23   ar
    21    17    13    1
    22    17    18    1
    23    17    20    1
    24    13    12   ar
    25    16    12   ar
    26    12     4    1
    27    23    28    1
    28     2     1   ar
    29    30    28    1
    30     4     5   ar
    31    28    31    1
    32    28    29    1
    33     1     5   ar
    34     1     6    1
