@<TRIPOS>MOLECULE
mol_data/opt/cam/geoms/mol2/5ia5ia5ia5ia.out
 42 45 0 0 0
SMALL
GASTEIGER

@<TRIPOS>ATOM
      1 C          -1.4850   -1.6711    1.6429 C.ar    1  LIG1       -0.0208
      2 C          -0.8469   -1.8694    0.4561 C.ar    1  LIG1       -0.0428
      3 C          -0.5118   -0.6295   -0.1716 C.ar    1  LIG1       -0.0435
      4 C          -0.8891    0.4751    0.5403 C.ar    1  LIG1        0.0264
      5 S          -1.6729    0.0002    2.0224 S.2     1  LIG1       -0.0959
      6 H          -1.8593   -2.4249    2.3214 H       1  LIG1        0.0696
      7 C          -0.5418   -3.2127   -0.1384 C.3     1  LIG1       -0.0392
      8 H           0.5351   -3.3500   -0.2767 H       1  LIG1        0.0278
      9 H          -1.0121   -3.3273   -1.1199 H       1  LIG1        0.0278
     10 H          -0.9026   -4.0200    0.5019 H       1  LIG1        0.0278
     11 H          -0.0334   -0.5642   -1.1415 H       1  LIG1        0.0632
     12 C          -0.7009    1.8788    0.1968 C.ar    1  LIG1        0.0294
     13 C           0.3946    2.4782   -0.3759 C.ar    1  LIG1       -0.0346
     14 C           0.1942    3.8755   -0.5749 C.ar    1  LIG1       -0.0429
     15 C          -1.0207    4.3393   -0.1521 C.ar    1  LIG1        0.0270
     16 S          -1.9667    3.0356    0.5031 S.2     1  LIG1       -0.0869
     17 C           1.6695    1.7820   -0.7517 C.3     1  LIG1       -0.0386
     18 H           2.5282    2.4386   -0.5898 H       1  LIG1        0.0278
     19 H           1.6757    1.4957   -1.8091 H       1  LIG1        0.0278
     20 H           1.8146    0.8740   -0.1637 H       1  LIG1        0.0278
     21 H           0.9344    4.5140   -1.0416 H       1  LIG1        0.0632
     22 C          -1.5342    5.7012   -0.1971 C.ar    1  LIG1        0.0294
     23 C          -0.8609    6.8763    0.0358 C.ar    1  LIG1       -0.0346
     24 C          -1.7058    8.0138   -0.1200 C.ar    1  LIG1       -0.0429
     25 C          -2.9991    7.7181   -0.4500 C.ar    1  LIG1        0.0270
     26 S          -3.2056    5.9978   -0.5899 S.2     1  LIG1       -0.0869
     27 C           0.5846    6.9896    0.4218 C.3     1  LIG1       -0.0386
     28 H           0.7365    7.8362    1.0962 H       1  LIG1        0.0278
     29 H           1.2242    7.1532   -0.4524 H       1  LIG1        0.0278
     30 H           0.9349    6.0848    0.9218 H       1  LIG1        0.0278
     31 H          -1.3498    9.0304   -0.0050 H       1  LIG1        0.0632
     32 C          -4.1100    8.6360   -0.6659 C.ar    1  LIG1        0.0288
     33 C          -4.4240    9.7755    0.0347 C.ar    1  LIG1       -0.0352
     34 C          -5.5936   10.4127   -0.4844 C.ar    1  LIG1       -0.0512
     35 C          -6.1441    9.7634   -1.5428 C.ar    1  LIG1       -0.0235
     36 S          -5.2478    8.3546   -1.9565 S.2     1  LIG1       -0.0959
     37 H          -7.0281   10.0311   -2.1032 H       1  LIG1        0.0693
     38 C          -3.6724   10.3022    1.2217 C.3     1  LIG1       -0.0386
     39 H          -4.3583   10.7641    1.9365 H       1  LIG1        0.0278
     40 H          -2.9446   11.0678    0.9310 H       1  LIG1        0.0278
     41 H          -3.1274    9.5069    1.7335 H       1  LIG1        0.0278
     42 H          -6.0068   11.3207   -0.0608 H       1  LIG1        0.0626
@<TRIPOS>BOND
     1    37    35    1
     2    36    35   ar
     3    36    32   ar
     4    19    17    1
     5    35    34   ar
     6    11     3    1
     7     9     7    1
     8    21    14    1
     9    17    18    1
    10    17    13    1
    11    17    20    1
    12    32    25    1
    13    32    33   ar
    14    26    25   ar
    15    26    22   ar
    16    14    13   ar
    17    14    15   ar
    18    34    42    1
    19    34    33   ar
    20    29    27    1
    21    25    24   ar
    22    13    12   ar
    23     8     7    1
    24    22    15    1
    25    22    23   ar
    26     3     2   ar
    27     3     4   ar
    28    15    16   ar
    29     7     2    1
    30     7    10    1
    31    24    31    1
    32    24    23   ar
    33    33    38    1
    34    23    27    1
    35    12    16   ar
    36    12     4    1
    37    27    30    1
    38    27    28    1
    39     2     1   ar
    40     4     5   ar
    41    40    38    1
    42    38    41    1
    43    38    39    1
    44     1     5   ar
    45     1     6    1
