@<TRIPOS>MOLECULE
mol_data/opt/cam/geoms/mol2/5ia5ia-5ia5ia.out
 42 45 0 0 0
SMALL
GASTEIGER

@<TRIPOS>ATOM
      1 C          -1.4706   -1.6759    1.6417 C.ar    1  LIG1       -0.0208
      2 C          -0.8428   -1.8707    0.4489 C.ar    1  LIG1       -0.0428
      3 C          -0.5131   -0.6290   -0.1781 C.ar    1  LIG1       -0.0435
      4 C          -0.8843    0.4735    0.5403 C.ar    1  LIG1        0.0264
      5 S          -1.6553   -0.0057    2.0278 S.2     1  LIG1       -0.0959
      6 H          -1.8390   -2.4317    2.3212 H       1  LIG1        0.0696
      7 C          -0.5428   -3.2122   -0.1522 C.3     1  LIG1       -0.0392
      8 H           0.5329   -3.3491   -0.3001 H       1  LIG1        0.0278
      9 H          -1.0215   -3.3240   -1.1298 H       1  LIG1        0.0278
     10 H          -0.8980   -4.0214    0.4889 H       1  LIG1        0.0278
     11 H          -0.0432   -0.5608   -1.1518 H       1  LIG1        0.0632
     12 C          -0.6992    1.8783    0.1993 C.ar    1  LIG1        0.0294
     13 C           0.3913    2.4794   -0.3811 C.ar    1  LIG1       -0.0346
     14 C           0.1892    3.8773   -0.5743 C.ar    1  LIG1       -0.0429
     15 C          -1.0221    4.3397   -0.1397 C.ar    1  LIG1        0.0270
     16 S          -1.9623    3.0340    0.5199 S.2     1  LIG1       -0.0869
     17 C           1.6630    1.7843   -0.7699 C.3     1  LIG1       -0.0386
     18 H           2.5230    2.4405   -0.6136 H       1  LIG1        0.0278
     19 H           1.6600    1.5011   -1.8282 H       1  LIG1        0.0278
     20 H           1.8132    0.8747   -0.1858 H       1  LIG1        0.0278
     21 H           0.9253    4.5172   -1.0455 H       1  LIG1        0.0632
     22 C          -1.5360    5.7017   -0.1763 C.ar    1  LIG1        0.0294
     23 C          -0.8608    6.8762    0.0542 C.ar    1  LIG1       -0.0346
     24 C          -1.7070    8.0141   -0.0909 C.ar    1  LIG1       -0.0429
     25 C          -3.0031    7.7193   -0.4106 C.ar    1  LIG1        0.0270
     26 S          -3.2108    5.9993   -0.5537 S.2     1  LIG1       -0.0869
     27 C           0.5880    6.9885    0.4281 C.3     1  LIG1       -0.0386
     28 H           0.7457    7.8331    1.1035 H       1  LIG1        0.0278
     29 H           1.2200    7.1547   -0.4512 H       1  LIG1        0.0278
     30 H           0.9426    6.0822    0.9224 H       1  LIG1        0.0278
     31 H          -1.3501    9.0304    0.0240 H       1  LIG1        0.0632
     32 C          -4.1159    8.6377   -0.6142 C.ar    1  LIG1        0.0288
     33 C          -4.4238    9.7751    0.0924 C.ar    1  LIG1       -0.0352
     34 C          -5.5979   10.4138   -0.4147 C.ar    1  LIG1       -0.0512
     35 C          -6.1575    9.7675   -1.4702 C.ar    1  LIG1       -0.0235
     36 S          -5.2648    8.3601   -1.8958 S.2     1  LIG1       -0.0959
     37 H          -7.0463   10.0368   -2.0221 H       1  LIG1        0.0693
     38 C          -3.6620   10.2985    1.2744 C.3     1  LIG1       -0.0386
     39 H          -4.3417   10.7582    1.9965 H       1  LIG1        0.0278
     40 H          -2.9368   11.0649    0.9796 H       1  LIG1        0.0278
     41 H          -3.1126    9.5017    1.7791 H       1  LIG1        0.0278
     42 H          -6.0075   11.3206    0.0151 H       1  LIG1        0.0626
@<TRIPOS>BOND
     1    37    35    1
     2    36    35   ar
     3    36    32   ar
     4    19    17    1
     5    35    34   ar
     6    11     3    1
     7     9     7    1
     8    21    14    1
     9    17    18    1
    10    17    13    1
    11    17    20    1
    12    32    25    1
    13    32    33   ar
    14    14    13   ar
    15    14    15   ar
    16    26    25   ar
    17    26    22   ar
    18    29    27    1
    19    34    42    1
    20    34    33   ar
    21    25    24   ar
    22    13    12   ar
    23     8     7    1
    24     3     2   ar
    25     3     4   ar
    26    22    15    1
    27    22    23   ar
    28     7     2    1
    29     7    10    1
    30    15    16   ar
    31    24    31    1
    32    24    23   ar
    33    23    27    1
    34    33    38    1
    35    12    16   ar
    36    12     4    1
    37    27    30    1
    38    27    28    1
    39     2     1   ar
    40     4     5   ar
    41    40    38    1
    42    38    41    1
    43    38    39    1
    44     1     5   ar
    45     1     6    1
