@<TRIPOS>MOLECULE
mol_data/opt/cam/geoms/mol2/5ia5ia5ia-.out
 32 34 0 0 0
SMALL
GASTEIGER

@<TRIPOS>ATOM
      1 C          -1.7653   -1.7613    1.1258 C.ar    1  LIG1       -0.0208
      2 C          -0.8171   -1.8703    0.1543 C.ar    1  LIG1       -0.0428
      3 C          -0.3905   -0.5863   -0.3074 C.ar    1  LIG1       -0.0435
      4 C          -1.0071    0.4629    0.3158 C.ar    1  LIG1        0.0264
      5 S          -2.1393   -0.1213    1.5048 S.2     1  LIG1       -0.0959
      6 H          -2.2698   -2.5645    1.6444 H       1  LIG1        0.0696
      7 C          -0.2885   -3.1667   -0.3851 C.3     1  LIG1       -0.0392
      8 H           0.7905   -3.2530   -0.2236 H       1  LIG1        0.0278
      9 H          -0.4627   -3.2478   -1.4624 H       1  LIG1        0.0278
     10 H          -0.7683   -4.0207    0.0969 H       1  LIG1        0.0278
     11 H           0.3304   -0.4505   -1.1046 H       1  LIG1        0.0632
     12 C          -0.8083    1.8895    0.0937 C.ar    1  LIG1        0.0294
     13 C           0.3677    2.5631   -0.1298 C.ar    1  LIG1       -0.0346
     14 C           0.1536    3.9598   -0.3211 C.ar    1  LIG1       -0.0429
     15 C          -1.1535    4.3495   -0.2326 C.ar    1  LIG1        0.0270
     16 S          -2.1705    2.9754    0.0839 S.2     1  LIG1       -0.0869
     17 C           1.7329    1.9414   -0.1656 C.3     1  LIG1       -0.0386
     18 H           2.4766    2.6225    0.2560 H       1  LIG1        0.0278
     19 H           2.0457    1.7150   -1.1908 H       1  LIG1        0.0278
     20 H           1.7600    1.0087    0.4006 H       1  LIG1        0.0278
     21 H           0.9572    4.6534   -0.5376 H       1  LIG1        0.0632
     22 C          -1.7084    5.6908   -0.3620 C.ar    1  LIG1        0.0288
     23 C          -1.2006    6.8745    0.1164 C.ar    1  LIG1       -0.0352
     24 C          -2.0355    7.9851   -0.2201 C.ar    1  LIG1       -0.0512
     25 C          -3.1428    7.6405   -0.9269 C.ar    1  LIG1       -0.0235
     26 S          -3.2033    5.9469   -1.2220 S.2     1  LIG1       -0.0959
     27 H          -3.9296    8.2856   -1.2905 H       1  LIG1        0.0693
     28 C           0.0575    7.0196    0.9209 C.3     1  LIG1       -0.0386
     29 H          -0.0518    7.8123    1.6654 H       1  LIG1        0.0278
     30 H           0.9120    7.2853    0.2888 H       1  LIG1        0.0278
     31 H           0.3075    6.0926    1.4401 H       1  LIG1        0.0278
     32 H          -1.8092    9.0031    0.0757 H       1  LIG1        0.0626
@<TRIPOS>BOND
     1     9     7    1
     2    27    25    1
     3    26    25   ar
     4    26    22   ar
     5    19    17    1
     6    11     3    1
     7    25    24   ar
     8    21    14    1
     9     7     8    1
    10     7    10    1
    11     7     2    1
    12    22    15    1
    13    22    23   ar
    14    14    15   ar
    15    14    13   ar
    16     3     2   ar
    17     3     4   ar
    18    15    16   ar
    19    24    32    1
    20    24    23   ar
    21    17    13    1
    22    17    18    1
    23    17    20    1
    24    13    12   ar
    25    16    12   ar
    26    12     4    1
    27    23    28    1
    28     2     1   ar
    29    30    28    1
    30     4     5   ar
    31    28    31    1
    32    28    29    1
    33     1     5   ar
    34     1     6    1
