@<TRIPOS>MOLECULE
mol_data/opt/cam/geoms/mol2/5ia5ia5ia5ia-.out
 42 45 0 0 0
SMALL
GASTEIGER

@<TRIPOS>ATOM
      1 C          -1.4838   -1.6683    1.6490 C.ar    1  LIG1       -0.0208
      2 C          -0.8469   -1.8686    0.4620 C.ar    1  LIG1       -0.0428
      3 C          -0.5122   -0.6298   -0.1682 C.ar    1  LIG1       -0.0435
      4 C          -0.8888    0.4760    0.5422 C.ar    1  LIG1        0.0264
      5 S          -1.6712    0.0037    2.0259 S.2     1  LIG1       -0.0959
      6 H          -1.8577   -2.4209    2.3291 H       1  LIG1        0.0696
      7 C          -0.5424   -3.2129   -0.1306 C.3     1  LIG1       -0.0392
      8 H           0.5344   -3.3506   -0.2696 H       1  LIG1        0.0278
      9 H          -1.0136   -3.3291   -1.1115 H       1  LIG1        0.0278
     10 H          -0.9027   -4.0191    0.5114 H       1  LIG1        0.0278
     11 H          -0.0348   -0.5662   -1.1386 H       1  LIG1        0.0632
     12 C          -0.7008    1.8791    0.1962 C.ar    1  LIG1        0.0294
     13 C           0.3942    2.4775   -0.3785 C.ar    1  LIG1       -0.0346
     14 C           0.1937    3.8745   -0.5797 C.ar    1  LIG1       -0.0429
     15 C          -1.0208    4.3390   -0.1567 C.ar    1  LIG1        0.0270
     16 S          -1.9662    3.0365    0.5017 S.2     1  LIG1       -0.0869
     17 C           1.6687    1.7805   -0.7543 C.3     1  LIG1       -0.0386
     18 H           2.5276    2.4373   -0.5943 H       1  LIG1        0.0278
     19 H           1.6739    1.4924   -1.8112 H       1  LIG1        0.0278
     20 H           1.8143    0.8736   -0.1648 H       1  LIG1        0.0278
     21 H           0.9336    4.5121   -1.0482 H       1  LIG1        0.0632
     22 C          -1.5343    5.7009   -0.2035 C.ar    1  LIG1        0.0294
     23 C          -0.8607    6.8763    0.0267 C.ar    1  LIG1       -0.0346
     24 C          -1.7056    8.0137   -0.1303 C.ar    1  LIG1       -0.0429
     25 C          -2.9992    7.7175   -0.4586 C.ar    1  LIG1        0.0270
     26 S          -3.2060    5.9969   -0.5954 S.2     1  LIG1       -0.0869
     27 C           0.5852    6.9902    0.4113 C.3     1  LIG1       -0.0386
     28 H           0.7378    7.8380    1.0840 H       1  LIG1        0.0278
     29 H           1.2240    7.1523   -0.4639 H       1  LIG1        0.0278
     30 H           0.9358    6.0862    0.9125 H       1  LIG1        0.0278
     31 H          -1.3494    9.0304   -0.0173 H       1  LIG1        0.0632
     32 C          -4.1103    8.6350   -0.6751 C.ar    1  LIG1        0.0288
     33 C          -4.4235    9.7757    0.0239 C.ar    1  LIG1       -0.0352
     34 C          -5.5936   10.4121   -0.4952 C.ar    1  LIG1       -0.0512
     35 C          -6.1451    9.7611   -1.5520 C.ar    1  LIG1       -0.0235
     36 S          -5.2492    8.3516   -1.9642 S.2     1  LIG1       -0.0959
     37 H          -7.0296   10.0279   -2.1121 H       1  LIG1        0.0693
     38 C          -3.6709   10.3044    1.2094 C.3     1  LIG1       -0.0386
     39 H          -4.3561   10.7675    1.9240 H       1  LIG1        0.0278
     40 H          -2.9433   11.0695    0.9167 H       1  LIG1        0.0278
     41 H          -3.1255    9.5100    1.7220 H       1  LIG1        0.0278
     42 H          -6.0064   11.3209   -0.0727 H       1  LIG1        0.0626
@<TRIPOS>BOND
     1    37    35    1
     2    36    35   ar
     3    36    32   ar
     4    19    17    1
     5    35    34   ar
     6    11     3    1
     7     9     7    1
     8    21    14    1
     9    17    18    1
    10    17    13    1
    11    17    20    1
    12    32    25    1
    13    32    33   ar
    14    26    25   ar
    15    26    22   ar
    16    14    13   ar
    17    14    15   ar
    18    34    42    1
    19    34    33   ar
    20    29    27    1
    21    25    24   ar
    22    13    12   ar
    23     8     7    1
    24    22    15    1
    25    22    23   ar
    26     3     2   ar
    27     3     4   ar
    28    15    16   ar
    29     7     2    1
    30     7    10    1
    31    24    31    1
    32    24    23   ar
    33    33    38    1
    34    23    27    1
    35    12    16   ar
    36    12     4    1
    37    27    30    1
    38    27    28    1
    39     2     1   ar
    40     4     5   ar
    41    40    38    1
    42    38    41    1
    43    38    39    1
    44     1     5   ar
    45     1     6    1
