@<TRIPOS>MOLECULE
mol_data/opt/cam/geoms/mol2/5ia5ia-5ia.out
 32 34 0 0 0
SMALL
GASTEIGER

@<TRIPOS>ATOM
      1 C          -1.7483   -1.7619    1.1395 C.ar    1  LIG1       -0.0208
      2 C          -0.8147   -1.8704    0.1540 C.ar    1  LIG1       -0.0428
      3 C          -0.3951   -0.5861   -0.3134 C.ar    1  LIG1       -0.0435
      4 C          -1.0023    0.4627    0.3194 C.ar    1  LIG1        0.0264
      5 S          -2.1167   -0.1221    1.5247 S.2     1  LIG1       -0.0959
      6 H          -2.2451   -2.5653    1.6652 H       1  LIG1        0.0696
      7 C          -0.2941   -3.1665   -0.3938 C.3     1  LIG1       -0.0392
      8 H           0.7872   -3.2528   -0.2484 H       1  LIG1        0.0278
      9 H          -0.4843   -3.2471   -1.4684 H       1  LIG1        0.0278
     10 H          -0.7667   -4.0208    0.0949 H       1  LIG1        0.0278
     11 H           0.3140   -0.4499   -1.1212 H       1  LIG1        0.0632
     12 C          -0.8069    1.8894    0.0950 C.ar    1  LIG1        0.0294
     13 C           0.3656    2.5632   -0.1456 C.ar    1  LIG1       -0.0346
     14 C           0.1487    3.9600   -0.3331 C.ar    1  LIG1       -0.0429
     15 C          -1.1570    4.3496   -0.2250 C.ar    1  LIG1        0.0270
     16 S          -2.1691    2.9753    0.1059 S.2     1  LIG1       -0.0869
     17 C           1.7301    1.9415   -0.2020 C.3     1  LIG1       -0.0386
     18 H           2.4800    2.6224    0.2089 H       1  LIG1        0.0278
     19 H           2.0278    1.7156   -1.2318 H       1  LIG1        0.0278
     20 H           1.7657    1.0086    0.3634 H       1  LIG1        0.0278
     21 H           0.9489    4.6537   -0.5611 H       1  LIG1        0.0632
     22 C          -1.7138    5.6910   -0.3455 C.ar    1  LIG1        0.0288
     23 C          -1.1990    6.8744    0.1258 C.ar    1  LIG1       -0.0352
     24 C          -2.0387    7.9852   -0.1977 C.ar    1  LIG1       -0.0512
     25 C          -3.1564    7.6408   -0.8882 C.ar    1  LIG1       -0.0235
     26 S          -3.2212    5.9473   -1.1831 S.2     1  LIG1       -0.0959
     27 H          -3.9485    8.2860   -1.2398 H       1  LIG1        0.0693
     28 C           0.0710    7.0192    0.9116 C.3     1  LIG1       -0.0386
     29 H          -0.0273    7.8116    1.6581 H       1  LIG1        0.0278
     30 H           0.9159    7.2852    0.2670 H       1  LIG1        0.0278
     31 H           0.3287    6.0919    1.4266 H       1  LIG1        0.0278
     32 H          -1.8082    9.0030    0.0951 H       1  LIG1        0.0626
@<TRIPOS>BOND
     1     9     7    1
     2    27    25    1
     3    19    17    1
     4    26    25   ar
     5    26    22   ar
     6    11     3    1
     7    25    24   ar
     8    21    14    1
     9     7     8    1
    10     7    10    1
    11     7     2    1
    12    22    15    1
    13    22    23   ar
    14    14    15   ar
    15    14    13   ar
    16     3     2   ar
    17     3     4   ar
    18    15    16   ar
    19    17    13    1
    20    17    18    1
    21    17    20    1
    22    24    32    1
    23    24    23   ar
    24    13    12   ar
    25    12    16   ar
    26    12     4    1
    27    23    28    1
    28     2     1   ar
    29    30    28    1
    30     4     5   ar
    31    28    31    1
    32    28    29    1
    33     1     5   ar
    34     1     6    1
