@<TRIPOS>MOLECULE
mol_data/opt/cam/geoms/mol2/5ia5ia5ia-5ia-.out
 42 45 0 0 0
SMALL
GASTEIGER

@<TRIPOS>ATOM
      1 C          -1.4974   -1.6700    1.6401 C.ar    1  LIG1       -0.0208
      2 C          -0.8507   -1.8691    0.4582 C.ar    1  LIG1       -0.0428
      3 C          -0.5109   -0.6297   -0.1680 C.ar    1  LIG1       -0.0435
      4 C          -0.8933    0.4755    0.5403 C.ar    1  LIG1        0.0264
      5 S          -1.6880    0.0017    2.0171 S.2     1  LIG1       -0.0959
      6 H          -1.8768   -2.4232    2.3164 H       1  LIG1        0.0696
      7 C          -0.5414   -3.2128   -0.1332 C.3     1  LIG1       -0.0392
      8 H           0.5365   -3.3503   -0.2634 H       1  LIG1        0.0278
      9 H          -1.0045   -3.3281   -1.1180 H       1  LIG1        0.0278
     10 H          -0.9069   -4.0197    0.5051 H       1  LIG1        0.0278
     11 H          -0.0255   -0.5651   -1.1344 H       1  LIG1        0.0632
     12 C          -0.7025    1.8789    0.1973 C.ar    1  LIG1        0.0294
     13 C           0.3971    2.4778   -0.3678 C.ar    1  LIG1       -0.0346
     14 C           0.1984    3.8750   -0.5693 C.ar    1  LIG1       -0.0429
     15 C          -1.0196    4.3391   -0.1558 C.ar    1  LIG1        0.0270
     16 S          -1.9704    3.0360    0.4934 S.2     1  LIG1       -0.0869
     17 C           1.6748    1.7812   -0.7338 C.3     1  LIG1       -0.0386
     18 H           2.5323    2.4379   -0.5661 H       1  LIG1        0.0278
     19 H           1.6887    1.4941   -1.7909 H       1  LIG1        0.0278
     20 H           1.8155    0.8737   -0.1440 H       1  LIG1        0.0278
     21 H           0.9420    4.5131   -1.0311 H       1  LIG1        0.0632
     22 C          -1.5327    5.7011   -0.2056 C.ar    1  LIG1        0.0294
     23 C          -0.8610    6.8763    0.0314 C.ar    1  LIG1       -0.0346
     24 C          -1.7047    8.0137   -0.1314 C.ar    1  LIG1       -0.0429
     25 C          -2.9955    7.7179   -0.4707 C.ar    1  LIG1        0.0270
     26 S          -3.2011    5.9975   -0.6109 S.2     1  LIG1       -0.0869
     27 C           0.5816    6.9898    0.4279 C.3     1  LIG1       -0.0386
     28 H           0.7287    7.8369    1.1027 H       1  LIG1        0.0278
     29 H           1.2276    7.1527   -0.4417 H       1  LIG1        0.0278
     30 H           0.9281    6.0853    0.9311 H       1  LIG1        0.0278
     31 H          -1.3494    9.0304   -0.0145 H       1  LIG1        0.0632
     32 C          -4.1048    8.6357   -0.6954 C.ar    1  LIG1        0.0288
     33 C          -4.4238    9.7757    0.0020 C.ar    1  LIG1       -0.0352
     34 C          -5.5895   10.4126   -0.5261 C.ar    1  LIG1       -0.0512
     35 C          -6.1322    9.7625   -1.5880 C.ar    1  LIG1       -0.0235
     36 S          -5.2331    8.3535   -1.9942 S.2     1  LIG1       -0.0959
     37 H          -7.0121   10.0299   -2.1551 H       1  LIG1        0.0693
     38 C          -3.6809   10.3032    1.1942 C.3     1  LIG1       -0.0386
     39 H          -4.3720   10.7656    1.9036 H       1  LIG1        0.0278
     40 H          -2.9509   11.0685    0.9083 H       1  LIG1        0.0278
     41 H          -3.1397    9.5083    1.7105 H       1  LIG1        0.0278
     42 H          -6.0058   11.3210   -0.1061 H       1  LIG1        0.0626
@<TRIPOS>BOND
     1    37    35    1
     2    36    35   ar
     3    36    32   ar
     4    19    17    1
     5    35    34   ar
     6    11     3    1
     7     9     7    1
     8    21    14    1
     9    17    18    1
    10    17    13    1
    11    17    20    1
    12    32    25    1
    13    32    33   ar
    14    26    25   ar
    15    26    22   ar
    16    14    13   ar
    17    14    15   ar
    18    34    42    1
    19    34    33   ar
    20    25    24   ar
    21    29    27    1
    22    13    12   ar
    23     8     7    1
    24    22    15    1
    25    22    23   ar
    26     3     2   ar
    27     3     4   ar
    28    15    16   ar
    29     7     2    1
    30     7    10    1
    31    24    31    1
    32    24    23   ar
    33    33    38    1
    34    23    27    1
    35    12    16   ar
    36    12     4    1
    37    27    30    1
    38    27    28    1
    39     2     1   ar
    40     4     5   ar
    41    40    38    1
    42    38    41    1
    43    38    39    1
    44     1     5   ar
    45     1     6    1
