@<TRIPOS>MOLECULE
mol_data/opt/cam/geoms/mol2/5ia5ia-5ia-.out
 32 34 0 0 0
SMALL
GASTEIGER

@<TRIPOS>ATOM
      1 C          -1.7537   -1.7646    1.1292 C.ar    1  LIG1       -0.0208
      2 C          -0.8151   -1.8708    0.1481 C.ar    1  LIG1       -0.0428
      3 C          -0.3933   -0.5854   -0.3143 C.ar    1  LIG1       -0.0435
      4 C          -1.0037    0.4620    0.3179 C.ar    1  LIG1        0.0264
      5 S          -2.1241   -0.1257    1.5164 S.2     1  LIG1       -0.0959
      6 H          -2.2529   -2.5693    1.6506 H       1  LIG1        0.0696
      7 C          -0.2917   -3.1656   -0.4000 C.3     1  LIG1       -0.0392
      8 H           0.7888   -3.2521   -0.2494 H       1  LIG1        0.0278
      9 H          -0.4766   -3.2437   -1.4758 H       1  LIG1        0.0278
     10 H          -0.7666   -4.0210    0.0843 H       1  LIG1        0.0278
     11 H           0.3197   -0.4473   -1.1182 H       1  LIG1        0.0632
     12 C          -0.8074    1.8892    0.0977 C.ar    1  LIG1        0.0294
     13 C           0.3663    2.5636   -0.1355 C.ar    1  LIG1       -0.0346
     14 C           0.1502    3.9608   -0.3208 C.ar    1  LIG1       -0.0429
     15 C          -1.1560    4.3501   -0.2183 C.ar    1  LIG1        0.0270
     16 S          -2.1697    2.9749    0.1044 S.2     1  LIG1       -0.0869
     17 C           1.7312    1.9421   -0.1864 C.3     1  LIG1       -0.0386
     18 H           2.4789    2.6221    0.2297 H       1  LIG1        0.0278
     19 H           2.0339    1.7186   -1.2153 H       1  LIG1        0.0278
     20 H           1.7639    1.0079    0.3769 H       1  LIG1        0.0278
     21 H           0.9515    4.6550   -0.5433 H       1  LIG1        0.0632
     22 C          -1.7123    5.6917   -0.3385 C.ar    1  LIG1        0.0288
     23 C          -1.1999    6.8741    0.1380 C.ar    1  LIG1       -0.0352
     24 C          -2.0382    7.9855   -0.1871 C.ar    1  LIG1       -0.0512
     25 C          -3.1524    7.6427   -0.8840 C.ar    1  LIG1       -0.0235
     26 S          -3.2156    5.9498   -1.1831 S.2     1  LIG1       -0.0959
     27 H          -3.9428    8.2886   -1.2380 H       1  LIG1        0.0693
     28 C           0.0661    7.0171    0.9305 C.3     1  LIG1       -0.0386
     29 H          -0.0361    7.8078    1.6783 H       1  LIG1        0.0278
     30 H           0.9142    7.2847    0.2907 H       1  LIG1        0.0278
     31 H           0.3212    6.0887    1.4446 H       1  LIG1        0.0278
     32 H          -1.8092    9.0027    0.1092 H       1  LIG1        0.0626
@<TRIPOS>BOND
     1     9     7    1
     2    27    25    1
     3    19    17    1
     4    26    25   ar
     5    26    22   ar
     6    11     3    1
     7    25    24   ar
     8    21    14    1
     9     7     8    1
    10     7    10    1
    11     7     2    1
    12    22    15    1
    13    22    23   ar
    14    14    15   ar
    15    14    13   ar
    16     3     2   ar
    17     3     4   ar
    18    15    16   ar
    19    24    32    1
    20    24    23   ar
    21    17    13    1
    22    17    18    1
    23    17    20    1
    24    13    12   ar
    25    12    16   ar
    26    12     4    1
    27    23    28    1
    28     2     1   ar
    29    30    28    1
    30     4     5   ar
    31    28    31    1
    32    28    29    1
    33     1     5   ar
    34     1     6    1
