@<TRIPOS>MOLECULE
mol_data/opt/cam/geoms/mol2/5ia5ia.out
 22 23 0 0 0
SMALL
GASTEIGER

@<TRIPOS>ATOM
      1 C          -1.9782   -1.7523    0.6232 C.ar    1  LIG1       -0.0208
      2 C          -0.7776   -1.7938   -0.0181 C.ar    1  LIG1       -0.0428
      3 C          -0.3025   -0.4805   -0.3255 C.ar    1  LIG1       -0.0435
      4 C          -1.1337    0.5231    0.0868 C.ar    1  LIG1        0.0264
      5 S          -2.5373   -0.1409    0.8774 S.2     1  LIG1       -0.0959
      6 H          -2.5707   -2.5903    0.9630 H       1  LIG1        0.0696
      7 C          -0.0417   -3.0508   -0.3775 C.3     1  LIG1       -0.0392
      8 H           0.9444   -3.0824    0.0963 H       1  LIG1        0.0278
      9 H           0.1154   -3.1228   -1.4581 H       1  LIG1        0.0278
     10 H          -0.5941   -3.9372   -0.0597 H       1  LIG1        0.0278
     11 H           0.6172   -0.2915   -0.8661 H       1  LIG1        0.0632
     12 C          -0.9539    1.9631   -0.0582 C.ar    1  LIG1        0.0288
     13 C           0.1914    2.7015    0.1124 C.ar    1  LIG1       -0.0352
     14 C          -0.0328    4.0934   -0.1268 C.ar    1  LIG1       -0.0512
     15 C          -1.3151    4.3890   -0.4623 C.ar    1  LIG1       -0.0235
     16 S          -2.2971    2.9771   -0.5128 S.2     1  LIG1       -0.0959
     17 H          -1.7409    5.3575   -0.6811 H       1  LIG1        0.0693
     18 C           1.5259    2.1535    0.5250 C.3     1  LIG1       -0.0386
     19 H           2.0417    2.8544    1.1866 H       1  LIG1        0.0278
     20 H           2.1773    1.9863   -0.3398 H       1  LIG1        0.0278
     21 H           1.4208    1.2011    1.0473 H       1  LIG1        0.0278
     22 H           0.7472    4.8404   -0.0344 H       1  LIG1        0.0626
@<TRIPOS>BOND
     1     9     7    1
     2    11     3    1
     3    17    15    1
     4    16    15   ar
     5    16    12   ar
     6    15    14   ar
     7     7    10    1
     8     7     2    1
     9     7     8    1
    10    20    18    1
    11     3     2   ar
    12     3     4   ar
    13    14    22    1
    14    14    13   ar
    15    12     4    1
    16    12    13   ar
    17     2     1   ar
    18     4     5   ar
    19    13    18    1
    20    18    21    1
    21    18    19    1
    22     1     5   ar
    23     1     6    1
