@<TRIPOS>MOLECULE
mol_data/opt/cam/geoms/mol2/5ia5ia-5ia-5ia.out
 42 45 0 0 0
SMALL
GASTEIGER

@<TRIPOS>ATOM
      1 C          -1.4843   -1.6775    1.6330 C.ar    1  LIG1       -0.0208
      2 C          -0.8467   -1.8711    0.4452 C.ar    1  LIG1       -0.0428
      3 C          -0.5118   -0.6288   -0.1779 C.ar    1  LIG1       -0.0435
      4 C          -0.8889    0.4730    0.5385 C.ar    1  LIG1        0.0264
      5 S          -1.6720   -0.0077    2.0191 S.2     1  LIG1       -0.0959
      6 H          -1.8583   -2.4339    2.3087 H       1  LIG1        0.0696
      7 C          -0.5418   -3.2121   -0.1547 C.3     1  LIG1       -0.0392
      8 H           0.5350   -3.3488   -0.2940 H       1  LIG1        0.0278
      9 H          -1.0125   -3.3229   -1.1364 H       1  LIG1        0.0278
     10 H          -0.9023   -4.0219    0.4826 H       1  LIG1        0.0278
     11 H          -0.0339   -0.5597   -1.1477 H       1  LIG1        0.0632
     12 C          -0.7009    1.8781    0.2004 C.ar    1  LIG1        0.0294
     13 C           0.3943    2.4797   -0.3704 C.ar    1  LIG1       -0.0346
     14 C           0.1939    3.8778   -0.5639 C.ar    1  LIG1       -0.0429
     15 C          -1.0209    4.3398   -0.1389 C.ar    1  LIG1        0.0270
     16 S          -1.9666    3.0336    0.5117 S.2     1  LIG1       -0.0869
     17 C           1.6691    1.7850   -0.7495 C.3     1  LIG1       -0.0386
     18 H           2.5279    2.4409   -0.5854 H       1  LIG1        0.0278
     19 H           1.6749    1.5028   -1.8080 H       1  LIG1        0.0278
     20 H           1.8145    0.8747   -0.1650 H       1  LIG1        0.0278
     21 H           0.9339    4.5181   -1.0285 H       1  LIG1        0.0632
     22 C          -1.5344    5.7019   -0.1783 C.ar    1  LIG1        0.0294
     23 C          -0.8611    6.8761    0.0588 C.ar    1  LIG1       -0.0346
     24 C          -1.7061    8.0142   -0.0922 C.ar    1  LIG1       -0.0429
     25 C          -2.9994    7.7198   -0.4228 C.ar    1  LIG1        0.0270
     26 S          -3.2060    6.0000   -0.5693 S.2     1  LIG1       -0.0869
     27 C           0.5846    6.9880    0.4447 C.3     1  LIG1       -0.0386
     28 H           0.7368    7.8319    1.1223 H       1  LIG1        0.0278
     29 H           1.2238    7.1550   -0.4291 H       1  LIG1        0.0278
     30 H           0.9351    6.0812    0.9410 H       1  LIG1        0.0278
     31 H          -1.3500    9.0304    0.0267 H       1  LIG1        0.0632
     32 C          -4.1105    8.6385   -0.6346 C.ar    1  LIG1        0.0288
     33 C          -4.4242    9.7752    0.0705 C.ar    1  LIG1       -0.0352
     34 C          -5.5940   10.4144   -0.4456 C.ar    1  LIG1       -0.0512
     35 C          -6.1449    9.7692   -1.5062 C.ar    1  LIG1       -0.0235
     36 S          -5.2488    8.3621   -1.9259 S.2     1  LIG1       -0.0959
     37 H          -7.0292   10.0391   -2.0652 H       1  LIG1        0.0693
     38 C          -3.6721   10.2974    1.2593 C.3     1  LIG1       -0.0386
     39 H          -4.3577   10.7564    1.9762 H       1  LIG1        0.0278
     40 H          -2.9444   11.0641    0.9713 H       1  LIG1        0.0278
     41 H          -3.1269    9.5001    1.7678 H       1  LIG1        0.0278
     42 H          -6.0071   11.3208   -0.0183 H       1  LIG1        0.0626
@<TRIPOS>BOND
     1    37    35    1
     2    36    35   ar
     3    36    32   ar
     4    19    17    1
     5    35    34   ar
     6    11     3    1
     7     9     7    1
     8    21    14    1
     9    17    18    1
    10    17    13    1
    11    17    20    1
    12    32    25    1
    13    32    33   ar
    14    26    25   ar
    15    26    22   ar
    16    14    13   ar
    17    14    15   ar
    18    34    42    1
    19    34    33   ar
    20    29    27    1
    21    25    24   ar
    22    13    12   ar
    23     8     7    1
    24    22    15    1
    25    22    23   ar
    26     3     2   ar
    27     3     4   ar
    28     7     2    1
    29     7    10    1
    30    15    16   ar
    31    24    31    1
    32    24    23   ar
    33    23    27    1
    34    33    38    1
    35    12    16   ar
    36    12     4    1
    37    27    30    1
    38    27    28    1
    39     2     1   ar
    40     4     5   ar
    41    40    38    1
    42    38    41    1
    43    38    39    1
    44     1     5   ar
    45     1     6    1
