@<TRIPOS>MOLECULE
mol_data/opt/cam/geoms/mol2/5ia5ia-.out
 22 23 0 0 0
SMALL
GASTEIGER

@<TRIPOS>ATOM
      1 C          -1.9714   -1.7516    0.6359 C.ar    1  LIG1       -0.0208
      2 C          -0.7779   -1.7938   -0.0186 C.ar    1  LIG1       -0.0428
      3 C          -0.3062   -0.4808   -0.3325 C.ar    1  LIG1       -0.0435
      4 C          -1.1327    0.5232    0.0879 C.ar    1  LIG1        0.0264
      5 S          -2.5275   -0.1399    0.8946 S.2     1  LIG1       -0.0959
      6 H          -2.5601   -2.5892    0.9830 H       1  LIG1        0.0696
      7 C          -0.0460   -3.0512   -0.3848 C.3     1  LIG1       -0.0392
      8 H           0.9452   -3.0823    0.0781 H       1  LIG1        0.0278
      9 H           0.0991   -3.1243   -1.4671 H       1  LIG1        0.0278
     10 H          -0.5950   -3.9373   -0.0601 H       1  LIG1        0.0278
     11 H           0.6075   -0.2924   -0.8834 H       1  LIG1        0.0632
     12 C          -0.9545    1.9631   -0.0604 C.ar    1  LIG1        0.0288
     13 C           0.1927    2.7016    0.0968 C.ar    1  LIG1       -0.0352
     14 C          -0.0341    4.0932   -0.1413 C.ar    1  LIG1       -0.0512
     15 C          -1.3200    4.3886   -0.4629 C.ar    1  LIG1       -0.0235
     16 S          -2.3026    2.9767   -0.5012 S.2     1  LIG1       -0.0959
     17 H          -1.7482    5.3569   -0.6779 H       1  LIG1        0.0693
     18 C           1.5316    2.1539    0.4951 C.3     1  LIG1       -0.0386
     19 H           2.0547    2.8554    1.1504 H       1  LIG1        0.0278
     20 H           2.1735    1.9859   -0.3767 H       1  LIG1        0.0278
     21 H           1.4322    1.2020    1.0195 H       1  LIG1        0.0278
     22 H           0.7469    4.8403   -0.0583 H       1  LIG1        0.0626
@<TRIPOS>BOND
     1     9     7    1
     2    11     3    1
     3    17    15    1
     4    16    15   ar
     5    16    12   ar
     6    15    14   ar
     7     7    10    1
     8     7     2    1
     9     7     8    1
    10    20    18    1
    11     3     2   ar
    12     3     4   ar
    13    14    22    1
    14    14    13   ar
    15    12     4    1
    16    12    13   ar
    17     2     1   ar
    18     4     5   ar
    19    13    18    1
    20    18    21    1
    21    18    19    1
    22     1     5   ar
    23     1     6    1
