@<TRIPOS>MOLECULE
mol_data/opt/cam/geoms/mol2/5ia5ia5ia-5ia.out
 42 45 0 0 0
SMALL
GASTEIGER

@<TRIPOS>ATOM
      1 C          -1.4986   -1.6727    1.6341 C.ar    1  LIG1       -0.0208
      2 C          -0.8508   -1.8699    0.4524 C.ar    1  LIG1       -0.0428
      3 C          -0.5104   -0.6294   -0.1714 C.ar    1  LIG1       -0.0435
      4 C          -0.8936    0.4746    0.5385 C.ar    1  LIG1        0.0264
      5 S          -1.6896   -0.0018    2.0137 S.2     1  LIG1       -0.0959
      6 H          -1.8785   -2.4272    2.3087 H       1  LIG1        0.0696
      7 C          -0.5408   -3.2125   -0.1409 C.3     1  LIG1       -0.0392
      8 H           0.5373   -3.3497   -0.2705 H       1  LIG1        0.0278
      9 H          -1.0029   -3.3262   -1.1264 H       1  LIG1        0.0278
     10 H          -0.9068   -4.0205    0.4956 H       1  LIG1        0.0278
     11 H          -0.0242   -0.5631   -1.1372 H       1  LIG1        0.0632
     12 C          -0.7026    1.8786    0.1980 C.ar    1  LIG1        0.0294
     13 C           0.3975    2.4786   -0.3651 C.ar    1  LIG1       -0.0346
     14 C           0.1988    3.8761   -0.5645 C.ar    1  LIG1       -0.0429
     15 C          -1.0195    4.3394   -0.1513 C.ar    1  LIG1        0.0270
     16 S          -1.9709    3.0351    0.4949 S.2     1  LIG1       -0.0869
     17 C           1.6755    1.7827   -0.7311 C.3     1  LIG1       -0.0386
     18 H           2.5329    2.4391   -0.5615 H       1  LIG1        0.0278
     19 H           1.6904    1.4974   -1.7887 H       1  LIG1        0.0278
     20 H           1.8158    0.8742   -0.1428 H       1  LIG1        0.0278
     21 H           0.9429    4.5150   -1.0244 H       1  LIG1        0.0632
     22 C          -1.5327    5.7014   -0.1992 C.ar    1  LIG1        0.0294
     23 C          -0.8613    6.8762    0.0404 C.ar    1  LIG1       -0.0346
     24 C          -1.7049    8.0139   -0.1212 C.ar    1  LIG1       -0.0429
     25 C          -2.9954    7.7186   -0.4622 C.ar    1  LIG1        0.0270
     26 S          -3.2008    5.9984   -0.6054 S.2     1  LIG1       -0.0869
     27 C           0.5810    6.9892    0.4385 C.3     1  LIG1       -0.0386
     28 H           0.7273    7.8351    1.1148 H       1  LIG1        0.0278
     29 H           1.2277    7.1537   -0.4303 H       1  LIG1        0.0278
     30 H           0.9271    6.0839    0.9404 H       1  LIG1        0.0278
     31 H          -1.3498    9.0304   -0.0023 H       1  LIG1        0.0632
     32 C          -4.1045    8.6366   -0.6863 C.ar    1  LIG1        0.0288
     33 C          -4.4242    9.7754    0.0128 C.ar    1  LIG1       -0.0352
     34 C          -5.5895   10.4132   -0.5153 C.ar    1  LIG1       -0.0512
     35 C          -6.1313    9.7649   -1.5788 C.ar    1  LIG1       -0.0235
     36 S          -5.2316    8.3566   -1.9866 S.2     1  LIG1       -0.0959
     37 H          -7.0107   10.0332   -2.1462 H       1  LIG1        0.0693
     38 C          -3.6825   10.3010    1.2065 C.3     1  LIG1       -0.0386
     39 H          -4.3742   10.7622    1.9161 H       1  LIG1        0.0278
     40 H          -2.9523   11.0669    0.9225 H       1  LIG1        0.0278
     41 H          -3.1417    9.5052    1.7220 H       1  LIG1        0.0278
     42 H          -6.0063   11.3208   -0.0942 H       1  LIG1        0.0626
@<TRIPOS>BOND
     1    37    35    1
     2    36    35   ar
     3    36    32   ar
     4    19    17    1
     5    35    34   ar
     6    11     3    1
     7     9     7    1
     8    21    14    1
     9    17    18    1
    10    17    13    1
    11    17    20    1
    12    32    25    1
    13    32    33   ar
    14    26    25   ar
    15    26    22   ar
    16    14    13   ar
    17    14    15   ar
    18    34    42    1
    19    34    33   ar
    20    25    24   ar
    21    29    27    1
    22    13    12   ar
    23     8     7    1
    24    22    15    1
    25    22    23   ar
    26     3     2   ar
    27     3     4   ar
    28    15    16   ar
    29     7     2    1
    30     7    10    1
    31    24    31    1
    32    24    23   ar
    33    33    38    1
    34    23    27    1
    35    12    16   ar
    36    12     4    1
    37    27    30    1
    38    27    28    1
    39     2     1   ar
    40     4     5   ar
    41    40    38    1
    42    38    41    1
    43    38    39    1
    44     1     5   ar
    45     1     6    1
