@<TRIPOS>MOLECULE
mol_data/opt/cam/geoms/mol2/5ia5ia-5ia5ia-.out
 42 45 0 0 0
SMALL
GASTEIGER

@<TRIPOS>ATOM
      1 C          -1.4694   -1.6731    1.6479 C.ar    1  LIG1       -0.0208
      2 C          -0.8427   -1.8700    0.4548 C.ar    1  LIG1       -0.0428
      3 C          -0.5135   -0.6293   -0.1746 C.ar    1  LIG1       -0.0435
      4 C          -0.8840    0.4745    0.5422 C.ar    1  LIG1        0.0264
      5 S          -1.6536   -0.0022    2.0312 S.2     1  LIG1       -0.0959
      6 H          -1.8372   -2.4277    2.3290 H       1  LIG1        0.0696
      7 C          -0.5433   -3.2125   -0.1443 C.3     1  LIG1       -0.0392
      8 H           0.5322   -3.3497   -0.2930 H       1  LIG1        0.0278
      9 H          -1.0229   -3.3259   -1.1213 H       1  LIG1        0.0278
     10 H          -0.8980   -4.0206    0.4985 H       1  LIG1        0.0278
     11 H          -0.0445   -0.5628   -1.1489 H       1  LIG1        0.0632
     12 C          -0.6991    1.8786    0.1987 C.ar    1  LIG1        0.0294
     13 C           0.3908    2.4787   -0.3838 C.ar    1  LIG1       -0.0346
     14 C           0.1886    3.8762   -0.5792 C.ar    1  LIG1       -0.0429
     15 C          -1.0222    4.3394   -0.1443 C.ar    1  LIG1        0.0270
     16 S          -1.9619    3.0350    0.5184 S.2     1  LIG1       -0.0869
     17 C           1.6621    1.7829   -0.7726 C.3     1  LIG1       -0.0386
     18 H           2.5224    2.4393   -0.6181 H       1  LIG1        0.0278
     19 H           1.6582    1.4978   -1.8303 H       1  LIG1        0.0278
     20 H           1.8129    0.8742   -0.1871 H       1  LIG1        0.0278
     21 H           0.9244    4.5153   -1.0522 H       1  LIG1        0.0632
     22 C          -1.5361    5.7014   -0.1827 C.ar    1  LIG1        0.0294
     23 C          -0.8606    6.8762    0.0451 C.ar    1  LIG1       -0.0346
     24 C          -1.7069    8.0140   -0.1012 C.ar    1  LIG1       -0.0429
     25 C          -3.0033    7.7187   -0.4192 C.ar    1  LIG1        0.0270
     26 S          -3.2112    5.9985   -0.5592 S.2     1  LIG1       -0.0869
     27 C           0.5885    6.9891    0.4175 C.3     1  LIG1       -0.0386
     28 H           0.7469    7.8349    1.0914 H       1  LIG1        0.0278
     29 H           1.2197    7.1538   -0.4626 H       1  LIG1        0.0278
     30 H           0.9436    6.0836    0.9130 H       1  LIG1        0.0278
     31 H          -1.3498    9.0304    0.0117 H       1  LIG1        0.0632
     32 C          -4.1162    8.6368   -0.6234 C.ar    1  LIG1        0.0288
     33 C          -4.4234    9.7754    0.0816 C.ar    1  LIG1       -0.0352
     34 C          -5.5979   10.4133   -0.4255 C.ar    1  LIG1       -0.0512
     35 C          -6.1585    9.7652   -1.4793 C.ar    1  LIG1       -0.0235
     36 S          -5.2663    8.3570   -1.9034 S.2     1  LIG1       -0.0959
     37 H          -7.0479   10.0337   -2.0310 H       1  LIG1        0.0693
     38 C          -3.6605   10.3008    1.2621 C.3     1  LIG1       -0.0386
     39 H          -4.3396   10.7617    1.9839 H       1  LIG1        0.0278
     40 H          -2.9355   11.0667    0.9653 H       1  LIG1        0.0278
     41 H          -3.1107    9.5048    1.7676 H       1  LIG1        0.0278
     42 H          -6.0071   11.3208    0.0032 H       1  LIG1        0.0626
@<TRIPOS>BOND
     1    37    35    1
     2    36    35   ar
     3    36    32   ar
     4    19    17    1
     5    35    34   ar
     6    11     3    1
     7     9     7    1
     8    21    14    1
     9    17    18    1
    10    17    13    1
    11    17    20    1
    12    32    25    1
    13    32    33   ar
    14    14    13   ar
    15    14    15   ar
    16    26    25   ar
    17    26    22   ar
    18    29    27    1
    19    34    42    1
    20    34    33   ar
    21    25    24   ar
    22    13    12   ar
    23     8     7    1
    24    22    15    1
    25    22    23   ar
    26     3     2   ar
    27     3     4   ar
    28    15    16   ar
    29     7     2    1
    30     7    10    1
    31    24    31    1
    32    24    23   ar
    33    23    27    1
    34    33    38    1
    35    12    16   ar
    36    12     4    1
    37    27    30    1
    38    27    28    1
    39     2     1   ar
    40     4     5   ar
    41    40    38    1
    42    38    41    1
    43    38    39    1
    44     1     5   ar
    45     1     6    1
