@<TRIPOS>MOLECULE
mol_data/opt/cam/geoms/mol2/5ia5ia-5ia-5ia-.out
 42 45 0 0 0
SMALL
GASTEIGER

@<TRIPOS>ATOM
      1 C          -1.4831   -1.6747    1.6391 C.ar    1  LIG1       -0.0208
      2 C          -0.8466   -1.8704    0.4510 C.ar    1  LIG1       -0.0428
      3 C          -0.5122   -0.6292   -0.1745 C.ar    1  LIG1       -0.0435
      4 C          -0.8886    0.4739    0.5403 C.ar    1  LIG1        0.0264
      5 S          -1.6704   -0.0042    2.0225 S.2     1  LIG1       -0.0959
      6 H          -1.8566   -2.4299    2.3164 H       1  LIG1        0.0696
      7 C          -0.5423   -3.2124   -0.1469 C.3     1  LIG1       -0.0392
      8 H           0.5344   -3.3495   -0.2869 H       1  LIG1        0.0278
      9 H          -1.0139   -3.3248   -1.1280 H       1  LIG1        0.0278
     10 H          -0.9023   -4.0211    0.4922 H       1  LIG1        0.0278
     11 H          -0.0352   -0.5618   -1.1448 H       1  LIG1        0.0632
     12 C          -0.7008    1.8784    0.1997 C.ar    1  LIG1        0.0294
     13 C           0.3939    2.4790   -0.3731 C.ar    1  LIG1       -0.0346
     14 C           0.1934    3.8767   -0.5689 C.ar    1  LIG1       -0.0429
     15 C          -1.0210    4.3396   -0.1435 C.ar    1  LIG1        0.0270
     16 S          -1.9661    3.0345    0.5102 S.2     1  LIG1       -0.0869
     17 C           1.6683    1.7835   -0.7522 C.3     1  LIG1       -0.0386
     18 H           2.5273    2.4397   -0.5900 H       1  LIG1        0.0278
     19 H           1.6731    1.4995   -1.8102 H       1  LIG1        0.0278
     20 H           1.8142    0.8743   -0.1663 H       1  LIG1        0.0278
     21 H           0.9330    4.5162   -1.0352 H       1  LIG1        0.0632
     22 C          -1.5345    5.7016   -0.1848 C.ar    1  LIG1        0.0294
     23 C          -0.8609    6.8762    0.0498 C.ar    1  LIG1       -0.0346
     24 C          -1.7059    8.0141   -0.1024 C.ar    1  LIG1       -0.0429
     25 C          -2.9996    7.7192   -0.4313 C.ar    1  LIG1        0.0270
     26 S          -3.2064    5.9991   -0.5747 S.2     1  LIG1       -0.0869
     27 C           0.5852    6.9886    0.4342 C.3     1  LIG1       -0.0386
     28 H           0.7381    7.8337    1.1101 H       1  LIG1        0.0278
     29 H           1.2236    7.1541   -0.4406 H       1  LIG1        0.0278
     30 H           0.9361    6.0826    0.9317 H       1  LIG1        0.0278
     31 H          -1.3497    9.0304    0.0144 H       1  LIG1        0.0632
     32 C          -4.1108    8.6375   -0.6437 C.ar    1  LIG1        0.0288
     33 C          -4.4237    9.7755    0.0598 C.ar    1  LIG1       -0.0352
     34 C          -5.5940   10.4139   -0.4563 C.ar    1  LIG1       -0.0512
     35 C          -6.1460    9.7669   -1.5153 C.ar    1  LIG1       -0.0235
     36 S          -5.2503    8.3591   -1.9334 S.2     1  LIG1       -0.0959
     37 H          -7.0307   10.0359   -2.0740 H       1  LIG1        0.0693
     38 C          -3.6706   10.2996    1.2470 C.3     1  LIG1       -0.0386
     39 H          -4.3555   10.7599    1.9638 H       1  LIG1        0.0278
     40 H          -2.9431   11.0658    0.9570 H       1  LIG1        0.0278
     41 H          -3.1249    9.5032    1.7563 H       1  LIG1        0.0278
     42 H          -6.0067   11.3210   -0.0301 H       1  LIG1        0.0626
@<TRIPOS>BOND
     1    37    35    1
     2    36    35   ar
     3    36    32   ar
     4    19    17    1
     5    35    34   ar
     6    11     3    1
     7     9     7    1
     8    21    14    1
     9    17    18    1
    10    17    13    1
    11    17    20    1
    12    32    25    1
    13    32    33   ar
    14    26    25   ar
    15    26    22   ar
    16    14    13   ar
    17    14    15   ar
    18    34    42    1
    19    34    33   ar
    20    29    27    1
    21    25    24   ar
    22    13    12   ar
    23     8     7    1
    24    22    15    1
    25    22    23   ar
    26     3     2   ar
    27     3     4   ar
    28     7     2    1
    29     7    10    1
    30    15    16   ar
    31    24    31    1
    32    24    23   ar
    33    23    27    1
    34    33    38    1
    35    12    16   ar
    36    12     4    1
    37    27    30    1
    38    27    28    1
    39     2     1   ar
    40     4     5   ar
    41    40    38    1
    42    38    41    1
    43    38    39    1
    44     1     5   ar
    45     1     6    1
