@<TRIPOS>MOLECULE
mol_data/opt/cam/geoms/mol2/5id.out
 13 13 0 0 0
SMALL
GASTEIGER

@<TRIPOS>ATOM
      1 C          -2.1279   -1.6601    0.0860 C.ar    1  LIG1       -0.0202
      2 C          -0.7699   -1.6687    0.0232 C.ar    1  LIG1       -0.0261
      3 C          -0.2542   -0.3248   -0.0365 C.ar    1  LIG1        0.0617
      4 C          -1.2293    0.6341   -0.0166 C.ar    1  LIG1       -0.0067
      5 S          -2.7885   -0.0648    0.0736 S.2     1  LIG1       -0.1035
      6 H          -2.7852   -2.5162    0.1393 H       1  LIG1        0.0696
      7 H          -1.0951    1.7052   -0.0511 H       1  LIG1        0.0706
      8 C           0.0974   -2.8901    0.0155 C.3     1  LIG1       -0.0380
      9 H           0.7871   -2.8879    0.8644 H       1  LIG1        0.0278
     10 H           0.7054   -2.9349   -0.8925 H       1  LIG1        0.0278
     11 H          -0.5055   -3.7979    0.0678 H       1  LIG1        0.0278
     12 N           2.2748    0.1960   -0.1672 N.1     1  LIG1       -0.1908
     13 C           1.1405   -0.0250   -0.1090 C.1     1  LIG1        0.0999
@<TRIPOS>BOND
     1    10     8    1
     2    12    13    3
     3    13     3    1
     4     7     4    1
     5     3     4   ar
     6     3     2   ar
     7     4     5   ar
     8     8     2    1
     9     8    11    1
    10     8     9    1
    11     2     1   ar
    12     5     1   ar
    13     1     6    1
