@<TRIPOS>MOLECULE
mol_data/opt/cam/geoms/mol2/5id5id5id-5id-.out
 46 49 0 0 0
SMALL
GASTEIGER

@<TRIPOS>ATOM
      1 C          -1.2096   -1.4958    2.1160 C.ar    1  LIG1       -0.0196
      2 C          -0.8774   -1.7809    0.8292 C.ar    1  LIG1       -0.0255
      3 C          -0.5955   -0.5770    0.0949 C.ar    1  LIG1        0.0699
      4 C          -0.7088    0.5761    0.8401 C.ar    1  LIG1        0.0438
      5 S          -1.1717    0.1922    2.4618 S.2     1  LIG1       -0.0945
      6 H          -1.4774   -2.1986    2.8923 H       1  LIG1        0.0696
      7 C          -0.8189   -3.1503    0.2252 C.3     1  LIG1       -0.0380
      8 H           0.1864   -3.3754   -0.1421 H       1  LIG1        0.0278
      9 H          -1.4994   -3.2336   -0.6268 H       1  LIG1        0.0278
     10 H          -1.0930   -3.9112    0.9573 H       1  LIG1        0.0278
     11 N          -0.0198   -0.6062   -2.4240 N.1     1  LIG1       -0.1908
     12 C          -0.2788   -0.5828   -1.2963 C.1     1  LIG1        0.1006
     13 C          -0.5015    1.9549    0.4117 C.ar    1  LIG1        0.0319
     14 C           0.5799    2.4933   -0.2354 C.ar    1  LIG1       -0.0172
     15 C           0.3825    3.8916   -0.4947 C.ar    1  LIG1        0.0705
     16 C          -0.8125    4.3958   -0.0317 C.ar    1  LIG1        0.0444
     17 S          -1.7338    3.1466    0.7222 S.2     1  LIG1       -0.0856
     18 C           1.8284    1.7668   -0.6293 C.3     1  LIG1       -0.0374
     19 H           2.7006    2.4139   -0.5148 H       1  LIG1        0.0278
     20 H           1.7825    1.4481   -1.6745 H       1  LIG1        0.0278
     21 H           1.9732    0.8748   -0.0183 H       1  LIG1        0.0278
     22 N           2.1262    5.3147   -1.7645 N.1     1  LIG1       -0.1908
     23 C           1.3388    4.6819   -1.2002 C.1     1  LIG1        0.1006
     24 C          -1.3194    5.7600   -0.1280 C.ar    1  LIG1        0.0319
     25 C          -0.7019    6.9267    0.2402 C.ar    1  LIG1       -0.0172
     26 C          -1.5377    8.0612   -0.0359 C.ar    1  LIG1        0.0705
     27 C          -2.7643    7.7495   -0.5789 C.ar    1  LIG1        0.0444
     28 S          -2.9112    6.0420   -0.7781 S.2     1  LIG1       -0.0856
     29 C           0.6531    7.0557    0.8636 C.3     1  LIG1       -0.0374
     30 H           0.6578    7.8566    1.6061 H       1  LIG1        0.0278
     31 H           1.4092    7.2931    0.1099 H       1  LIG1        0.0278
     32 H           0.9530    6.1269    1.3508 H       1  LIG1        0.0278
     33 N          -0.7583   10.4818    0.4234 N.1     1  LIG1       -0.1908
     34 C          -1.1126    9.4013    0.2094 C.1     1  LIG1        0.1006
     35 C          -3.8402    8.6531   -0.9700 C.ar    1  LIG1        0.0313
     36 C          -4.4353    9.6401   -0.2272 C.ar    1  LIG1       -0.0178
     37 C          -5.4593   10.3041   -0.9871 C.ar    1  LIG1        0.0623
     38 C          -5.6161    9.8107   -2.2525 C.ar    1  LIG1       -0.0061
     39 S          -4.5266    8.5367   -2.5697 S.2     1  LIG1       -0.0945
     40 H          -6.3200   10.1436   -3.0011 H       1  LIG1        0.0706
     41 C          -4.1219    9.9958    1.1929 C.3     1  LIG1       -0.0374
     42 H          -5.0332   10.2739    1.7268 H       1  LIG1        0.0278
     43 H          -3.4336   10.8444    1.2404 H       1  LIG1        0.0278
     44 H          -3.6528    9.1610    1.7156 H       1  LIG1        0.0278
     45 N          -6.9032   12.2163   -0.0157 N.1     1  LIG1       -0.1908
     46 C          -6.2582   11.3646   -0.4595 C.1     1  LIG1        0.1000
@<TRIPOS>BOND
     1    40    38    1
     2    39    38   ar
     3    39    35   ar
     4    11    12    3
     5    38    37   ar
     6    22    23    3
     7    20    18    1
     8    12     3    1
     9    23    15    1
    10    37    46    1
    11    37    36   ar
    12    35    27    1
    13    35    36   ar
    14    28    27   ar
    15    28    24   ar
    16    18    19    1
    17    18    14    1
    18    18    21    1
    19     9     7    1
    20    27    26   ar
    21    15    14   ar
    22    15    16   ar
    23    46    45    3
    24    14    13   ar
    25    36    41    1
    26     8     7    1
    27    24    16    1
    28    24    25   ar
    29    26    34    1
    30    26    25   ar
    31    16    17   ar
    32     3     2   ar
    33     3     4   ar
    34    31    29    1
    35    34    33    3
    36     7     2    1
    37     7    10    1
    38    25    29    1
    39    13    17   ar
    40    13     4    1
    41     2     1   ar
    42     4     5   ar
    43    29    32    1
    44    29    30    1
    45    41    43    1
    46    41    44    1
    47    41    42    1
    48     1     5   ar
    49     1     6    1
