@<TRIPOS>MOLECULE
mol_data/opt/cam/geoms/mol2/5id5id5id5id.out
 46 49 0 0 0
SMALL
GASTEIGER

@<TRIPOS>ATOM
      1 C          -1.2148   -1.4997    2.1145 C.ar    1  LIG1       -0.0196
      2 C          -0.8724   -1.7816    0.8296 C.ar    1  LIG1       -0.0255
      3 C          -0.5869   -0.5757    0.1000 C.ar    1  LIG1        0.0699
      4 C          -0.7079    0.5757    0.8467 C.ar    1  LIG1        0.0438
      5 S          -1.1823    0.1876    2.4641 S.2     1  LIG1       -0.0945
      6 H          -1.4873   -2.2045    2.8872 H       1  LIG1        0.0696
      7 C          -0.8072   -3.1496    0.2232 C.3     1  LIG1       -0.0380
      8 H           0.2008   -3.3717   -0.1384 H       1  LIG1        0.0278
      9 H          -1.4822   -3.2327   -0.6332 H       1  LIG1        0.0278
     10 H          -1.0841   -3.9126    0.9521 H       1  LIG1        0.0278
     11 N           0.0083   -0.5982   -2.4144 N.1     1  LIG1       -0.1908
     12 C          -0.2594   -0.5778   -1.2887 C.1     1  LIG1        0.1006
     13 C          -0.4998    1.9558    0.4227 C.ar    1  LIG1        0.0319
     14 C           0.5854    2.4973   -0.2154 C.ar    1  LIG1       -0.0172
     15 C           0.3874    3.8957   -0.4734 C.ar    1  LIG1        0.0705
     16 C          -0.8120    4.3969   -0.0186 C.ar    1  LIG1        0.0444
     17 S          -1.7367    3.1445    0.7260 S.2     1  LIG1       -0.0856
     18 C           1.8381    1.7738   -0.6013 C.3     1  LIG1       -0.0374
     19 H           2.7085    2.4217   -0.4773 H       1  LIG1        0.0278
     20 H           1.8013    1.4587   -1.6480 H       1  LIG1        0.0278
     21 H           1.9789    0.8799    0.0079 H       1  LIG1        0.0278
     22 N           2.1380    5.3246   -1.7272 N.1     1  LIG1       -0.1908
     23 C           1.3475    4.6892   -1.1701 C.1     1  LIG1        0.1006
     24 C          -1.3206    5.7603   -0.1162 C.ar    1  LIG1        0.0319
     25 C          -0.7080    6.9275    0.2584 C.ar    1  LIG1       -0.0172
     26 C          -1.5437    8.0609   -0.0220 C.ar    1  LIG1        0.0705
     27 C          -2.7656    7.7480   -0.5750 C.ar    1  LIG1        0.0444
     28 S          -2.9079    6.0405   -0.7782 S.2     1  LIG1       -0.0856
     29 C           0.6420    7.0579    0.8923 C.3     1  LIG1       -0.0374
     30 H           0.6391    7.8564    1.6375 H       1  LIG1        0.0278
     31 H           1.4030    7.2997    0.1450 H       1  LIG1        0.0278
     32 H           0.9406    6.1283    1.3788 H       1  LIG1        0.0278
     33 N          -0.7723   10.4823    0.4472 N.1     1  LIG1       -0.1908
     34 C          -1.1230    9.4014    0.2287 C.1     1  LIG1        0.1006
     35 C          -3.8400    8.6504   -0.9729 C.ar    1  LIG1        0.0313
     36 C          -4.4425    9.6353   -0.2331 C.ar    1  LIG1       -0.0178
     37 C          -5.4617   10.2988   -0.9999 C.ar    1  LIG1        0.0623
     38 C          -5.6077    9.8072   -2.2673 C.ar    1  LIG1       -0.0061
     39 S          -4.5138    8.5354   -2.5781 S.2     1  LIG1       -0.0945
     40 H          -6.3064   10.1401   -3.0209 H       1  LIG1        0.0706
     41 C          -4.1408    9.9892    1.1899 C.3     1  LIG1       -0.0374
     42 H          -5.0569   10.2636    1.7175 H       1  LIG1        0.0278
     43 H          -3.4553   10.8397    1.2442 H       1  LIG1        0.0278
     44 H          -3.6732    9.1547    1.7145 H       1  LIG1        0.0278
     45 N          -6.9163   12.2069   -0.0367 N.1     1  LIG1       -0.1908
     46 C          -6.2665   11.3570   -0.4768 C.1     1  LIG1        0.1000
@<TRIPOS>BOND
     1    40    38    1
     2    39    38   ar
     3    39    35   ar
     4    11    12    3
     5    38    37   ar
     6    22    23    3
     7    20    18    1
     8    12     3    1
     9    23    15    1
    10    37    46    1
    11    37    36   ar
    12    35    27    1
    13    35    36   ar
    14    28    27   ar
    15    28    24   ar
    16     9     7    1
    17    18    19    1
    18    18    14    1
    19    18    21    1
    20    27    26   ar
    21    46    45    3
    22    15    14   ar
    23    15    16   ar
    24    36    41    1
    25    14    13   ar
    26     8     7    1
    27    24    16    1
    28    24    25   ar
    29    26    34    1
    30    26    25   ar
    31    16    17   ar
    32     3     2   ar
    33     3     4   ar
    34    31    29    1
    35     7     2    1
    36     7    10    1
    37    34    33    3
    38    25    29    1
    39    13    17   ar
    40    13     4    1
    41     2     1   ar
    42     4     5   ar
    43    29    32    1
    44    29    30    1
    45    41    43    1
    46    41    44    1
    47    41    42    1
    48     1     5   ar
    49     1     6    1
