@<TRIPOS>MOLECULE
mol_data/opt/cam/geoms/mol2/5id5id-5id-.out
 35 37 0 0 0
SMALL
GASTEIGER

@<TRIPOS>ATOM
      1 C          -1.6414   -1.6810    1.4403 C.ar    1  LIG1       -0.0196
      2 C          -0.8237   -1.8701    0.3713 C.ar    1  LIG1       -0.0255
      3 C          -0.3963   -0.6103   -0.1755 C.ar    1  LIG1        0.0699
      4 C          -0.8871    0.4892    0.4941 C.ar    1  LIG1        0.0438
      5 S          -1.8906   -0.0159    1.8094 S.2     1  LIG1       -0.0945
      6 H          -2.1174   -2.4430    2.0410 H       1  LIG1        0.0696
      7 C          -0.4178   -3.1964   -0.1940 C.3     1  LIG1       -0.0380
      8 H           0.6681   -3.3222   -0.1615 H       1  LIG1        0.0278
      9 H          -0.7214   -3.2870   -1.2407 H       1  LIG1        0.0278
     10 H          -0.8731   -4.0145    0.3661 H       1  LIG1        0.0278
     11 N           1.0867   -0.4628   -2.2863 N.1     1  LIG1       -0.1908
     12 C           0.4208   -0.5178   -1.3413 C.1     1  LIG1        0.1006
     13 C          -0.6603    1.9010    0.2067 C.ar    1  LIG1        0.0319
     14 C           0.5311    2.5542    0.0293 C.ar    1  LIG1       -0.0172
     15 C           0.3195    3.9461   -0.2539 C.ar    1  LIG1        0.0705
     16 C          -1.0021    4.3329   -0.2662 C.ar    1  LIG1        0.0444
     17 S          -2.0214    2.9781    0.0552 S.2     1  LIG1       -0.0856
     18 C           1.8967    1.9473    0.1218 C.3     1  LIG1       -0.0374
     19 H           2.5990    2.6513    0.5731 H       1  LIG1        0.0278
     20 H           2.2764    1.6845   -0.8696 H       1  LIG1        0.0278
     21 H           1.8819    1.0363    0.7218 H       1  LIG1        0.0278
     22 N           2.2785    5.5612   -0.7357 N.1     1  LIG1       -0.1908
     23 C           1.3955    4.8431   -0.5265 C.1     1  LIG1        0.1006
     24 C          -1.5578    5.6588   -0.5118 C.ar    1  LIG1        0.0313
     25 C          -1.2316    6.8445    0.0946 C.ar    1  LIG1       -0.0178
     26 C          -2.0170    7.9243   -0.4388 C.ar    1  LIG1        0.0623
     27 C          -2.9025    7.5381   -1.4063 C.ar    1  LIG1       -0.0061
     28 S          -2.8087    5.8620   -1.7109 S.2     1  LIG1       -0.0945
     29 H          -3.5963    8.1665   -1.9454 H       1  LIG1        0.0706
     30 C          -0.2276    7.0366    1.1883 C.3     1  LIG1       -0.0374
     31 H          -0.5721    7.7954    1.8942 H       1  LIG1        0.0278
     32 H           0.7331    7.3671    0.7833 H       1  LIG1        0.0278
     33 H          -0.0538    6.1072    1.7327 H       1  LIG1        0.0278
     34 N          -1.8042   10.3589    0.4049 N.1     1  LIG1       -0.1908
     35 C          -1.9020    9.2729    0.0186 C.1     1  LIG1        0.1000
@<TRIPOS>BOND
     1    11    12    3
     2    29    27    1
     3    28    27   ar
     4    28    24   ar
     5    27    26   ar
     6    12     3    1
     7     9     7    1
     8    20    18    1
     9    22    23    3
    10    23    15    1
    11    24    16    1
    12    24    25   ar
    13    26    35    1
    14    26    25   ar
    15    16    15   ar
    16    16    17   ar
    17    15    14   ar
    18     7     8    1
    19     7    10    1
    20     7     2    1
    21     3     2   ar
    22     3     4   ar
    23    35    34    3
    24    14    18    1
    25    14    13   ar
    26    17    13   ar
    27    25    30    1
    28    18    19    1
    29    18    21    1
    30    13     4    1
    31     2     1   ar
    32     4     5   ar
    33    32    30    1
    34    30    33    1
    35    30    31    1
    36     1     5   ar
    37     1     6    1
