@<TRIPOS>MOLECULE
mol_data/opt/cam/geoms/mol2/5id5id-5id5id-.out
 46 49 0 0 0
SMALL
GASTEIGER

@<TRIPOS>ATOM
      1 C          -1.2090   -1.5014    2.1204 C.ar    1  LIG1       -0.0196
      2 C          -0.8760   -1.7830    0.8330 C.ar    1  LIG1       -0.0255
      3 C          -0.5941   -0.5770    0.1020 C.ar    1  LIG1        0.0699
      4 C          -0.7082    0.5740    0.8504 C.ar    1  LIG1        0.0438
      5 S          -1.1719    0.1856    2.4707 S.2     1  LIG1       -0.0945
      6 H          -1.4770   -2.2064    2.8945 H       1  LIG1        0.0696
      7 C          -0.8167   -3.1507    0.2254 C.3     1  LIG1       -0.0380
      8 H           0.1889   -3.3745   -0.1420 H       1  LIG1        0.0278
      9 H          -1.4966   -3.2320   -0.6273 H       1  LIG1        0.0278
     10 H          -1.0910   -3.9137    0.9552 H       1  LIG1        0.0278
     11 N          -0.0169   -0.5993   -2.4166 N.1     1  LIG1       -0.1908
     12 C          -0.2765   -0.5789   -1.2889 C.1     1  LIG1        0.1006
     13 C          -0.5011    1.9541    0.4258 C.ar    1  LIG1        0.0319
     14 C           0.5805    2.4946   -0.2192 C.ar    1  LIG1       -0.0172
     15 C           0.3828    3.8935   -0.4748 C.ar    1  LIG1        0.0705
     16 C          -0.8127    4.3961   -0.0112 C.ar    1  LIG1        0.0444
     17 S          -1.7339    3.1445    0.7388 S.2     1  LIG1       -0.0856
     18 C           1.8295    1.7696   -0.6144 C.3     1  LIG1       -0.0374
     19 H           2.7014    2.4167   -0.4977 H       1  LIG1        0.0278
     20 H           1.7843    1.4536   -1.6604 H       1  LIG1        0.0278
     21 H           1.9742    0.8760   -0.0056 H       1  LIG1        0.0278
     22 N           2.1268    5.3207   -1.7397 N.1     1  LIG1       -0.1908
     23 C           1.3393    4.6860   -1.1776 C.1     1  LIG1        0.1006
     24 C          -1.3199    5.7604   -0.1041 C.ar    1  LIG1        0.0319
     25 C          -0.7030    6.9263    0.2676 C.ar    1  LIG1       -0.0172
     26 C          -1.5390    8.0612   -0.0059 C.ar    1  LIG1        0.0705
     27 C          -2.7652    7.7506   -0.5506 C.ar    1  LIG1        0.0444
     28 S          -2.9114    6.0436   -0.7544 S.2     1  LIG1       -0.0856
     29 C           0.6516    7.0541    0.8922 C.3     1  LIG1       -0.0374
     30 H           0.6555    7.8528    1.6370 H       1  LIG1        0.0278
     31 H           1.4080    7.2940    0.1396 H       1  LIG1        0.0278
     32 H           0.9515    6.1239    1.3769 H       1  LIG1        0.0278
     33 N          -0.7606   10.4809    0.4603 N.1     1  LIG1       -0.1908
     34 C          -1.1144    9.4008    0.2432 C.1     1  LIG1        0.1006
     35 C          -3.8411    8.6549   -0.9399 C.ar    1  LIG1        0.0313
     36 C          -4.4370    9.6398   -0.1947 C.ar    1  LIG1       -0.0178
     37 C          -5.4608   10.3055   -0.9535 C.ar    1  LIG1        0.0623
     38 C          -5.6166    9.8153   -2.2203 C.ar    1  LIG1       -0.0061
     39 S          -4.5265    8.5425   -2.5403 S.2     1  LIG1       -0.0945
     40 H          -6.3202   10.1500   -2.9685 H       1  LIG1        0.0706
     41 C          -4.1246    9.9918    1.2265 C.3     1  LIG1       -0.0374
     42 H          -5.0362   10.2682    1.7605 H       1  LIG1        0.0278
     43 H          -3.4365   10.8404    1.2767 H       1  LIG1        0.0278
     44 H          -3.6555    9.1556    1.7472 H       1  LIG1        0.0278
     45 N          -6.9058   12.2145    0.0222 N.1     1  LIG1       -0.1908
     46 C          -6.2603   11.3643   -0.4235 C.1     1  LIG1        0.1000
@<TRIPOS>BOND
     1    40    38    1
     2    39    38   ar
     3    39    35   ar
     4    11    12    3
     5    38    37   ar
     6    22    23    3
     7    20    18    1
     8    12     3    1
     9    23    15    1
    10    37    46    1
    11    37    36   ar
    12    35    27    1
    13    35    36   ar
    14    28    27   ar
    15    28    24   ar
    16     9     7    1
    17    18    19    1
    18    18    14    1
    19    18    21    1
    20    27    26   ar
    21    15    14   ar
    22    15    16   ar
    23    46    45    3
    24    14    13   ar
    25    36    41    1
    26     8     7    1
    27    24    16    1
    28    24    25   ar
    29    16    17   ar
    30    26    34    1
    31    26    25   ar
    32     3     2   ar
    33     3     4   ar
    34    31    29    1
    35     7     2    1
    36     7    10    1
    37    34    33    3
    38    25    29    1
    39    13    17   ar
    40    13     4    1
    41     2     1   ar
    42     4     5   ar
    43    29    32    1
    44    29    30    1
    45    41    43    1
    46    41    44    1
    47    41    42    1
    48     1     5   ar
    49     1     6    1
