@<TRIPOS>MOLECULE
mol_data/opt/cam/geoms/mol2/5id5id5id.out
 35 37 0 0 0
SMALL
GASTEIGER

@<TRIPOS>ATOM
      1 C          -1.6543   -1.6717    1.4485 C.ar    1  LIG1       -0.0196
      2 C          -0.8360   -1.8675    0.3810 C.ar    1  LIG1       -0.0255
      3 C          -0.4050   -0.6112   -0.1707 C.ar    1  LIG1        0.0699
      4 C          -0.8936    0.4924    0.4936 C.ar    1  LIG1        0.0438
      5 S          -1.8996   -0.0045    1.8101 S.2     1  LIG1       -0.0945
      6 H          -2.1327   -2.4300    2.0520 H       1  LIG1        0.0696
      7 C          -0.4330   -3.1973   -0.1781 C.3     1  LIG1       -0.0380
      8 H           0.6526   -3.3258   -0.1439 H       1  LIG1        0.0278
      9 H          -0.7357   -3.2917   -1.2247 H       1  LIG1        0.0278
     10 H          -0.8909   -4.0118    0.3850 H       1  LIG1        0.0278
     11 N           1.0804   -0.4766   -2.2808 N.1     1  LIG1       -0.1908
     12 C           0.4134   -0.5258   -1.3362 C.1     1  LIG1        0.1006
     13 C          -0.6630    1.9024    0.2003 C.ar    1  LIG1        0.0319
     14 C           0.5302    2.5518    0.0212 C.ar    1  LIG1       -0.0172
     15 C           0.3224    3.9430   -0.2682 C.ar    1  LIG1        0.0705
     16 C          -0.9982    4.3331   -0.2834 C.ar    1  LIG1        0.0444
     17 S          -2.0212    2.9822    0.0430 S.2     1  LIG1       -0.0856
     18 C           1.8942    1.9418    0.1175 C.3     1  LIG1       -0.0374
     19 H           2.5979    2.6461    0.5665 H       1  LIG1        0.0278
     20 H           2.2741    1.6738   -0.8724 H       1  LIG1        0.0278
     21 H           1.8766    1.0335    0.7215 H       1  LIG1        0.0278
     22 N           2.2859    5.5511   -0.7552 N.1     1  LIG1       -0.1908
     23 C           1.4009    4.8361   -0.5436 C.1     1  LIG1        0.1006
     24 C          -1.5504    5.6592   -0.5352 C.ar    1  LIG1        0.0313
     25 C          -1.2217    6.8468    0.0663 C.ar    1  LIG1       -0.0178
     26 C          -2.0039    7.9262   -0.4725 C.ar    1  LIG1        0.0623
     27 C          -2.8895    7.5381   -1.4391 C.ar    1  LIG1       -0.0061
     28 S          -2.7996    5.8604   -1.7363 S.2     1  LIG1       -0.0945
     29 H          -3.5812    8.1659   -1.9815 H       1  LIG1        0.0706
     30 C          -0.2182    7.0411    1.1601 C.3     1  LIG1       -0.0374
     31 H          -0.5615    7.8037    1.8625 H       1  LIG1        0.0278
     32 H           0.7437    7.3674    0.7546 H       1  LIG1        0.0278
     33 H          -0.0473    6.1136    1.7087 H       1  LIG1        0.0278
     34 N          -1.7857   10.3639    0.3610 N.1     1  LIG1       -0.1908
     35 C          -1.8859    9.2765   -0.0207 C.1     1  LIG1        0.1000
@<TRIPOS>BOND
     1    11    12    3
     2    29    27    1
     3    28    27   ar
     4    28    24   ar
     5    27    26   ar
     6    12     3    1
     7     9     7    1
     8    20    18    1
     9    22    23    3
    10    23    15    1
    11    24    16    1
    12    24    25   ar
    13    26    35    1
    14    26    25   ar
    15    16    15   ar
    16    16    17   ar
    17    15    14   ar
    18     7     8    1
    19     7     2    1
    20     7    10    1
    21     3     2   ar
    22     3     4   ar
    23    35    34    3
    24    14    18    1
    25    14    13   ar
    26    17    13   ar
    27    25    30    1
    28    18    19    1
    29    18    21    1
    30    13     4    1
    31     2     1   ar
    32     4     5   ar
    33    32    30    1
    34    30    33    1
    35    30    31    1
    36     1     5   ar
    37     1     6    1
