@<TRIPOS>MOLECULE
mol_data/opt/cam/geoms/mol2/5id5id-5id5id.out
 46 49 0 0 0
SMALL
GASTEIGER

@<TRIPOS>ATOM
      1 C          -1.1950   -1.5042    2.1155 C.ar    1  LIG1       -0.0196
      2 C          -0.8637   -1.7832    0.8271 C.ar    1  LIG1       -0.0255
      3 C          -0.5850   -0.5757    0.0975 C.ar    1  LIG1        0.0699
      4 C          -0.6998    0.5740    0.8478 C.ar    1  LIG1        0.0438
      5 S          -1.1601    0.1824    2.4683 S.2     1  LIG1       -0.0945
      6 H          -1.4605   -2.2107    2.8891 H       1  LIG1        0.0696
      7 C          -0.8031   -3.1499    0.2173 C.3     1  LIG1       -0.0380
      8 H           0.2022   -3.3714   -0.1522 H       1  LIG1        0.0278
      9 H          -1.4845   -3.2311   -0.6342 H       1  LIG1        0.0278
     10 H          -1.0747   -3.9145    0.9466 H       1  LIG1        0.0278
     11 N          -0.0120   -0.5932   -2.4221 N.1     1  LIG1       -0.1908
     12 C          -0.2698   -0.5750   -1.2940 C.1     1  LIG1        0.1006
     13 C          -0.4958    1.9551    0.4249 C.ar    1  LIG1        0.0319
     14 C           0.5839    2.4983   -0.2212 C.ar    1  LIG1       -0.0172
     15 C           0.3834    3.8973   -0.4744 C.ar    1  LIG1        0.0705
     16 C          -0.8122    4.3972   -0.0079 C.ar    1  LIG1        0.0444
     17 S          -1.7300    3.1429    0.7418 S.2     1  LIG1       -0.0856
     18 C           1.8334    1.7760   -0.6195 C.3     1  LIG1       -0.0374
     19 H           2.7045    2.4244   -0.5032 H       1  LIG1        0.0278
     20 H           1.7870    1.4617   -1.6660 H       1  LIG1        0.0278
     21 H           1.9806    0.8817   -0.0124 H       1  LIG1        0.0278
     22 N           2.1228    5.3292   -1.7402 N.1     1  LIG1       -0.1908
     23 C           1.3373    4.6925   -1.1776 C.1     1  LIG1        0.1006
     24 C          -1.3218    5.7607   -0.0979 C.ar    1  LIG1        0.0319
     25 C          -0.7063    6.9272    0.2744 C.ar    1  LIG1       -0.0172
     26 C          -1.5447    8.0611    0.0040 C.ar    1  LIG1        0.0705
     27 C          -2.7714    7.7491   -0.5389 C.ar    1  LIG1        0.0444
     28 S          -2.9150    6.0422   -0.7451 S.2     1  LIG1       -0.0856
     29 C           0.6492    7.0563    0.8968 C.3     1  LIG1       -0.0374
     30 H           0.6531    7.8541    1.6426 H       1  LIG1        0.0278
     31 H           1.4039    7.2983    0.1432 H       1  LIG1        0.0278
     32 H           0.9514    6.1261    1.3799 H       1  LIG1        0.0278
     33 N          -0.7697   10.4813    0.4726 N.1     1  LIG1       -0.1908
     34 C          -1.1220    9.4009    0.2544 C.1     1  LIG1        0.1006
     35 C          -3.8495    8.6522   -0.9250 C.ar    1  LIG1        0.0313
     36 C          -4.4458    9.6349   -0.1773 C.ar    1  LIG1       -0.0178
     37 C          -5.4720   10.3000   -0.9333 C.ar    1  LIG1        0.0623
     38 C          -5.6291    9.8115   -2.2006 C.ar    1  LIG1       -0.0061
     39 S          -4.5375    8.5411   -2.5244 S.2     1  LIG1       -0.0945
     40 H          -6.3346   10.1462   -2.9470 H       1  LIG1        0.0706
     41 C          -4.1314    9.9853    1.2439 C.3     1  LIG1       -0.0374
     42 H          -5.0427   10.2592    1.7800 H       1  LIG1        0.0278
     43 H          -3.4448   10.8351    1.2942 H       1  LIG1        0.0278
     44 H          -3.6600    9.1492    1.7625 H       1  LIG1        0.0278
     45 N          -6.9185   12.2052    0.0477 N.1     1  LIG1       -0.1908
     46 C          -6.2724   11.3567   -0.4003 C.1     1  LIG1        0.1000
@<TRIPOS>BOND
     1    40    38    1
     2    39    38   ar
     3    39    35   ar
     4    11    12    3
     5    38    37   ar
     6    22    23    3
     7    20    18    1
     8    12     3    1
     9    23    15    1
    10    37    46    1
    11    37    36   ar
    12    35    27    1
    13    35    36   ar
    14    28    27   ar
    15    28    24   ar
    16     9     7    1
    17    18    19    1
    18    18    14    1
    19    18    21    1
    20    27    26   ar
    21    15    14   ar
    22    15    16   ar
    23    46    45    3
    24    14    13   ar
    25    36    41    1
    26     8     7    1
    27    24    16    1
    28    24    25   ar
    29    16    17   ar
    30    26    34    1
    31    26    25   ar
    32     3     2   ar
    33     3     4   ar
    34    31    29    1
    35     7     2    1
    36     7    10    1
    37    34    33    3
    38    25    29    1
    39    13    17   ar
    40    13     4    1
    41     2     1   ar
    42     4     5   ar
    43    29    32    1
    44    29    30    1
    45    41    43    1
    46    41    44    1
    47    41    42    1
    48     1     5   ar
    49     1     6    1
