@<TRIPOS>MOLECULE
mol_data/opt/cam/geoms/mol2/5id5id-.out
 24 25 0 0 0
SMALL
GASTEIGER

@<TRIPOS>ATOM
      1 C          -1.9541   -1.7311    0.7831 C.ar    1  LIG1       -0.0196
      2 C          -0.7766   -1.8358    0.1128 C.ar    1  LIG1       -0.0255
      3 C          -0.2905   -0.5385   -0.2747 C.ar    1  LIG1        0.0699
      4 C          -1.0982    0.5058    0.1185 C.ar    1  LIG1        0.0438
      5 S          -2.4765   -0.0990    0.9712 S.2     1  LIG1       -0.0945
      6 H          -2.5513   -2.5380    1.1836 H       1  LIG1        0.0696
      7 C          -0.0651   -3.1142   -0.2082 C.3     1  LIG1       -0.0380
      8 H           0.9330   -3.1317    0.2387 H       1  LIG1        0.0278
      9 H           0.0636   -3.2323   -1.2878 H       1  LIG1        0.0278
     10 H          -0.6219   -3.9746    0.1660 H       1  LIG1        0.0278
     11 N           1.8664   -0.2460   -1.6671 N.1     1  LIG1       -0.1908
     12 C           0.8978   -0.3647   -1.0447 C.1     1  LIG1        0.1006
     13 C          -0.9090    1.9343   -0.1074 C.ar    1  LIG1        0.0313
     14 C           0.1958    2.7007    0.1603 C.ar    1  LIG1       -0.0178
     15 C          -0.0278    4.0706   -0.2155 C.ar    1  LIG1        0.0623
     16 C          -1.2691    4.3050   -0.7381 C.ar    1  LIG1       -0.0061
     17 S          -2.2017    2.8772   -0.8031 S.2     1  LIG1       -0.0945
     18 H          -1.6656    5.2489   -1.0823 H       1  LIG1        0.0706
     19 C           1.4718    2.2295    0.7858 C.3     1  LIG1       -0.0374
     20 H           1.8838    3.0000    1.4412 H       1  LIG1        0.0278
     21 H           2.2216    2.0027    0.0226 H       1  LIG1        0.0278
     22 H           1.3121    1.3226    1.3710 H       1  LIG1        0.0278
     23 N           1.7437    5.9229    0.1244 N.1     1  LIG1       -0.1908
     24 C           0.9476    5.0988   -0.0349 C.1     1  LIG1        0.1000
@<TRIPOS>BOND
     1    11    12    3
     2     9     7    1
     3    18    16    1
     4    12     3    1
     5    17    16   ar
     6    17    13   ar
     7    16    15   ar
     8     3     2   ar
     9     3     4   ar
    10    15    24    1
    11    15    14   ar
    12     7     2    1
    13     7    10    1
    14     7     8    1
    15    13     4    1
    16    13    14   ar
    17    24    23    3
    18    21    19    1
    19     2     1   ar
    20     4     5   ar
    21    14    19    1
    22     1     5   ar
    23     1     6    1
    24    19    22    1
    25    19    20    1
