@<TRIPOS>MOLECULE
mol_data/opt/cam/geoms/mol2/5id5id-5id.out
 35 37 0 0 0
SMALL
GASTEIGER

@<TRIPOS>ATOM
      1 C          -1.6421   -1.6748    1.4530 C.ar    1  LIG1       -0.0196
      2 C          -0.8235   -1.8684    0.3854 C.ar    1  LIG1       -0.0255
      3 C          -0.3958   -0.6110   -0.1664 C.ar    1  LIG1        0.0699
      4 C          -0.8873    0.4913    0.4980 C.ar    1  LIG1        0.0438
      5 S          -1.8917   -0.0082    1.8146 S.2     1  LIG1       -0.0945
      6 H          -2.1185   -2.4342    2.0566 H       1  LIG1        0.0696
      7 C          -0.4171   -3.1972   -0.1737 C.3     1  LIG1       -0.0380
      8 H           0.6689   -3.3228   -0.1398 H       1  LIG1        0.0278
      9 H          -0.7198   -3.2924   -1.2203 H       1  LIG1        0.0278
     10 H          -0.8727   -4.0129    0.3896 H       1  LIG1        0.0278
     11 N           1.0889   -0.4726   -2.2767 N.1     1  LIG1       -0.1908
     12 C           0.4222   -0.5235   -1.3320 C.1     1  LIG1        0.1006
     13 C          -0.6603    1.9019    0.2047 C.ar    1  LIG1        0.0319
     14 C           0.5312    2.5544    0.0253 C.ar    1  LIG1       -0.0172
     15 C           0.3197    3.9450   -0.2641 C.ar    1  LIG1        0.0705
     16 C          -1.0019    4.3317   -0.2792 C.ar    1  LIG1        0.0444
     17 S          -2.0214    2.9782    0.0474 S.2     1  LIG1       -0.0856
     18 C           1.8967    1.9480    0.1216 C.3     1  LIG1       -0.0374
     19 H           2.5986    2.6541    0.5705 H       1  LIG1        0.0278
     20 H           2.2773    1.6810   -0.8684 H       1  LIG1        0.0278
     21 H           1.8816    1.0396    0.7256 H       1  LIG1        0.0278
     22 N           2.2789    5.5582   -0.7513 N.1     1  LIG1       -0.1908
     23 C           1.3958    4.8410   -0.5396 C.1     1  LIG1        0.1006
     24 C          -1.5576    5.6564   -0.5309 C.ar    1  LIG1        0.0313
     25 C          -1.2320    6.8448    0.0706 C.ar    1  LIG1       -0.0178
     26 C          -2.0170    7.9221   -0.4682 C.ar    1  LIG1        0.0623
     27 C          -2.9017    7.5317   -1.4347 C.ar    1  LIG1       -0.0061
     28 S          -2.8074    5.8543   -1.7319 S.2     1  LIG1       -0.0945
     29 H          -3.5951    8.1577   -1.9771 H       1  LIG1        0.0706
     30 C          -0.2289    7.0417    1.1643 C.3     1  LIG1       -0.0374
     31 H          -0.5740    7.8036    1.8666 H       1  LIG1        0.0278
     32 H           0.7321    7.3704    0.7587 H       1  LIG1        0.0278
     33 H          -0.0555    6.1148    1.7129 H       1  LIG1        0.0278
     34 N          -1.8052   10.3604    0.3652 N.1     1  LIG1       -0.1908
     35 C          -1.9026    9.2727   -0.0165 C.1     1  LIG1        0.1000
@<TRIPOS>BOND
     1    11    12    3
     2    29    27    1
     3    28    27   ar
     4    28    24   ar
     5    27    26   ar
     6    12     3    1
     7     9     7    1
     8    20    18    1
     9    22    23    3
    10    23    15    1
    11    24    16    1
    12    24    25   ar
    13    26    35    1
    14    26    25   ar
    15    16    15   ar
    16    16    17   ar
    17    15    14   ar
    18     7     8    1
    19     7     2    1
    20     7    10    1
    21     3     2   ar
    22     3     4   ar
    23    35    34    3
    24    14    18    1
    25    14    13   ar
    26    17    13   ar
    27    25    30    1
    28    18    19    1
    29    18    21    1
    30    13     4    1
    31     2     1   ar
    32     4     5   ar
    33    32    30    1
    34    30    33    1
    35    30    31    1
    36     1     5   ar
    37     1     6    1
