@<TRIPOS>MOLECULE
mol_data/opt/cam/geoms/mol2/5id5id5id5id-.out
 46 49 0 0 0
SMALL
GASTEIGER

@<TRIPOS>ATOM
      1 C          -1.2174   -1.4959    2.1210 C.ar    1  LIG1       -0.0196
      2 C          -0.8728   -1.7800    0.8372 C.ar    1  LIG1       -0.0255
      3 C          -0.5863   -0.5753    0.1059 C.ar    1  LIG1        0.0699
      4 C          -0.7087    0.5773    0.8504 C.ar    1  LIG1        0.0438
      5 S          -1.1858    0.1920    2.4676 S.2     1  LIG1       -0.0945
      6 H          -1.4911   -2.1994    2.8945 H       1  LIG1        0.0696
      7 C          -0.8063   -3.1491    0.2333 C.3     1  LIG1       -0.0380
      8 H           0.2023   -3.3717   -0.1263 H       1  LIG1        0.0278
      9 H          -1.4800   -3.2338   -0.6240 H       1  LIG1        0.0278
     10 H          -1.0844   -3.9108    0.9631 H       1  LIG1        0.0278
     11 N           0.0132   -0.6023   -2.4075 N.1     1  LIG1       -0.1908
     12 C          -0.2564   -0.5799   -1.2822 C.1     1  LIG1        0.1006
     13 C          -0.5001    1.9567    0.4243 C.ar    1  LIG1        0.0319
     14 C           0.5861    2.4972   -0.2129 C.ar    1  LIG1       -0.0172
     15 C           0.3883    3.8952   -0.4738 C.ar    1  LIG1        0.0705
     16 C          -0.8119    4.3970   -0.0218 C.ar    1  LIG1        0.0444
     17 S          -1.7376    3.1458    0.7234 S.2     1  LIG1       -0.0856
     18 C           1.8395    1.7733   -0.5955 C.3     1  LIG1       -0.0374
     19 H           2.7096    2.4215   -0.4712 H       1  LIG1        0.0278
     20 H           1.8046    1.4563   -1.6416 H       1  LIG1        0.0278
     21 H           1.9795    0.8804    0.0155 H       1  LIG1        0.0278
     22 N           2.1408    5.3221   -1.7272 N.1     1  LIG1       -0.1908
     23 C           1.3495    4.6876   -1.1703 C.1     1  LIG1        0.1006
     24 C          -1.3205    5.7601   -0.1227 C.ar    1  LIG1        0.0319
     25 C          -0.7088    6.9281    0.2509 C.ar    1  LIG1       -0.0172
     26 C          -1.5442    8.0609   -0.0330 C.ar    1  LIG1        0.0705
     27 C          -2.7651    7.7468   -0.5874 C.ar    1  LIG1        0.0444
     28 S          -2.9068    6.0390   -0.7878 S.2     1  LIG1       -0.0856
     29 C           0.6402    7.0598    0.8868 C.3     1  LIG1       -0.0374
     30 H           0.6359    7.8596    1.6305 H       1  LIG1        0.0278
     31 H           1.4024    7.3004    0.1404 H       1  LIG1        0.0278
     32 H           0.9381    6.1311    1.3754 H       1  LIG1        0.0278
     33 N          -0.7739   10.4832    0.4333 N.1     1  LIG1       -0.1908
     34 C          -1.1240    9.4019    0.2161 C.1     1  LIG1        0.1006
     35 C          -3.8390    8.6483   -0.9887 C.ar    1  LIG1        0.0313
     36 C          -4.4428    9.6344   -0.2517 C.ar    1  LIG1       -0.0178
     37 C          -5.4608   10.2964   -1.0213 C.ar    1  LIG1        0.0623
     38 C          -5.6046    9.8026   -2.2881 C.ar    1  LIG1       -0.0061
     39 S          -4.5100    8.5304   -2.5948 S.2     1  LIG1       -0.0945
     40 H          -6.3021   10.1341   -3.0434 H       1  LIG1        0.0706
     41 C          -4.1435    9.9909    1.1712 C.3     1  LIG1       -0.0374
     42 H          -5.0605   10.2661    1.6968 H       1  LIG1        0.0278
     43 H          -3.4583   10.8416    1.2251 H       1  LIG1        0.0278
     44 H          -3.6767    9.1574    1.6981 H       1  LIG1        0.0278
     45 N          -6.9173   12.2060   -0.0639 N.1     1  LIG1       -0.1908
     46 C          -6.2667   11.3555   -0.5014 C.1     1  LIG1        0.1000
@<TRIPOS>BOND
     1    40    38    1
     2    39    38   ar
     3    39    35   ar
     4    11    12    3
     5    38    37   ar
     6    22    23    3
     7    20    18    1
     8    12     3    1
     9    23    15    1
    10    37    46    1
    11    37    36   ar
    12    35    27    1
    13    35    36   ar
    14    28    27   ar
    15    28    24   ar
    16     9     7    1
    17    18    19    1
    18    18    14    1
    19    18    21    1
    20    27    26   ar
    21    46    45    3
    22    15    14   ar
    23    15    16   ar
    24    36    41    1
    25    14    13   ar
    26     8     7    1
    27    24    16    1
    28    24    25   ar
    29    26    34    1
    30    26    25   ar
    31    16    17   ar
    32     3     2   ar
    33     3     4   ar
    34    31    29    1
    35    34    33    3
    36     7     2    1
    37     7    10    1
    38    25    29    1
    39    13    17   ar
    40    13     4    1
    41     2     1   ar
    42     4     5   ar
    43    29    32    1
    44    29    30    1
    45    41    43    1
    46    41    42    1
    47    41    44    1
    48     1     5   ar
    49     1     6    1
