@<TRIPOS>MOLECULE
mol_data/opt/cam/geoms/mol2/5id5id.out
 24 25 0 0 0
SMALL
GASTEIGER

@<TRIPOS>ATOM
      1 C          -1.9613   -1.7324    0.7708 C.ar    1  LIG1       -0.0196
      2 C          -0.7772   -1.8361    0.1122 C.ar    1  LIG1       -0.0255
      3 C          -0.2876   -0.5382   -0.2689 C.ar    1  LIG1        0.0699
      4 C          -1.0994    0.5055    0.1174 C.ar    1  LIG1        0.0438
      5 S          -2.4859   -0.1006    0.9556 S.2     1  LIG1       -0.0945
      6 H          -2.5623   -2.5398    1.1644 H       1  LIG1        0.0696
      7 C          -0.0623   -3.1139   -0.2032 C.3     1  LIG1       -0.0380
      8 H           0.9313   -3.1317    0.2535 H       1  LIG1        0.0278
      9 H           0.0770   -3.2308   -1.2816 H       1  LIG1        0.0278
     10 H          -0.6225   -3.9749    0.1645 H       1  LIG1        0.0278
     11 N           1.8830   -0.2437   -1.6395 N.1     1  LIG1       -0.1908
     12 C           0.9083   -0.3633   -1.0269 C.1     1  LIG1        0.1006
     13 C          -0.9082    1.9343   -0.1049 C.ar    1  LIG1        0.0313
     14 C           0.1937    2.7006    0.1747 C.ar    1  LIG1       -0.0178
     15 C          -0.0263    4.0708   -0.2017 C.ar    1  LIG1        0.0623
     16 C          -1.2625    4.3056   -0.7364 C.ar    1  LIG1       -0.0061
     17 S          -2.1940    2.8778   -0.8124 S.2     1  LIG1       -0.0945
     18 H          -1.6557    5.2499   -1.0835 H       1  LIG1        0.0706
     19 C           1.4635    2.2289    0.8123 C.3     1  LIG1       -0.0374
     20 H           1.8689    2.9987    1.4726 H       1  LIG1        0.0278
     21 H           2.2210    2.0030    0.0563 H       1  LIG1        0.0278
     22 H           1.2982    1.3213    1.3948 H       1  LIG1        0.0278
     23 N           1.7413    5.9231    0.1580 N.1     1  LIG1       -0.1908
     24 C           0.9470    5.0990   -0.0102 C.1     1  LIG1        0.1000
@<TRIPOS>BOND
     1    11    12    3
     2     9     7    1
     3    18    16    1
     4    12     3    1
     5    17    16   ar
     6    17    13   ar
     7    16    15   ar
     8     3     2   ar
     9     3     4   ar
    10     7     2    1
    11     7    10    1
    12     7     8    1
    13    15    24    1
    14    15    14   ar
    15    13     4    1
    16    13    14   ar
    17    24    23    3
    18    21    19    1
    19     2     1   ar
    20     4     5   ar
    21    14    19    1
    22     1     5   ar
    23     1     6    1
    24    19    22    1
    25    19    20    1
