@<TRIPOS>MOLECULE
mol_data/opt/cam/geoms/mol2/5id5id5id-5id.out
 46 49 0 0 0
SMALL
GASTEIGER

@<TRIPOS>ATOM
      1 C          -1.2444   -1.5014    2.1081 C.ar    1  LIG1       -0.0196
      2 C          -0.8904   -1.7831    0.8264 C.ar    1  LIG1       -0.0255
      3 C          -0.5963   -0.5771    0.1002 C.ar    1  LIG1        0.0699
      4 C          -0.7226    0.5740    0.8465 C.ar    1  LIG1        0.0438
      5 S          -1.2128    0.1856    2.4590 S.2     1  LIG1       -0.0945
      6 H          -1.5251   -2.2063    2.8778 H       1  LIG1        0.0696
      7 C          -0.8212   -3.1508    0.2198 C.3     1  LIG1       -0.0380
      8 H           0.1902   -3.3746   -0.1311 H       1  LIG1        0.0278
      9 H          -1.4872   -3.2320   -0.6439 H       1  LIG1        0.0278
     10 H          -1.1075   -3.9137    0.9451 H       1  LIG1        0.0278
     11 N           0.0221   -0.5994   -2.4087 N.1     1  LIG1       -0.1908
     12 C          -0.2560   -0.5791   -1.2854 C.1     1  LIG1        0.1006
     13 C          -0.5084    1.9540    0.4254 C.ar    1  LIG1        0.0319
     14 C           0.5838    2.4943   -0.2019 C.ar    1  LIG1       -0.0172
     15 C           0.3904    3.8933   -0.4607 C.ar    1  LIG1        0.0705
     16 C          -0.8124    4.3960   -0.0167 C.ar    1  LIG1        0.0444
     17 S          -1.7460    3.1446    0.7181 S.2     1  LIG1       -0.0856
     18 C           1.8389    1.7692   -0.5765 C.3     1  LIG1       -0.0374
     19 H           2.7090    2.4161   -0.4454 H       1  LIG1        0.0278
     20 H           1.8109    1.4532   -1.6231 H       1  LIG1        0.0278
     21 H           1.9735    0.8755    0.0346 H       1  LIG1        0.0278
     22 N           2.1551    5.3202   -1.6969 N.1     1  LIG1       -0.1908
     23 C           1.3584    4.6856   -1.1477 C.1     1  LIG1        0.1006
     24 C          -1.3179    5.7603   -0.1179 C.ar    1  LIG1        0.0319
     25 C          -0.7070    6.9262    0.2638 C.ar    1  LIG1       -0.0172
     26 C          -1.5383    8.0612   -0.0234 C.ar    1  LIG1        0.0705
     27 C          -2.7555    7.7507   -0.5881 C.ar    1  LIG1        0.0444
     28 S          -2.8985    6.0437   -0.7943 S.2     1  LIG1       -0.0856
     29 C           0.6372    7.0538    0.9104 C.3     1  LIG1       -0.0374
     30 H           0.6290    7.8526    1.6552 H       1  LIG1        0.0278
     31 H           1.4059    7.2936    0.1704 H       1  LIG1        0.0278
     32 H           0.9290    6.1237    1.4001 H       1  LIG1        0.0278
     33 N          -0.7674   10.4808    0.4555 N.1     1  LIG1       -0.1908
     34 C          -1.1177    9.4007    0.2326 C.1     1  LIG1        0.1006
     35 C          -3.8248    8.6552   -0.9949 C.ar    1  LIG1        0.0313
     36 C          -4.4327    9.6401   -0.2597 C.ar    1  LIG1       -0.0178
     37 C          -5.4438   10.3059   -1.0351 C.ar    1  LIG1        0.0623
     38 C          -5.5789    9.8157   -2.3043 C.ar    1  LIG1       -0.0061
     39 S          -4.4839    8.5428   -2.6064 S.2     1  LIG1       -0.0945
     40 H          -6.2701   10.1505   -3.0639 H       1  LIG1        0.0706
     41 C          -4.1435    9.9921    1.1664 C.3     1  LIG1       -0.0374
     42 H          -5.0637   10.2687    1.6855 H       1  LIG1        0.0278
     43 H          -3.4561   10.8406    1.2279 H       1  LIG1        0.0278
     44 H          -3.6832    9.1559    1.6948 H       1  LIG1        0.0278
     45 N          -6.9044   12.2151   -0.0833 N.1     1  LIG1       -0.1908
     46 C          -6.2518   11.3648   -0.5183 C.1     1  LIG1        0.1000
@<TRIPOS>BOND
     1    40    38    1
     2    39    38   ar
     3    39    35   ar
     4    11    12    3
     5    38    37   ar
     6    22    23    3
     7    20    18    1
     8    12     3    1
     9    23    15    1
    10    37    46    1
    11    37    36   ar
    12    35    27    1
    13    35    36   ar
    14    28    27   ar
    15    28    24   ar
    16     9     7    1
    17    27    26   ar
    18    18    19    1
    19    18    14    1
    20    18    21    1
    21    46    45    3
    22    15    14   ar
    23    15    16   ar
    24    36    41    1
    25    14    13   ar
    26     8     7    1
    27    24    16    1
    28    24    25   ar
    29    26    34    1
    30    26    25   ar
    31    16    17   ar
    32     3     2   ar
    33     3     4   ar
    34    31    29    1
    35     7     2    1
    36     7    10    1
    37    34    33    3
    38    25    29    1
    39    13    17   ar
    40    13     4    1
    41     2     1   ar
    42     4     5   ar
    43    29    32    1
    44    29    30    1
    45    41    43    1
    46    41    42    1
    47    41    44    1
    48     1     5   ar
    49     1     6    1
