@<TRIPOS>MOLECULE
mol_data/opt/cam/geoms/mol2/5id5id-5id-5id.out
 46 49 0 0 0
SMALL
GASTEIGER

@<TRIPOS>ATOM
      1 C          -1.1951   -1.5090    2.0992 C.ar    1  LIG1       -0.0196
      2 C          -0.8661   -1.7853    0.8097 C.ar    1  LIG1       -0.0255
      3 C          -0.5878   -0.5764    0.0824 C.ar    1  LIG1        0.0699
      4 C          -0.7007    0.5718    0.8354 C.ar    1  LIG1        0.0438
      5 S          -1.1584    0.1768    2.4559 S.2     1  LIG1       -0.0945
      6 H          -1.4598   -2.2171    2.8717 H       1  LIG1        0.0696
      7 C          -0.8077   -3.1507    0.1967 C.3     1  LIG1       -0.0380
      8 H           0.1964   -3.3715   -0.1765 H       1  LIG1        0.0278
      9 H          -1.4917   -3.2299   -0.6529 H       1  LIG1        0.0278
     10 H          -1.0772   -3.9168    0.9251 H       1  LIG1        0.0278
     11 N          -0.0186   -0.5882   -2.4381 N.1     1  LIG1       -0.1908
     12 C          -0.2747   -0.5726   -1.3096 C.1     1  LIG1        0.1006
     13 C          -0.4965    1.9536    0.4152 C.ar    1  LIG1        0.0319
     14 C           0.5822    2.4976   -0.2317 C.ar    1  LIG1       -0.0172
     15 C           0.3821    3.8972   -0.4816 C.ar    1  LIG1        0.0705
     16 C          -0.8124    4.3968   -0.0121 C.ar    1  LIG1        0.0444
     17 S          -1.7297    3.1414    0.7365 S.2     1  LIG1       -0.0856
     18 C           1.8306    1.7754   -0.6338 C.3     1  LIG1       -0.0374
     19 H           2.7025    2.4225   -0.5160 H       1  LIG1        0.0278
     20 H           1.7829    1.4649   -1.6813 H       1  LIG1        0.0278
     21 H           1.9775    0.8788   -0.0300 H       1  LIG1        0.0278
     22 N           2.1201    5.3310   -1.7472 N.1     1  LIG1       -0.1908
     23 C           1.3352    4.6934   -1.1847 C.1     1  LIG1        0.1006
     24 C          -1.3214    5.7607   -0.0986 C.ar    1  LIG1        0.0319
     25 C          -0.7046    6.9261    0.2748 C.ar    1  LIG1       -0.0172
     26 C          -1.5428    8.0610    0.0080 C.ar    1  LIG1        0.0705
     27 C          -2.7705    7.7509   -0.5336 C.ar    1  LIG1        0.0444
     28 S          -2.9155    6.0443   -0.7428 S.2     1  LIG1       -0.0856
     29 C           0.6519    7.0533    0.8952 C.3     1  LIG1       -0.0374
     30 H           0.6571    7.8485    1.6438 H       1  LIG1        0.0278
     31 H           1.4053    7.2981    0.1412 H       1  LIG1        0.0278
     32 H           0.9552    6.1215    1.3745 H       1  LIG1        0.0278
     33 N          -0.7657   10.4800    0.4798 N.1     1  LIG1       -0.1908
     34 C          -1.1190    9.4002    0.2602 C.1     1  LIG1        0.1006
     35 C          -3.8486    8.6553   -0.9163 C.ar    1  LIG1        0.0313
     36 C          -4.4431    9.6371   -0.1661 C.ar    1  LIG1       -0.0178
     37 C          -5.4699   10.3043   -0.9193 C.ar    1  LIG1        0.0623
     38 C          -5.6292    9.8183   -2.1873 C.ar    1  LIG1       -0.0061
     39 S          -4.5390    8.5475   -2.5150 S.2     1  LIG1       -0.0945
     40 H          -6.3356   10.1547   -2.9321 H       1  LIG1        0.0706
     41 C          -4.1264    9.9847    1.2552 C.3     1  LIG1       -0.0374
     42 H          -5.0369   10.2571    1.7935 H       1  LIG1        0.0278
     43 H          -3.4401   10.8347    1.3061 H       1  LIG1        0.0278
     44 H          -3.6537    9.1478    1.7713 H       1  LIG1        0.0278
     45 N          -6.9138   12.2086    0.0673 N.1     1  LIG1       -0.1908
     46 C          -6.2689   11.3605   -0.3833 C.1     1  LIG1        0.1000
@<TRIPOS>BOND
     1    40    38    1
     2    39    38   ar
     3    39    35   ar
     4    11    12    3
     5    38    37   ar
     6    22    23    3
     7    20    18    1
     8    12     3    1
     9    23    15    1
    10    37    46    1
    11    37    36   ar
    12    35    27    1
    13    35    36   ar
    14    28    27   ar
    15    28    24   ar
    16     9     7    1
    17    18    19    1
    18    18    14    1
    19    18    21    1
    20    27    26   ar
    21    15    14   ar
    22    15    16   ar
    23    46    45    3
    24    14    13   ar
    25     8     7    1
    26    36    41    1
    27    24    16    1
    28    24    25   ar
    29    16    17   ar
    30    26    34    1
    31    26    25   ar
    32     3     2   ar
    33     3     4   ar
    34    31    29    1
    35     7     2    1
    36     7    10    1
    37    34    33    3
    38    25    29    1
    39    13    17   ar
    40    13     4    1
    41     2     1   ar
    42     4     5   ar
    43    29    32    1
    44    29    30    1
    45    41    43    1
    46    41    44    1
    47    41    42    1
    48     1     5   ar
    49     1     6    1
