@<TRIPOS>MOLECULE
mol_data/opt/cam/geoms/mol2/5id5id-5id-5id-.out
 46 49 0 0 0
SMALL
GASTEIGER

@<TRIPOS>ATOM
      1 C          -1.2080   -1.5077    2.1000 C.ar    1  LIG1       -0.0196
      2 C          -0.8749   -1.7853    0.8118 C.ar    1  LIG1       -0.0255
      3 C          -0.5930   -0.5770    0.0846 C.ar    1  LIG1        0.0699
      4 C          -0.7073    0.5717    0.8364 C.ar    1  LIG1        0.0438
      5 S          -1.1709    0.1783    2.4556 S.2     1  LIG1       -0.0945
      6 H          -1.4760   -2.2150    2.8720 H       1  LIG1        0.0696
      7 C          -0.8157   -3.1511    0.2000 C.3     1  LIG1       -0.0380
      8 H           0.1895   -3.3733   -0.1693 H       1  LIG1        0.0278
      9 H          -1.4966   -3.2301   -0.6521 H       1  LIG1        0.0278
     10 H          -1.0888   -3.9164    0.9279 H       1  LIG1        0.0278
     11 N          -0.0154   -0.5911   -2.4340 N.1     1  LIG1       -0.1908
     12 C          -0.2752   -0.5745   -1.3063 C.1     1  LIG1        0.1006
     13 C          -0.5004    1.9530    0.4159 C.ar    1  LIG1        0.0319
     14 C           0.5812    2.4956   -0.2275 C.ar    1  LIG1       -0.0172
     15 C           0.3832    3.8952   -0.4791 C.ar    1  LIG1        0.0705
     16 C          -0.8125    4.3962   -0.0144 C.ar    1  LIG1        0.0444
     17 S          -1.7337    3.1422    0.7318 S.2     1  LIG1       -0.0856
     18 C           1.8304    1.7721   -0.6244 C.3     1  LIG1       -0.0374
     19 H           2.7024    2.4185   -0.5040 H       1  LIG1        0.0278
     20 H           1.7862    1.4607   -1.6719 H       1  LIG1        0.0278
     21 H           1.9743    0.8758   -0.0194 H       1  LIG1        0.0278
     22 N           2.1271    5.3266   -1.7394 N.1     1  LIG1       -0.1908
     23 C           1.3396    4.6900   -1.1794 C.1     1  LIG1        0.1006
     24 C          -1.3200    5.7605   -0.1037 C.ar    1  LIG1        0.0319
     25 C          -0.7036    6.9256    0.2712 C.ar    1  LIG1       -0.0172
     26 C          -1.5397    8.0611    0.0004 C.ar    1  LIG1        0.0705
     27 C          -2.7656    7.7517   -0.5456 C.ar    1  LIG1        0.0444
     28 S          -2.9114    6.0451   -0.7541 S.2     1  LIG1       -0.0856
     29 C           0.6508    7.0520    0.8966 C.3     1  LIG1       -0.0374
     30 H           0.6538    7.8477    1.6446 H       1  LIG1        0.0278
     31 H           1.4071    7.2955    0.1452 H       1  LIG1        0.0278
     32 H           0.9513    6.1202    1.3778 H       1  LIG1        0.0278
     33 N          -0.7623   10.4797    0.4737 N.1     1  LIG1       -0.1908
     34 C          -1.1157    9.4000    0.2534 C.1     1  LIG1        0.1006
     35 C          -3.8414    8.6568   -0.9330 C.ar    1  LIG1        0.0313
     36 C          -4.4378    9.6397   -0.1857 C.ar    1  LIG1       -0.0178
     37 C          -5.4612   10.3073   -0.9432 C.ar    1  LIG1        0.0623
     38 C          -5.6161    9.8207   -2.2115 C.ar    1  LIG1       -0.0061
     39 S          -4.5259    8.5488   -2.5342 S.2     1  LIG1       -0.0945
     40 H          -6.3193   10.1574   -2.9592 H       1  LIG1        0.0706
     41 C          -4.1262    9.9878    1.2367 C.3     1  LIG1       -0.0374
     42 H          -5.0384   10.2614    1.7713 H       1  LIG1        0.0278
     43 H          -3.4393   10.8372    1.2896 H       1  LIG1        0.0278
     44 H          -3.6562    9.1507    1.7550 H       1  LIG1        0.0278
     45 N          -6.9071   12.2135    0.0368 N.1     1  LIG1       -0.1908
     46 C          -6.2613   11.3645   -0.4108 C.1     1  LIG1        0.1000
@<TRIPOS>BOND
     1    40    38    1
     2    39    38   ar
     3    39    35   ar
     4    11    12    3
     5    38    37   ar
     6    22    23    3
     7    20    18    1
     8    12     3    1
     9    23    15    1
    10    37    46    1
    11    37    36   ar
    12    35    27    1
    13    35    36   ar
    14    28    27   ar
    15    28    24   ar
    16     9     7    1
    17    18    19    1
    18    18    14    1
    19    18    21    1
    20    27    26   ar
    21    15    14   ar
    22    15    16   ar
    23    46    45    3
    24    14    13   ar
    25    36    41    1
    26     8     7    1
    27    24    16    1
    28    24    25   ar
    29    16    17   ar
    30    26    34    1
    31    26    25   ar
    32     3     2   ar
    33     3     4   ar
    34    31    29    1
    35     7     2    1
    36     7    10    1
    37    34    33    3
    38    25    29    1
    39    13    17   ar
    40    13     4    1
    41     2     1   ar
    42     4     5   ar
    43    29    32    1
    44    29    30    1
    45    41    43    1
    46    41    44    1
    47    41    42    1
    48     1     5   ar
    49     1     6    1
