@<TRIPOS>MOLECULE
mol_data/opt/cam/geoms/mol2/5id5id5id-.out
 35 37 0 0 0
SMALL
GASTEIGER

@<TRIPOS>ATOM
      1 C          -1.6679   -1.6747    1.4339 C.ar    1  LIG1       -0.0196
      2 C          -0.8354   -1.8683    0.3771 C.ar    1  LIG1       -0.0255
      3 C          -0.3987   -0.6109   -0.1676 C.ar    1  LIG1        0.0699
      4 C          -0.8973    0.4913    0.4915 C.ar    1  LIG1        0.0438
      5 S          -1.9198   -0.0082    1.7941 S.2     1  LIG1       -0.0945
      6 H          -2.1533   -2.4342    2.0302 H       1  LIG1        0.0696
      7 C          -0.4235   -3.1971   -0.1782 C.3     1  LIG1       -0.0380
      8 H           0.6617   -3.3242   -0.1300 H       1  LIG1        0.0278
      9 H          -0.7124   -3.2906   -1.2288 H       1  LIG1        0.0278
     10 H          -0.8878   -4.0127    0.3780 H       1  LIG1        0.0278
     11 N           1.1141   -0.4722   -2.2579 N.1     1  LIG1       -0.1908
     12 C           0.4349   -0.5233   -1.3221 C.1     1  LIG1        0.1006
     13 C          -0.6645    1.9020    0.2029 C.ar    1  LIG1        0.0319
     14 C           0.5302    2.5530    0.0401 C.ar    1  LIG1       -0.0172
     15 C           0.3246    3.9442   -0.2504 C.ar    1  LIG1        0.0705
     16 C          -0.9962    4.3328   -0.2826 C.ar    1  LIG1        0.0444
     17 S          -2.0218    2.9804    0.0289 S.2     1  LIG1       -0.0856
     18 C           1.8935    1.9445    0.1537 C.3     1  LIG1       -0.0374
     19 H           2.5904    2.6490    0.6126 H       1  LIG1        0.0278
     20 H           2.2867    1.6780   -0.8315 H       1  LIG1        0.0278
     21 H           1.8691    1.0354    0.7564 H       1  LIG1        0.0278
     22 N           2.2924    5.5551   -0.7098 N.1     1  LIG1       -0.1908
     23 C           1.4056    4.8389   -0.5107 C.1     1  LIG1        0.1006
     24 C          -1.5466    5.6586   -0.5401 C.ar    1  LIG1        0.0313
     25 C          -1.2273    6.8459    0.0670 C.ar    1  LIG1       -0.0178
     26 C          -2.0035    7.9249   -0.4808 C.ar    1  LIG1        0.0623
     27 C          -2.8759    7.5369   -1.4594 C.ar    1  LIG1       -0.0061
     28 S          -2.7802    5.8597   -1.7572 S.2     1  LIG1       -0.0945
     29 H          -3.5612    8.1645   -2.0101 H       1  LIG1        0.0706
     30 C          -0.2384    7.0401    1.1741 C.3     1  LIG1       -0.0374
     31 H          -0.5918    7.8015    1.8728 H       1  LIG1        0.0278
     32 H           0.7284    7.3680    0.7817 H       1  LIG1        0.0278
     33 H          -0.0735    6.1122    1.7238 H       1  LIG1        0.0278
     34 N          -1.7992   10.3620    0.3582 N.1     1  LIG1       -0.1908
     35 C          -1.8931    9.2749   -0.0260 C.1     1  LIG1        0.1000
@<TRIPOS>BOND
     1    11    12    3
     2    29    27    1
     3    28    27   ar
     4    28    24   ar
     5    27    26   ar
     6    12     3    1
     7     9     7    1
     8    20    18    1
     9    22    23    3
    10    24    16    1
    11    24    25   ar
    12    23    15    1
    13    26    35    1
    14    26    25   ar
    15    16    15   ar
    16    16    17   ar
    17    15    14   ar
    18     7     8    1
    19     7     2    1
    20     7    10    1
    21     3     2   ar
    22     3     4   ar
    23    35    34    3
    24    17    13   ar
    25    14    18    1
    26    14    13   ar
    27    25    30    1
    28    18    19    1
    29    18    21    1
    30    13     4    1
    31     2     1   ar
    32     4     5   ar
    33    32    30    1
    34    30    33    1
    35    30    31    1
    36     1     5   ar
    37     1     6    1
