@<TRIPOS>MOLECULE
mol_data/opt/cam/geoms/mol2/5ie.out
 14 14 0 0 0
SMALL
GASTEIGER

@<TRIPOS>ATOM
      1 C          -2.1358   -1.6635    0.0647 C.ar    1  LIG1       -0.0202
      2 C          -0.7774   -1.6685    0.0261 C.ar    1  LIG1       -0.0281
      3 C          -0.2478   -0.3259   -0.0160 C.ar    1  LIG1        0.0346
      4 C          -1.2282    0.6278   -0.0072 C.ar    1  LIG1       -0.0087
      5 S          -2.7960   -0.0675    0.0514 S.2     1  LIG1       -0.1036
      6 H          -2.7933   -2.5204    0.1006 H       1  LIG1        0.0696
      7 H          -1.0955    1.6991   -0.0326 H       1  LIG1        0.0706
      8 C           0.0869   -2.8916    0.0259 C.3     1  LIG1       -0.0380
      9 H           0.7633   -2.8936    0.8856 H       1  LIG1        0.0278
     10 H           0.7117   -2.9299   -0.8712 H       1  LIG1        0.0278
     11 H          -0.5164   -3.8004    0.0624 H       1  LIG1        0.0278
     12 C           1.1478   -0.0345   -0.0616 C.1     1  LIG1       -0.0689
     13 C           2.3303    0.1897   -0.0996 C.1     1  LIG1       -0.1139
     14 H           3.3748    0.3976   -0.1336 H       1  LIG1        0.1232
@<TRIPOS>BOND
     1    10     8    1
     2    14    13    1
     3    13    12    3
     4    12     3    1
     5     7     4    1
     6     3     4   ar
     7     3     2   ar
     8     4     5   ar
     9     8     2    1
    10     8    11    1
    11     8     9    1
    12     2     1   ar
    13     5     1   ar
    14     1     6    1
