@<TRIPOS>MOLECULE
mol_data/opt/cam/geoms/mol2/5ie5ie5ie.out
 38 40 0 0 0
SMALL
GASTEIGER

@<TRIPOS>ATOM
      1 C          -1.7201   -1.6078    1.5180 C.ar    1  LIG1       -0.0196
      2 C          -0.8150   -1.8278    0.5292 C.ar    1  LIG1       -0.0274
      3 C          -0.3225   -0.5899   -0.0219 C.ar    1  LIG1        0.0428
      4 C          -0.8637    0.5264    0.5779 C.ar    1  LIG1        0.0418
      5 S          -1.9870    0.0686    1.8175 S.2     1  LIG1       -0.0946
      6 H          -2.2520   -2.3516    2.0943 H       1  LIG1        0.0696
      7 C          -0.3772   -3.1732    0.0385 C.3     1  LIG1       -0.0380
      8 H           0.7024   -3.3025    0.1579 H       1  LIG1        0.0278
      9 H          -0.5968   -3.2920   -1.0264 H       1  LIG1        0.0278
     10 H          -0.8808   -3.9730    0.5843 H       1  LIG1        0.0278
     11 C           0.5916   -0.5497   -1.1142 C.1     1  LIG1       -0.0682
     12 C           1.3591   -0.5544   -2.0425 C.1     1  LIG1       -0.1139
     13 H           2.0295   -0.5475   -2.8708 H       1  LIG1        0.1232
     14 C          -0.6034    1.9308    0.2801 C.ar    1  LIG1        0.0318
     15 C           0.5981    2.5853    0.2464 C.ar    1  LIG1       -0.0191
     16 C           0.4434    3.9716   -0.1097 C.ar    1  LIG1        0.0435
     17 C          -0.8665    4.3466   -0.3126 C.ar    1  LIG1        0.0424
     18 S          -1.9284    2.9988   -0.0914 S.2     1  LIG1       -0.0856
     19 C           1.9313    1.9781    0.5513 C.3     1  LIG1       -0.0374
     20 H           2.5421    2.6732    1.1319 H       1  LIG1        0.0278
     21 H           2.4758    1.7465   -0.3686 H       1  LIG1        0.0278
     22 H           1.8214    1.0484    1.1109 H       1  LIG1        0.0278
     23 C           1.5561    4.8483   -0.2669 C.1     1  LIG1       -0.0682
     24 C           2.5169    5.5627   -0.3976 C.1     1  LIG1       -0.1139
     25 H           3.3619    6.1989   -0.5271 H       1  LIG1        0.1232
     26 C          -1.3880    5.6607   -0.6729 C.ar    1  LIG1        0.0312
     27 C          -1.1930    6.8581   -0.0378 C.ar    1  LIG1       -0.0198
     28 C          -1.8774    7.9339   -0.7098 C.ar    1  LIG1        0.0352
     29 C          -2.5707    7.5188   -1.8132 C.ar    1  LIG1       -0.0081
     30 S          -2.4089    5.8357   -2.0773 S.2     1  LIG1       -0.0946
     31 H          -3.1660    8.1306   -2.4748 H       1  LIG1        0.0706
     32 C          -0.4060    7.0642    1.2180 C.3     1  LIG1       -0.0374
     33 H          -0.9132    7.7785    1.8706 H       1  LIG1        0.0278
     34 H           0.5876    7.4641    0.9963 H       1  LIG1        0.0278
     35 H          -0.2690    6.1259    1.7569 H       1  LIG1        0.0278
     36 C          -1.8483    9.2863   -0.2566 C.1     1  LIG1       -0.0688
     37 C          -1.8169   10.4235    0.1379 C.1     1  LIG1       -0.1139
     38 H          -1.7926   11.4320    0.4810 H       1  LIG1        0.1232
@<TRIPOS>BOND
     1    13    12    1
     2    31    29    1
     3    30    29   ar
     4    30    26   ar
     5    12    11    3
     6    29    28   ar
     7    11     3    1
     8     9     7    1
     9    28    36    1
    10    28    27   ar
    11    26    17    1
    12    26    27   ar
    13    25    24    1
    14    24    23    3
    15    21    19    1
    16    17    16   ar
    17    17    18   ar
    18    23    16    1
    19    36    37    3
    20    16    15   ar
    21    18    14   ar
    22    27    32    1
    23     3     2   ar
    24     3     4   ar
    25     7     8    1
    26     7     2    1
    27     7    10    1
    28    37    38    1
    29    15    14   ar
    30    15    19    1
    31    14     4    1
    32     2     1   ar
    33    19    22    1
    34    19    20    1
    35     4     5   ar
    36    34    32    1
    37    32    35    1
    38    32    33    1
    39     1     5   ar
    40     1     6    1
