@<TRIPOS>MOLECULE
mol_data/opt/cam/geoms/mol2/5ie5ie5ie-5ie.out
 50 53 0 0 0
SMALL
GASTEIGER

@<TRIPOS>ATOM
      1 C          -1.1928   -1.4130    2.3217 C.ar    1  LIG1       -0.0196
      2 C          -0.8177   -1.7059    1.0493 C.ar    1  LIG1       -0.0274
      3 C          -0.5026   -0.5131    0.3032 C.ar    1  LIG1        0.0428
      4 C          -0.6387    0.6423    1.0414 C.ar    1  LIG1        0.0418
      5 S          -1.1616    0.2779    2.6543 S.2     1  LIG1       -0.0946
      6 H          -1.4900   -2.1103    3.0922 H       1  LIG1        0.0696
      7 C          -0.7475   -3.0812    0.4611 C.3     1  LIG1       -0.0380
      8 H           0.2647   -3.3089    0.1146 H       1  LIG1        0.0278
      9 H          -1.4089   -3.1707   -0.4054 H       1  LIG1        0.0278
     10 H          -1.0372   -3.8367    1.1936 H       1  LIG1        0.0278
     11 C          -0.1408   -0.5470   -1.0746 C.1     1  LIG1       -0.0682
     12 C           0.1549   -0.6132   -2.2403 C.1     1  LIG1       -0.1139
     13 H           0.4064   -0.6601   -3.2748 H       1  LIG1        0.1232
     14 C          -0.4102    2.0198    0.6177 C.ar    1  LIG1        0.0318
     15 C           0.7145    2.5624    0.0573 C.ar    1  LIG1       -0.0191
     16 C           0.5433    3.9602   -0.2412 C.ar    1  LIG1        0.0435
     17 C          -0.6908    4.4544    0.1203 C.ar    1  LIG1        0.0424
     18 S          -1.6700    3.2067    0.8110 S.2     1  LIG1       -0.0856
     19 C           1.9927    1.8335   -0.2143 C.3     1  LIG1       -0.0374
     20 H           2.8500    2.4642    0.0318 H       1  LIG1        0.0278
     21 H           2.0722    1.5628   -1.2710 H       1  LIG1        0.0278
     22 H           2.0508    0.9120    0.3661 H       1  LIG1        0.0278
     23 C           1.5542    4.7336   -0.8824 C.1     1  LIG1       -0.0682
     24 C           2.4251    5.3596   -1.4303 C.1     1  LIG1       -0.1139
     25 H           3.1855    5.9180   -1.9259 H       1  LIG1        0.1232
     26 C          -1.2003    5.8137   -0.0270 C.ar    1  LIG1        0.0318
     27 C          -0.6504    6.9826    0.4253 C.ar    1  LIG1       -0.0191
     28 C          -1.4472    8.1251    0.0617 C.ar    1  LIG1        0.0435
     29 C          -2.5925    7.8012   -0.6319 C.ar    1  LIG1        0.0424
     30 S          -2.7003    6.0910   -0.8681 S.2     1  LIG1       -0.0856
     31 C           0.6118    7.1046    1.2196 C.3     1  LIG1       -0.0374
     32 H           0.4899    7.8431    2.0153 H       1  LIG1        0.0278
     33 H           1.4421    7.4322    0.5876 H       1  LIG1        0.0278
     34 H           0.8928    6.1483    1.6621 H       1  LIG1        0.0278
     35 C          -1.0523    9.4597    0.3688 C.1     1  LIG1       -0.0682
     36 C          -0.6885   10.5758    0.6379 C.1     1  LIG1       -0.1139
     37 H          -0.3686   11.5674    0.8617 H       1  LIG1        0.1232
     38 C          -3.6247    8.6956   -1.1451 C.ar    1  LIG1        0.0312
     39 C          -4.3563    9.6318   -0.4643 C.ar    1  LIG1       -0.0198
     40 C          -5.2782   10.3200   -1.3325 C.ar    1  LIG1        0.0352
     41 C          -5.2237    9.8792   -2.6261 C.ar    1  LIG1       -0.0081
     42 S          -4.0607    8.6411   -2.8338 S.2     1  LIG1       -0.0946
     43 H          -5.8173   10.2295   -3.4576 H       1  LIG1        0.0706
     44 C          -4.2688    9.9137    1.0025 C.3     1  LIG1       -0.0374
     45 H          -5.2661   10.0781    1.4172 H       1  LIG1        0.0278
     46 H          -3.6772   10.8135    1.1939 H       1  LIG1        0.0278
     47 H          -3.7940    9.0894    1.5360 H       1  LIG1        0.0278
     48 C          -6.1672   11.3405   -0.8815 C.1     1  LIG1       -0.0688
     49 C          -6.9136   12.1990   -0.4871 C.1     1  LIG1       -0.1139
     50 H          -7.5762   12.9601   -0.1449 H       1  LIG1        0.1232
@<TRIPOS>BOND
     1    43    41    1
     2    13    12    1
     3    42    41   ar
     4    42    38   ar
     5    41    40   ar
     6    12    11    3
     7    25    24    1
     8    24    23    3
     9    40    48    1
    10    40    39   ar
    11    21    19    1
    12    38    29    1
    13    38    39   ar
    14    11     3    1
    15    23    16    1
    16    48    49    3
    17    30    29   ar
    18    30    26   ar
    19    29    28   ar
    20    49    50    1
    21    39    44    1
    22     9     7    1
    23    16    15   ar
    24    16    17   ar
    25    19    20    1
    26    19    15    1
    27    19    22    1
    28    26    17    1
    29    26    27   ar
    30    15    14   ar
    31    28    35    1
    32    28    27   ar
    33     8     7    1
    34    17    18   ar
    35     3     4   ar
    36     3     2   ar
    37    35    36    3
    38    27    31    1
    39     7     2    1
    40     7    10    1
    41    33    31    1
    42    14    18   ar
    43    14     4    1
    44    36    37    1
    45    44    46    1
    46    44    45    1
    47    44    47    1
    48     4     5   ar
    49     2     1   ar
    50    31    34    1
    51    31    32    1
    52     1     5   ar
    53     1     6    1
