@<TRIPOS>MOLECULE
mol_data/opt/cam/geoms/mol2/5ie5ie-5ie5ie.out
 50 53 0 0 0
SMALL
GASTEIGER

@<TRIPOS>ATOM
      1 C          -1.1396   -1.4176    2.3262 C.ar    1  LIG1       -0.0196
      2 C          -0.7889   -1.7074    1.0462 C.ar    1  LIG1       -0.0274
      3 C          -0.4898   -0.5127    0.2966 C.ar    1  LIG1        0.0428
      4 C          -0.6131    0.6411    1.0396 C.ar    1  LIG1        0.0418
      5 S          -1.1042    0.2726    2.6616 S.2     1  LIG1       -0.0946
      6 H          -1.4210   -2.1169    3.1009 H       1  LIG1        0.0696
      7 C          -0.7284   -3.0814    0.4539 C.3     1  LIG1       -0.0380
      8 H           0.2773   -3.3070    0.0874 H       1  LIG1        0.0278
      9 H          -1.4063   -3.1700   -0.3999 H       1  LIG1        0.0278
     10 H          -1.0029   -3.8388    1.1902 H       1  LIG1        0.0278
     11 C          -0.1548   -0.5433   -1.0880 C.1     1  LIG1       -0.0682
     12 C           0.1184   -0.6067   -2.2594 C.1     1  LIG1       -0.1139
     13 H           0.3499   -0.6511   -3.2987 H       1  LIG1        0.1232
     14 C          -0.3946    2.0197    0.6145 C.ar    1  LIG1        0.0318
     15 C           0.7184    2.5649    0.0336 C.ar    1  LIG1       -0.0191
     16 C           0.5397    3.9631   -0.2586 C.ar    1  LIG1        0.0435
     17 C          -0.6878    4.4550    0.1278 C.ar    1  LIG1        0.0424
     18 S          -1.6519    3.2046    0.8346 S.2     1  LIG1       -0.0856
     19 C           1.9920    1.8383   -0.2641 C.3     1  LIG1       -0.0374
     20 H           2.8531    2.4697   -0.0336 H       1  LIG1        0.0278
     21 H           2.0514    1.5697   -1.3227 H       1  LIG1        0.0278
     22 H           2.0626    0.9157    0.3132 H       1  LIG1        0.0278
     23 C           1.5370    4.7392   -0.9176 C.1     1  LIG1       -0.0682
     24 C           2.3963    5.3675   -1.4809 C.1     1  LIG1       -0.1139
     25 H           3.1463    5.9279   -1.9900 H       1  LIG1        0.1232
     26 C          -1.2018    5.8139   -0.0069 C.ar    1  LIG1        0.0318
     27 C          -0.6447    6.9826    0.4372 C.ar    1  LIG1       -0.0191
     28 C          -1.4499    8.1248    0.0915 C.ar    1  LIG1        0.0435
     29 C          -2.6080    7.8008   -0.5805 C.ar    1  LIG1        0.0424
     30 S          -2.7182    6.0909   -0.8182 S.2     1  LIG1       -0.0856
     31 C           0.6324    7.1045    1.2072 C.3     1  LIG1       -0.0374
     32 H           0.5251    7.8413    2.0066 H       1  LIG1        0.0278
     33 H           1.4499    7.4345    0.5599 H       1  LIG1        0.0278
     34 H           0.9230    6.1478    1.6423 H       1  LIG1        0.0278
     35 C          -1.0509    9.4592    0.3937 C.1     1  LIG1       -0.0682
     36 C          -0.6834   10.5753    0.6580 C.1     1  LIG1       -0.1139
     37 H          -0.3604   11.5668    0.8777 H       1  LIG1        0.1232
     38 C          -3.6511    8.6949   -1.0718 C.ar    1  LIG1        0.0312
     39 C          -4.3705    9.6287   -0.3750 C.ar    1  LIG1       -0.0198
     40 C          -5.3100   10.3175   -1.2238 C.ar    1  LIG1        0.0352
     41 C          -5.2800    9.8795   -2.5190 C.ar    1  LIG1       -0.0081
     42 S          -4.1197    8.6433   -2.7518 S.2     1  LIG1       -0.0946
     43 H          -5.8900   10.2307   -3.3381 H       1  LIG1        0.0706
     44 C          -4.2551    9.9077    1.0905 C.3     1  LIG1       -0.0374
     45 H          -5.2443   10.0701    1.5247 H       1  LIG1        0.0278
     46 H          -3.6608   10.8078    1.2723 H       1  LIG1        0.0278
     47 H          -3.7691    9.0828    1.6129 H       1  LIG1        0.0278
     48 C          -6.1914   11.3359   -0.7534 C.1     1  LIG1       -0.0688
     49 C          -6.9311   12.1926   -0.3428 C.1     1  LIG1       -0.1139
     50 H          -7.5880   12.9521    0.0137 H       1  LIG1        0.1232
@<TRIPOS>BOND
     1    43    41    1
     2    13    12    1
     3    42    41   ar
     4    42    38   ar
     5    41    40   ar
     6    12    11    3
     7    25    24    1
     8    24    23    3
     9    21    19    1
    10    40    48    1
    11    40    39   ar
    12    11     3    1
    13    38    29    1
    14    38    39   ar
    15    23    16    1
    16    30    29   ar
    17    30    26   ar
    18    48    49    3
    19    29    28   ar
    20     9     7    1
    21    39    44    1
    22    49    50    1
    23    19    20    1
    24    19    15    1
    25    19    22    1
    26    16    15   ar
    27    16    17   ar
    28    26    17    1
    29    26    27   ar
    30    15    14   ar
    31     8     7    1
    32    28    35    1
    33    28    27   ar
    34    17    18   ar
    35     3     4   ar
    36     3     2   ar
    37    35    36    3
    38    27    31    1
    39     7     2    1
    40     7    10    1
    41    33    31    1
    42    14    18   ar
    43    14     4    1
    44    36    37    1
    45     4     5   ar
    46     2     1   ar
    47    44    46    1
    48    44    45    1
    49    44    47    1
    50    31    34    1
    51    31    32    1
    52     1     5   ar
    53     1     6    1
