@<TRIPOS>MOLECULE
mol_data/opt/cam/geoms/mol2/5ie5ie-.out
 26 27 0 0 0
SMALL
GASTEIGER

@<TRIPOS>ATOM
      1 C          -1.9862   -1.6928    0.7752 C.ar    1  LIG1       -0.0196
      2 C          -0.7561   -1.8234    0.2139 C.ar    1  LIG1       -0.0274
      3 C          -0.2227   -0.5476   -0.1945 C.ar    1  LIG1        0.0428
      4 C          -1.0634    0.5082    0.0831 C.ar    1  LIG1        0.0418
      5 S          -2.5183   -0.0544    0.8413 S.2     1  LIG1       -0.0946
      6 H          -2.6168   -2.4825    1.1586 H       1  LIG1        0.0696
      7 C          -0.0274   -3.1164    0.0146 C.3     1  LIG1       -0.0380
      8 H           0.9317   -3.1116    0.5406 H       1  LIG1        0.0278
      9 H           0.1904   -3.2842   -1.0440 H       1  LIG1        0.0278
     10 H          -0.6157   -3.9591    0.3821 H       1  LIG1        0.0278
     11 C           1.0281   -0.4224   -0.8654 C.1     1  LIG1       -0.0682
     12 C           2.0865   -0.3562   -1.4366 C.1     1  LIG1       -0.1139
     13 H           3.0168   -0.2876   -1.9518 H       1  LIG1        0.1232
     14 C          -0.8562    1.9273   -0.1854 C.ar    1  LIG1        0.0312
     15 C           0.1949    2.7207    0.1895 C.ar    1  LIG1       -0.0198
     16 C           0.0320    4.0749   -0.2769 C.ar    1  LIG1        0.0352
     17 C          -1.1304    4.2639   -0.9721 C.ar    1  LIG1       -0.0081
     18 S          -2.0465    2.8233   -1.0939 S.2     1  LIG1       -0.0946
     19 H          -1.4819    5.1854   -1.4123 H       1  LIG1        0.0706
     20 C           1.3687    2.2867    1.0097 C.3     1  LIG1       -0.0374
     21 H           1.6416    3.0666    1.7243 H       1  LIG1        0.0278
     22 H           2.2402    2.0963    0.3767 H       1  LIG1        0.0278
     23 H           1.1512    1.3665    1.5533 H       1  LIG1        0.0278
     24 C           0.9775    5.1119   -0.0205 C.1     1  LIG1       -0.0688
     25 C           1.7826    5.9785    0.2046 C.1     1  LIG1       -0.1139
     26 H           2.4915    6.7499    0.3992 H       1  LIG1        0.1232
@<TRIPOS>BOND
     1    13    12    1
     2    12    11    3
     3    19    17    1
     4    18    17   ar
     5    18    14   ar
     6     9     7    1
     7    17    16   ar
     8    11     3    1
     9    16    24    1
    10    16    15   ar
    11     3     4   ar
    12     3     2   ar
    13    14     4    1
    14    14    15   ar
    15    24    25    3
    16     7     2    1
    17     7    10    1
    18     7     8    1
    19     4     5   ar
    20    15    20    1
    21    25    26    1
    22     2     1   ar
    23    22    20    1
    24     1     5   ar
    25     1     6    1
    26    20    23    1
    27    20    21    1
