@<TRIPOS>MOLECULE
mol_data/opt/cam/geoms/mol2/5ie5ie-5ie.out
 38 40 0 0 0
SMALL
GASTEIGER

@<TRIPOS>ATOM
      1 C          -1.7054   -1.6100    1.5288 C.ar    1  LIG1       -0.0196
      2 C          -0.8076   -1.8285    0.5330 C.ar    1  LIG1       -0.0274
      3 C          -0.3202   -0.5898   -0.0207 C.ar    1  LIG1        0.0428
      4 C          -0.8576    0.5255    0.5841 C.ar    1  LIG1        0.0418
      5 S          -1.9712    0.0659    1.8317 S.2     1  LIG1       -0.0946
      6 H          -2.2324   -2.3547    2.1085 H       1  LIG1        0.0696
      7 C          -0.3726   -3.1732    0.0379 C.3     1  LIG1       -0.0380
      8 H           0.7079   -3.3022    0.1497 H       1  LIG1        0.0278
      9 H          -0.5995   -3.2911   -1.0255 H       1  LIG1        0.0278
     10 H          -0.8720   -3.9739    0.5864 H       1  LIG1        0.0278
     11 C           0.5856   -0.5481   -1.1199 C.1     1  LIG1       -0.0682
     12 C           1.3461   -0.5514   -2.0539 C.1     1  LIG1       -0.1139
     13 H           2.0103   -0.5432   -2.8872 H       1  LIG1        0.1232
     14 C          -0.6006    1.9304    0.2855 C.ar    1  LIG1        0.0318
     15 C           0.6002    2.5857    0.2434 C.ar    1  LIG1       -0.0191
     16 C           0.4420    3.9722   -0.1104 C.ar    1  LIG1        0.0435
     17 C          -0.8697    4.3465   -0.3031 C.ar    1  LIG1        0.0424
     18 S          -1.9290    2.9978   -0.0751 S.2     1  LIG1       -0.0856
     19 C           1.9360    1.9791    0.5377 C.3     1  LIG1       -0.0374
     20 H           2.5509    2.6742    1.1139 H       1  LIG1        0.0278
     21 H           2.4736    1.7481   -0.3864 H       1  LIG1        0.0278
     22 H           1.8309    1.0491    1.0976 H       1  LIG1        0.0278
     23 C           1.5528    4.8498   -0.2751 C.1     1  LIG1       -0.0682
     24 C           2.5120    5.5651   -0.4123 C.1     1  LIG1       -0.1139
     25 H           3.3556    6.2020   -0.5475 H       1  LIG1        0.1232
     26 C          -1.3947    5.6606   -0.6583 C.ar    1  LIG1        0.0312
     27 C          -1.1958    6.8575   -0.0236 C.ar    1  LIG1       -0.0198
     28 C          -1.8859    7.9335   -0.6895 C.ar    1  LIG1        0.0352
     29 C          -2.5869    7.5189   -1.7882 C.ar    1  LIG1       -0.0081
     30 S          -2.4260    5.8362   -2.0550 S.2     1  LIG1       -0.0946
     31 H          -3.1875    8.1309   -2.4449 H       1  LIG1        0.0706
     32 C          -0.3997    7.0630    1.2265 C.3     1  LIG1       -0.0374
     33 H          -0.9027    7.7761    1.8837 H       1  LIG1        0.0278
     34 H           0.5919    7.4641    0.9979 H       1  LIG1        0.0278
     35 H          -0.2577    6.1242    1.7633 H       1  LIG1        0.0278
     36 C          -1.8543    9.2855   -0.2354 C.1     1  LIG1       -0.0688
     37 C          -1.8206   10.4223    0.1598 C.1     1  LIG1       -0.1139
     38 H          -1.7945   11.4305    0.5037 H       1  LIG1        0.1232
@<TRIPOS>BOND
     1    13    12    1
     2    31    29    1
     3    30    29   ar
     4    30    26   ar
     5    12    11    3
     6    29    28   ar
     7    11     3    1
     8     9     7    1
     9    28    36    1
    10    28    27   ar
    11    26    17    1
    12    26    27   ar
    13    25    24    1
    14    24    23    3
    15    21    19    1
    16    17    16   ar
    17    17    18   ar
    18    23    16    1
    19    36    37    3
    20    16    15   ar
    21    18    14   ar
    22    27    32    1
    23     3     2   ar
    24     3     4   ar
    25     7     8    1
    26     7     2    1
    27     7    10    1
    28    37    38    1
    29    15    14   ar
    30    15    19    1
    31    14     4    1
    32     2     1   ar
    33    19    22    1
    34    19    20    1
    35     4     5   ar
    36    34    32    1
    37    32    35    1
    38    32    33    1
    39     1     5   ar
    40     1     6    1
