@<TRIPOS>MOLECULE
mol_data/opt/cam/geoms/mol2/5ie5ie-5ie-5ie-.out
 50 53 0 0 0
SMALL
GASTEIGER

@<TRIPOS>ATOM
      1 C          -1.1565   -1.4199    2.3126 C.ar    1  LIG1       -0.0196
      2 C          -0.8024   -1.7091    1.0334 C.ar    1  LIG1       -0.0274
      3 C          -0.4993   -0.5143    0.2858 C.ar    1  LIG1        0.0428
      4 C          -0.6229    0.6390    1.0295 C.ar    1  LIG1        0.0418
      5 S          -1.1194    0.2700    2.6496 S.2     1  LIG1       -0.0946
      6 H          -1.4413   -2.1194    3.0859 H       1  LIG1        0.0696
      7 C          -0.7424   -3.0827    0.4401 C.3     1  LIG1       -0.0380
      8 H           0.2640   -3.3096    0.0763 H       1  LIG1        0.0278
      9 H          -1.4180   -3.1695   -0.4157 H       1  LIG1        0.0278
     10 H          -1.0203   -3.8403    1.1750 H       1  LIG1        0.0278
     11 C          -0.1602   -0.5442   -1.0979 C.1     1  LIG1       -0.0682
     12 C           0.1163   -0.6070   -2.2685 C.1     1  LIG1       -0.1139
     13 H           0.3508   -0.6509   -3.3072 H       1  LIG1        0.1232
     14 C          -0.4010    2.0177    0.6062 C.ar    1  LIG1        0.0318
     15 C           0.7146    2.5617    0.0290 C.ar    1  LIG1       -0.0191
     16 C           0.5389    3.9604   -0.2625 C.ar    1  LIG1        0.0435
     17 C          -0.6889    4.4539    0.1207 C.ar    1  LIG1        0.0424
     18 S          -1.6570    3.2044    0.8236 S.2     1  LIG1       -0.0856
     19 C           1.9879    1.8333   -0.2657 C.3     1  LIG1       -0.0374
     20 H           2.8494    2.4630   -0.0319 H       1  LIG1        0.0278
     21 H           2.0500    1.5657   -1.3244 H       1  LIG1        0.0278
     22 H           2.0553    0.9100    0.3109 H       1  LIG1        0.0278
     23 C           1.5394    4.7355   -0.9180 C.1     1  LIG1       -0.0682
     24 C           2.4013    5.3628   -1.4783 C.1     1  LIG1       -0.1139
     25 H           3.1537    5.9225   -1.9846 H       1  LIG1        0.1232
     26 C          -1.2003    5.8137   -0.0143 C.ar    1  LIG1        0.0318
     27 C          -0.6427    6.9811    0.4323 C.ar    1  LIG1       -0.0191
     28 C          -1.4450    8.1249    0.0853 C.ar    1  LIG1        0.0435
     29 C          -2.6017    7.8033   -0.5904 C.ar    1  LIG1        0.0424
     30 S          -2.7139    6.0938   -0.8298 S.2     1  LIG1       -0.0856
     31 C           0.6323    7.1004    1.2061 C.3     1  LIG1       -0.0374
     32 H           0.5238    7.8366    2.0060 H       1  LIG1        0.0278
     33 H           1.4523    7.4297    0.5616 H       1  LIG1        0.0278
     34 H           0.9203    6.1428    1.6412 H       1  LIG1        0.0278
     35 C          -1.0448    9.4584    0.3898 C.1     1  LIG1       -0.0682
     36 C          -0.6763   10.5737    0.6561 C.1     1  LIG1       -0.1139
     37 H          -0.3524   11.5645    0.8776 H       1  LIG1        0.1232
     38 C          -3.6420    8.6995   -1.0839 C.ar    1  LIG1        0.0312
     39 C          -4.3619    9.6339   -0.3884 C.ar    1  LIG1       -0.0198
     40 C          -5.2978   10.3249   -1.2394 C.ar    1  LIG1        0.0352
     41 C          -5.2647    9.8879   -2.5349 C.ar    1  LIG1       -0.0081
     42 S          -4.1057    8.6501   -2.7654 S.2     1  LIG1       -0.0946
     43 H          -5.8717   10.2408   -3.3555 H       1  LIG1        0.0706
     44 C          -4.2503    9.9114    1.0776 C.3     1  LIG1       -0.0374
     45 H          -5.2406   10.0749    1.5091 H       1  LIG1        0.0278
     46 H          -3.6553   10.8106    1.2619 H       1  LIG1        0.0278
     47 H          -3.7670    9.0855    1.6007 H       1  LIG1        0.0278
     48 C          -6.1789   11.3443   -0.7708 C.1     1  LIG1       -0.0688
     49 C          -6.9184   12.2019   -0.3616 C.1     1  LIG1       -0.1139
     50 H          -7.5751   12.9621   -0.0064 H       1  LIG1        0.1232
@<TRIPOS>BOND
     1    43    41    1
     2    13    12    1
     3    42    41   ar
     4    42    38   ar
     5    41    40   ar
     6    12    11    3
     7    25    24    1
     8    24    23    3
     9    21    19    1
    10    40    48    1
    11    40    39   ar
    12    11     3    1
    13    38    29    1
    14    38    39   ar
    15    23    16    1
    16    30    29   ar
    17    30    26   ar
    18    48    49    3
    19    29    28   ar
    20     9     7    1
    21    39    44    1
    22    49    50    1
    23    19    20    1
    24    19    15    1
    25    19    22    1
    26    16    15   ar
    27    16    17   ar
    28    26    17    1
    29    26    27   ar
    30    15    14   ar
    31     8     7    1
    32    28    35    1
    33    28    27   ar
    34    17    18   ar
    35     3     4   ar
    36     3     2   ar
    37    35    36    3
    38    27    31    1
    39     7     2    1
    40     7    10    1
    41    33    31    1
    42    14    18   ar
    43    14     4    1
    44    36    37    1
    45     4     5   ar
    46     2     1   ar
    47    44    46    1
    48    44    45    1
    49    44    47    1
    50    31    34    1
    51    31    32    1
    52     1     5   ar
    53     1     6    1
