@<TRIPOS>MOLECULE
mol_data/opt/cam/geoms/mol2/5ie5ie5ie-.out
 38 40 0 0 0
SMALL
GASTEIGER

@<TRIPOS>ATOM
      1 C          -1.7247   -1.6115    1.5092 C.ar    1  LIG1       -0.0196
      2 C          -0.8151   -1.8290    0.5240 C.ar    1  LIG1       -0.0274
      3 C          -0.3208   -0.5898   -0.0223 C.ar    1  LIG1        0.0428
      4 C          -0.8651    0.5250    0.5772 C.ar    1  LIG1        0.0418
      5 S          -1.9938    0.0642    1.8108 S.2     1  LIG1       -0.0946
      6 H          -2.2588   -2.3567    2.0817 H       1  LIG1        0.0696
      7 C          -0.3744   -3.1733    0.0327 C.3     1  LIG1       -0.0380
      8 H           0.7046   -3.3026    0.1573 H       1  LIG1        0.0278
      9 H          -0.5885   -3.2899   -1.0335 H       1  LIG1        0.0278
     10 H          -0.8805   -3.9744    0.5743 H       1  LIG1        0.0278
     11 C           0.5982   -0.5471   -1.1104 C.1     1  LIG1       -0.0682
     12 C           1.3698   -0.5495   -2.0353 C.1     1  LIG1       -0.1139
     13 H           2.0440   -0.5404   -2.8606 H       1  LIG1        0.1232
     14 C          -0.6042    1.9301    0.2834 C.ar    1  LIG1        0.0318
     15 C           0.5971    2.5852    0.2565 C.ar    1  LIG1       -0.0191
     16 C           0.4434    3.9722   -0.0976 C.ar    1  LIG1        0.0435
     17 C          -0.8658    4.3469   -0.3057 C.ar    1  LIG1        0.0424
     18 S          -1.9280    2.9982   -0.0920 S.2     1  LIG1       -0.0856
     19 C           1.9292    1.9780    0.5662 C.3     1  LIG1       -0.0374
     20 H           2.5372    2.6723    1.1506 H       1  LIG1        0.0278
     21 H           2.4778    1.7481   -0.3517 H       1  LIG1        0.0278
     22 H           1.8171    1.0474    1.1237 H       1  LIG1        0.0278
     23 C           1.5564    4.8497   -0.2479 C.1     1  LIG1       -0.0682
     24 C           2.5173    5.5649   -0.3727 C.1     1  LIG1       -0.1139
     25 H           3.3626    6.2019   -0.4970 H       1  LIG1        0.1232
     26 C          -1.3862    5.6616   -0.6657 C.ar    1  LIG1        0.0312
     27 C          -1.1947    6.8577   -0.0273 C.ar    1  LIG1       -0.0198
     28 C          -1.8764    7.9346   -0.7003 C.ar    1  LIG1        0.0352
     29 C          -2.5643    7.5215   -1.8078 C.ar    1  LIG1       -0.0081
     30 S          -2.4005    5.8390   -2.0745 S.2     1  LIG1       -0.0946
     31 H          -3.1568    8.1343   -2.4710 H       1  LIG1        0.0706
     32 C          -0.4136    7.0616    1.2326 C.3     1  LIG1       -0.0374
     33 H          -0.9244    7.7741    1.8845 H       1  LIG1        0.0278
     34 H           0.5807    7.4629    1.0164 H       1  LIG1        0.0278
     35 H          -0.2783    6.1222    1.7699 H       1  LIG1        0.0278
     36 C          -1.8500    9.2861   -0.2442 C.1     1  LIG1       -0.0688
     37 C          -1.8210   10.4225    0.1527 C.1     1  LIG1       -0.1139
     38 H          -1.7988   11.4303    0.4979 H       1  LIG1        0.1232
@<TRIPOS>BOND
     1    13    12    1
     2    31    29    1
     3    30    29   ar
     4    30    26   ar
     5    12    11    3
     6    29    28   ar
     7    11     3    1
     8     9     7    1
     9    28    36    1
    10    28    27   ar
    11    26    17    1
    12    26    27   ar
    13    25    24    1
    14    24    23    3
    15    21    19    1
    16    17    16   ar
    17    17    18   ar
    18    23    16    1
    19    36    37    3
    20    16    15   ar
    21    18    14   ar
    22    27    32    1
    23     3     2   ar
    24     3     4   ar
    25     7     8    1
    26     7     2    1
    27     7    10    1
    28    37    38    1
    29    15    14   ar
    30    15    19    1
    31    14     4    1
    32     2     1   ar
    33    19    22    1
    34    19    20    1
    35     4     5   ar
    36    34    32    1
    37    32    35    1
    38    32    33    1
    39     1     5   ar
    40     1     6    1
