@<TRIPOS>MOLECULE
mol_data/opt/cam/geoms/mol2/5ie5ie5ie-5ie-.out
 50 53 0 0 0
SMALL
GASTEIGER

@<TRIPOS>ATOM
      1 C          -1.1949   -1.4111    2.3215 C.ar    1  LIG1       -0.0196
      2 C          -0.8253   -1.7058    1.0479 C.ar    1  LIG1       -0.0274
      3 C          -0.5110   -0.5143    0.2995 C.ar    1  LIG1        0.0428
      4 C          -0.6422    0.6421    1.0371 C.ar    1  LIG1        0.0418
      5 S          -1.1596    0.2801    2.6523 S.2     1  LIG1       -0.0946
      6 H          -1.4904   -2.1072    3.0938 H       1  LIG1        0.0696
      7 C          -0.7598   -3.0818    0.4608 C.3     1  LIG1       -0.0380
      8 H           0.2507   -3.3116    0.1106 H       1  LIG1        0.0278
      9 H          -1.4246   -3.1709   -0.4032 H       1  LIG1        0.0278
     10 H          -1.0481   -3.8361    1.1950 H       1  LIG1        0.0278
     11 C          -0.1546   -0.5501   -1.0797 C.1     1  LIG1       -0.0682
     12 C           0.1365   -0.6180   -2.2464 C.1     1  LIG1       -0.1139
     13 H           0.3840   -0.6663   -3.2819 H       1  LIG1        0.1232
     14 C          -0.4129    2.0187    0.6113 C.ar    1  LIG1        0.0318
     15 C           0.7106    2.5588    0.0461 C.ar    1  LIG1       -0.0191
     16 C           0.5408    3.9566   -0.2531 C.ar    1  LIG1        0.0435
     17 C          -0.6910    4.4534    0.1127 C.ar    1  LIG1        0.0424
     18 S          -1.6699    3.2081    0.8083 S.2     1  LIG1       -0.0856
     19 C           1.9864    1.8274   -0.2297 C.3     1  LIG1       -0.0374
     20 H           2.8458    2.4569    0.0121 H       1  LIG1        0.0278
     21 H           2.0613    1.5553   -1.2864 H       1  LIG1        0.0278
     22 H           2.0453    0.9065    0.3515 H       1  LIG1        0.0278
     23 C           1.5505    4.7277   -0.8988 C.1     1  LIG1       -0.0682
     24 C           2.4204    5.3516   -1.4507 C.1     1  LIG1       -0.1139
     25 H           3.1799    5.9082   -1.9498 H       1  LIG1        0.1232
     26 C          -1.1987    5.8135   -0.0340 C.ar    1  LIG1        0.0318
     27 C          -0.6450    6.9818    0.4152 C.ar    1  LIG1       -0.0191
     28 C          -1.4412    8.1254    0.0537 C.ar    1  LIG1        0.0435
     29 C          -2.5897    7.8028   -0.6353 C.ar    1  LIG1        0.0424
     30 S          -2.7014    6.0926   -0.8696 S.2     1  LIG1       -0.0856
     31 C           0.6203    7.1022    1.2046 C.3     1  LIG1       -0.0374
     32 H           0.5029    7.8418    2.0000 H       1  LIG1        0.0278
     33 H           1.4489    7.4276    0.5691 H       1  LIG1        0.0278
     34 H           0.9012    6.1459    1.6471 H       1  LIG1        0.0278
     35 C          -1.0428    9.4595    0.3580 C.1     1  LIG1       -0.0682
     36 C          -0.6760   10.5752    0.6248 C.1     1  LIG1       -0.1139
     37 H          -0.3535   11.5664    0.8465 H       1  LIG1        0.1232
     38 C          -3.6223    8.6986   -1.1454 C.ar    1  LIG1        0.0312
     39 C          -4.3496    9.6367   -0.4626 C.ar    1  LIG1       -0.0198
     40 C          -5.2737   10.3257   -1.3279 C.ar    1  LIG1        0.0352
     41 C          -5.2249    9.8837   -2.6213 C.ar    1  LIG1       -0.0081
     42 S          -4.0649    8.6434   -2.8323 S.2     1  LIG1       -0.0946
     43 H          -5.8210   10.2344   -3.4508 H       1  LIG1        0.0706
     44 C          -4.2560    9.9197    1.0036 C.3     1  LIG1       -0.0374
     45 H          -5.2514   10.0866    1.4219 H       1  LIG1        0.0278
     46 H          -3.6618   10.8185    1.1920 H       1  LIG1        0.0278
     47 H          -3.7809    9.0949    1.5360 H       1  LIG1        0.0278
     48 C          -6.1591   11.3482   -0.8744 C.1     1  LIG1       -0.0688
     49 C          -6.9025   12.2084   -0.4779 C.1     1  LIG1       -0.1139
     50 H          -7.5624   12.9710   -0.1339 H       1  LIG1        0.1232
@<TRIPOS>BOND
     1    43    41    1
     2    13    12    1
     3    42    41   ar
     4    42    38   ar
     5    41    40   ar
     6    12    11    3
     7    25    24    1
     8    24    23    3
     9    40    48    1
    10    40    39   ar
    11    21    19    1
    12    38    29    1
    13    38    39   ar
    14    11     3    1
    15    23    16    1
    16    48    49    3
    17    30    29   ar
    18    30    26   ar
    19    29    28   ar
    20    49    50    1
    21    39    44    1
    22     9     7    1
    23    16    15   ar
    24    16    17   ar
    25    19    20    1
    26    19    15    1
    27    19    22    1
    28    26    17    1
    29    26    27   ar
    30    15    14   ar
    31    28    35    1
    32    28    27   ar
    33     8     7    1
    34    17    18   ar
    35     3     4   ar
    36     3     2   ar
    37    35    36    3
    38    27    31    1
    39     7     2    1
    40     7    10    1
    41    33    31    1
    42    14    18   ar
    43    14     4    1
    44    36    37    1
    45    44    46    1
    46    44    45    1
    47    44    47    1
    48     4     5   ar
    49     2     1   ar
    50    31    34    1
    51    31    32    1
    52     1     5   ar
    53     1     6    1
