@<TRIPOS>MOLECULE
mol_data/opt/cam/geoms/mol2/5ie5ie-5ie-.out
 38 40 0 0 0
SMALL
GASTEIGER

@<TRIPOS>ATOM
      1 C          -1.6889   -1.6180    1.5265 C.ar    1  LIG1       -0.0196
      2 C          -0.7943   -1.8314    0.5267 C.ar    1  LIG1       -0.0274
      3 C          -0.3118   -0.5899   -0.0250 C.ar    1  LIG1        0.0428
      4 C          -0.8494    0.5223    0.5853 C.ar    1  LIG1        0.0418
      5 S          -1.9574    0.0563    1.8356 S.2     1  LIG1       -0.0946
      6 H          -2.2121   -2.3657    2.1058 H       1  LIG1        0.0696
      7 C          -0.3581   -3.1736    0.0259 C.3     1  LIG1       -0.0380
      8 H           0.7231   -3.3004    0.1332 H       1  LIG1        0.0278
      9 H          -0.5887   -3.2887   -1.0370 H       1  LIG1        0.0278
     10 H          -0.8535   -3.9770    0.5738 H       1  LIG1        0.0278
     11 C           0.5898   -0.5427   -1.1273 C.1     1  LIG1       -0.0682
     12 C           1.3469   -0.5414   -2.0641 C.1     1  LIG1       -0.1139
     13 H           2.0080   -0.5290   -2.8999 H       1  LIG1        0.1232
     14 C          -0.5967    1.9287    0.2901 C.ar    1  LIG1        0.0318
     15 C           0.6024    2.5869    0.2456 C.ar    1  LIG1       -0.0191
     16 C           0.4397    3.9742   -0.1032 C.ar    1  LIG1        0.0435
     17 C          -0.8736    4.3460   -0.2899 C.ar    1  LIG1        0.0424
     18 S          -1.9289    2.9942   -0.0622 S.2     1  LIG1       -0.0856
     19 C           1.9407    1.9824    0.5330 C.3     1  LIG1       -0.0374
     20 H           2.5561    2.6772    1.1091 H       1  LIG1        0.0278
     21 H           2.4753    1.7557   -0.3938 H       1  LIG1        0.0278
     22 H           1.8398    1.0505    1.0904 H       1  LIG1        0.0278
     23 C           1.5479    4.8548   -0.2694 C.1     1  LIG1       -0.0682
     24 C           2.5050    5.5727   -0.4079 C.1     1  LIG1       -0.1139
     25 H           3.3466    6.2120   -0.5442 H       1  LIG1        0.1232
     26 C          -1.4029    5.6600   -0.6390 C.ar    1  LIG1        0.0312
     27 C          -1.2043    6.8554   -0.0014 C.ar    1  LIG1       -0.0198
     28 C          -1.8994    7.9319   -0.6614 C.ar    1  LIG1        0.0352
     29 C          -2.6036    7.5191   -1.7587 C.ar    1  LIG1       -0.0081
     30 S          -2.4398    5.8376   -2.0313 S.2     1  LIG1       -0.0946
     31 H          -3.2080    8.1318   -2.4113 H       1  LIG1        0.0706
     32 C          -0.4040    7.0589    1.2464 C.3     1  LIG1       -0.0374
     33 H          -0.9062    7.7688    1.9076 H       1  LIG1        0.0278
     34 H           0.5857    7.4631    1.0153 H       1  LIG1        0.0278
     35 H          -0.2579    6.1188    1.7797 H       1  LIG1        0.0278
     36 C          -1.8692    9.2825   -0.2031 C.1     1  LIG1       -0.0688
     37 C          -1.8367   10.4182    0.1955 C.1     1  LIG1       -0.1139
     38 H          -1.8117   11.4254    0.5424 H       1  LIG1        0.1232
@<TRIPOS>BOND
     1    13    12    1
     2    31    29    1
     3    12    11    3
     4    30    29   ar
     5    30    26   ar
     6    29    28   ar
     7    11     3    1
     8     9     7    1
     9    28    36    1
    10    28    27   ar
    11    26    17    1
    12    26    27   ar
    13    25    24    1
    14    24    23    3
    15    21    19    1
    16    17    16   ar
    17    17    18   ar
    18    23    16    1
    19    36    37    3
    20    16    15   ar
    21    18    14   ar
    22     3     2   ar
    23     3     4   ar
    24    27    32    1
    25     7     8    1
    26     7     2    1
    27     7    10    1
    28    37    38    1
    29    15    14   ar
    30    15    19    1
    31    14     4    1
    32     2     1   ar
    33    19    22    1
    34    19    20    1
    35     4     5   ar
    36    34    32    1
    37    32    35    1
    38    32    33    1
    39     1     5   ar
    40     1     6    1
