@<TRIPOS>MOLECULE
mol_data/opt/cam/geoms/mol2/5ie5ie-5ie5ie-.out
 50 53 0 0 0
SMALL
GASTEIGER

@<TRIPOS>ATOM
      1 C          -1.1422   -1.4126    2.3347 C.ar    1  LIG1       -0.0196
      2 C          -0.7923   -1.7053    1.0551 C.ar    1  LIG1       -0.0274
      3 C          -0.4929   -0.5125    0.3027 C.ar    1  LIG1        0.0428
      4 C          -0.6151    0.6429    1.0433 C.ar    1  LIG1        0.0418
      5 S          -1.1056    0.2784    2.6663 S.2     1  LIG1       -0.0946
      6 H          -1.4237   -2.1100    3.1110 H       1  LIG1        0.0696
      7 C          -0.7329   -3.0807    0.4658 C.3     1  LIG1       -0.0380
      8 H           0.2724   -3.3078    0.0993 H       1  LIG1        0.0278
      9 H          -1.4113   -3.1708   -0.3874 H       1  LIG1        0.0278
     10 H          -1.0075   -3.8363    1.2040 H       1  LIG1        0.0278
     11 C          -0.1586   -0.5463   -1.0820 C.1     1  LIG1       -0.0682
     12 C           0.1140   -0.6125   -2.2533 C.1     1  LIG1       -0.1139
     13 H           0.3449   -0.6594   -3.2926 H       1  LIG1        0.1232
     14 C          -0.3960    2.0205    0.6150 C.ar    1  LIG1        0.0318
     15 C           0.7170    2.5638    0.0323 C.ar    1  LIG1       -0.0191
     16 C           0.5390    3.9614   -0.2629 C.ar    1  LIG1        0.0435
     17 C          -0.6880    4.4549    0.1230 C.ar    1  LIG1        0.0424
     18 S          -1.6525    3.2067    0.8332 S.2     1  LIG1       -0.0856
     19 C           1.9900    1.8357   -0.2645 C.3     1  LIG1       -0.0374
     20 H           2.8517    2.4671   -0.0356 H       1  LIG1        0.0278
     21 H           2.0487    1.5649   -1.3225 H       1  LIG1        0.0278
     22 H           2.0603    0.9144    0.3147 H       1  LIG1        0.0278
     23 C           1.5364    4.7355   -0.9241 C.1     1  LIG1       -0.0682
     24 C           2.3958    5.3619   -1.4893 C.1     1  LIG1       -0.1139
     25 H           3.1459    5.9208   -2.0000 H       1  LIG1        0.1232
     26 C          -1.2013    5.8138   -0.0144 C.ar    1  LIG1        0.0318
     27 C          -0.6433    6.9831    0.4268 C.ar    1  LIG1       -0.0191
     28 C          -1.4479    8.1251    0.0790 C.ar    1  LIG1        0.0435
     29 C          -2.6066    7.8002   -0.5917 C.ar    1  LIG1        0.0424
     30 S          -2.7179    6.0899   -0.8255 S.2     1  LIG1       -0.0856
     31 C           0.6343    7.1061    1.1958 C.3     1  LIG1       -0.0374
     32 H           0.5278    7.8446    1.9937 H       1  LIG1        0.0278
     33 H           1.4517    7.4341    0.5474 H       1  LIG1        0.0278
     34 H           0.9247    6.1501    1.6328 H       1  LIG1        0.0278
     35 C          -1.0480    9.4599    0.3780 C.1     1  LIG1       -0.0682
     36 C          -0.6796   10.5763    0.6396 C.1     1  LIG1       -0.1139
     37 H          -0.3559   11.5681    0.8569 H       1  LIG1        0.1232
     38 C          -3.6494    8.6939   -1.0844 C.ar    1  LIG1        0.0312
     39 C          -4.3679    9.6297   -0.3893 C.ar    1  LIG1       -0.0198
     40 C          -5.3074   10.3172   -1.2392 C.ar    1  LIG1        0.0352
     41 C          -5.2783    9.8762   -2.5334 C.ar    1  LIG1       -0.0081
     42 S          -4.1189    8.6388   -2.7641 S.2     1  LIG1       -0.0946
     43 H          -5.8885   10.2260   -3.3530 H       1  LIG1        0.0706
     44 C          -4.2515    9.9119    1.0755 C.3     1  LIG1       -0.0374
     45 H          -5.2405   10.0757    1.5098 H       1  LIG1        0.0278
     46 H          -3.6568   10.8121    1.2549 H       1  LIG1        0.0278
     47 H          -3.7657    9.0880    1.5995 H       1  LIG1        0.0278
     48 C          -6.1879   11.3371   -0.7707 C.1     1  LIG1       -0.0688
     49 C          -6.9269   12.1952   -0.3616 C.1     1  LIG1       -0.1139
     50 H          -7.5831   12.9559   -0.0064 H       1  LIG1        0.1232
@<TRIPOS>BOND
     1    43    41    1
     2    13    12    1
     3    42    41   ar
     4    42    38   ar
     5    41    40   ar
     6    12    11    3
     7    25    24    1
     8    24    23    3
     9    21    19    1
    10    40    48    1
    11    40    39   ar
    12    38    29    1
    13    38    39   ar
    14    11     3    1
    15    23    16    1
    16    30    29   ar
    17    30    26   ar
    18    48    49    3
    19    29    28   ar
    20    39    44    1
    21     9     7    1
    22    49    50    1
    23    19    20    1
    24    19    15    1
    25    19    22    1
    26    16    15   ar
    27    16    17   ar
    28    26    17    1
    29    26    27   ar
    30    15    14   ar
    31    28    35    1
    32    28    27   ar
    33     8     7    1
    34    17    18   ar
    35     3     4   ar
    36     3     2   ar
    37    35    36    3
    38    27    31    1
    39     7     2    1
    40     7    10    1
    41    33    31    1
    42    14    18   ar
    43    14     4    1
    44    36    37    1
    45     4     5   ar
    46     2     1   ar
    47    44    46    1
    48    44    45    1
    49    44    47    1
    50    31    34    1
    51    31    32    1
    52     1     5   ar
    53     1     6    1
