@<TRIPOS>MOLECULE
mol_data/opt/cam/geoms/mol2/5ie5ie5ie5ie-.out
 50 53 0 0 0
SMALL
GASTEIGER

@<TRIPOS>ATOM
      1 C          -1.1713   -1.4056    2.3380 C.ar    1  LIG1       -0.0196
      2 C          -0.8058   -1.7022    1.0637 C.ar    1  LIG1       -0.0274
      3 C          -0.4971   -0.5117    0.3115 C.ar    1  LIG1        0.0428
      4 C          -0.6282    0.6460    1.0470 C.ar    1  LIG1        0.0418
      5 S          -1.1385    0.2864    2.6650 S.2     1  LIG1       -0.0946
      6 H          -1.4622   -2.1006    3.1130 H       1  LIG1        0.0696
      7 C          -0.7395   -3.0794    0.4793 C.3     1  LIG1       -0.0380
      8 H           0.2702   -3.3076    0.1257 H       1  LIG1        0.0278
      9 H          -1.4075   -3.1719   -0.3817 H       1  LIG1        0.0278
     10 H          -1.0231   -3.8327    1.2164 H       1  LIG1        0.0278
     11 C          -0.1460   -0.5497   -1.0690 C.1     1  LIG1       -0.0682
     12 C           0.1408   -0.6194   -2.2367 C.1     1  LIG1       -0.1139
     13 H           0.3844   -0.6694   -3.2730 H       1  LIG1        0.1232
     14 C          -0.4037    2.0222    0.6173 C.ar    1  LIG1        0.0318
     15 C           0.7163    2.5637    0.0466 C.ar    1  LIG1       -0.0191
     16 C           0.5421    3.9604   -0.2550 C.ar    1  LIG1        0.0435
     17 C          -0.6894    4.4552    0.1145 C.ar    1  LIG1        0.0424
     18 S          -1.6626    3.2092    0.8166 S.2     1  LIG1       -0.0856
     19 C           1.9928    1.8346   -0.2326 C.3     1  LIG1       -0.0374
     20 H           2.8517    2.4665    0.0051 H       1  LIG1        0.0278
     21 H           2.0645    1.5609   -1.2890 H       1  LIG1        0.0278
     22 H           2.0558    0.9149    0.3501 H       1  LIG1        0.0278
     23 C           1.5476    4.7324   -0.9064 C.1     1  LIG1       -0.0682
     24 C           2.4139    5.3571   -1.4630 C.1     1  LIG1       -0.1139
     25 H           3.1702    5.9144   -1.9661 H       1  LIG1        0.1232
     26 C          -1.2008    5.8137   -0.0333 C.ar    1  LIG1        0.0318
     27 C          -0.6481    6.9843    0.4111 C.ar    1  LIG1       -0.0191
     28 C          -1.4483    8.1253    0.0501 C.ar    1  LIG1        0.0435
     29 C          -2.5987    7.7985   -0.6337 C.ar    1  LIG1        0.0424
     30 S          -2.7074    6.0875   -0.8636 S.2     1  LIG1       -0.0856
     31 C           0.6201    7.1095    1.1953 C.3     1  LIG1       -0.0374
     32 H           0.5039    7.8504    1.9897 H       1  LIG1        0.0278
     33 H           1.4453    7.4357    0.5559 H       1  LIG1        0.0278
     34 H           0.9051    6.1548    1.6386 H       1  LIG1        0.0278
     35 C          -1.0518    9.4610    0.3499 C.1     1  LIG1       -0.0682
     36 C          -0.6866   10.5782    0.6127 C.1     1  LIG1       -0.1139
     37 H          -0.3654   11.5706    0.8309 H       1  LIG1        0.1232
     38 C          -3.6354    8.6908   -1.1417 C.ar    1  LIG1        0.0312
     39 C          -4.3622    9.6288   -0.4582 C.ar    1  LIG1       -0.0198
     40 C          -5.2912   10.3137   -1.3216 C.ar    1  LIG1        0.0352
     41 C          -5.2464    9.8689   -2.6141 C.ar    1  LIG1       -0.0081
     42 S          -4.0844    8.6307   -2.8268 S.2     1  LIG1       -0.0946
     43 H          -5.8464   10.2163   -3.4421 H       1  LIG1        0.0706
     44 C          -4.2636    9.9154    1.0070 C.3     1  LIG1       -0.0374
     45 H          -5.2578   10.0803    1.4288 H       1  LIG1        0.0278
     46 H          -3.6712   10.8162    1.1909 H       1  LIG1        0.0278
     47 H          -3.7840    9.0931    1.5393 H       1  LIG1        0.0278
     48 C          -6.1772   11.3352   -0.8669 C.1     1  LIG1       -0.0688
     49 C          -6.9209   12.1946   -0.4695 C.1     1  LIG1       -0.1139
     50 H          -7.5813   12.9564   -0.1246 H       1  LIG1        0.1232
@<TRIPOS>BOND
     1    43    41    1
     2    13    12    1
     3    42    41   ar
     4    42    38   ar
     5    41    40   ar
     6    12    11    3
     7    25    24    1
     8    24    23    3
     9    40    48    1
    10    40    39   ar
    11    21    19    1
    12    38    29    1
    13    38    39   ar
    14    11     3    1
    15    23    16    1
    16    48    49    3
    17    30    29   ar
    18    30    26   ar
    19    29    28   ar
    20    49    50    1
    21    39    44    1
    22     9     7    1
    23    16    15   ar
    24    16    17   ar
    25    19    20    1
    26    19    15    1
    27    19    22    1
    28    26    17    1
    29    26    27   ar
    30    15    14   ar
    31    28    35    1
    32    28    27   ar
    33    17    18   ar
    34     8     7    1
    35     3     4   ar
    36     3     2   ar
    37    35    36    3
    38    27    31    1
    39     7     2    1
    40     7    10    1
    41    33    31    1
    42    36    37    1
    43    14    18   ar
    44    14     4    1
    45    44    46    1
    46    44    45    1
    47    44    47    1
    48     4     5   ar
    49     2     1   ar
    50    31    34    1
    51    31    32    1
    52     1     5   ar
    53     1     6    1
