@<TRIPOS>MOLECULE
mol_data/opt/cam/geoms/mol2/5ie5ie.out
 26 27 0 0 0
SMALL
GASTEIGER

@<TRIPOS>ATOM
      1 C          -1.9900   -1.6953    0.7664 C.ar    1  LIG1       -0.0196
      2 C          -0.7561   -1.8243    0.2135 C.ar    1  LIG1       -0.0274
      3 C          -0.2206   -0.5474   -0.1890 C.ar    1  LIG1        0.0428
      4 C          -1.0637    0.5074    0.0845 C.ar    1  LIG1        0.0418
      5 S          -2.5236   -0.0573    0.8316 S.2     1  LIG1       -0.0946
      6 H          -2.6229   -2.4860    1.1441 H       1  LIG1        0.0696
      7 C          -0.0252   -3.1165    0.0171 C.3     1  LIG1       -0.0380
      8 H           0.9302   -3.1120    0.5496 H       1  LIG1        0.0278
      9 H           0.2000   -3.2824   -1.0404 H       1  LIG1        0.0278
     10 H          -0.6155   -3.9602    0.3790 H       1  LIG1        0.0278
     11 C           1.0348   -0.4204   -0.8510 C.1     1  LIG1       -0.0682
     12 C           2.0972   -0.3528   -1.4146 C.1     1  LIG1       -0.1139
     13 H           3.0310   -0.2830   -1.9232 H       1  LIG1        0.1232
     14 C          -0.8555    1.9271   -0.1801 C.ar    1  LIG1        0.0312
     15 C           0.1926    2.7204    0.2032 C.ar    1  LIG1       -0.0198
     16 C           0.0320    4.0753   -0.2618 C.ar    1  LIG1        0.0352
     17 C          -1.1258    4.2650   -0.9644 C.ar    1  LIG1       -0.0081
     18 S          -2.0402    2.8240   -1.0950 S.2     1  LIG1       -0.0946
     19 H          -1.4749    5.1870   -1.4053 H       1  LIG1        0.0706
     20 C           1.3611    2.2857    1.0306 C.3     1  LIG1       -0.0374
     21 H           1.6282    3.0643    1.7489 H       1  LIG1        0.0278
     22 H           2.2371    2.0976    0.4033 H       1  LIG1        0.0278
     23 H           1.1407    1.3641    1.5706 H       1  LIG1        0.0278
     24 C           0.9751    5.1125    0.0027 C.1     1  LIG1       -0.0688
     25 C           1.7783    5.9790    0.2348 C.1     1  LIG1       -0.1139
     26 H           2.4853    6.7505    0.4355 H       1  LIG1        0.1232
@<TRIPOS>BOND
     1    13    12    1
     2    12    11    3
     3    19    17    1
     4    18    17   ar
     5    18    14   ar
     6     9     7    1
     7    17    16   ar
     8    11     3    1
     9    16    24    1
    10    16    15   ar
    11     3     4   ar
    12     3     2   ar
    13    14     4    1
    14    14    15   ar
    15    24    25    3
    16     7     2    1
    17     7    10    1
    18     7     8    1
    19     4     5   ar
    20    15    20    1
    21     2     1   ar
    22    25    26    1
    23    22    20    1
    24     1     5   ar
    25     1     6    1
    26    20    23    1
    27    20    21    1
