@<TRIPOS>MOLECULE
mol_data/opt/cam/geoms/mol2/5ie5ie5ie5ie.out
 50 53 0 0 0
SMALL
GASTEIGER

@<TRIPOS>ATOM
      1 C          -1.1694   -1.4113    2.3279 C.ar    1  LIG1       -0.0196
      2 C          -0.8113   -1.7056    1.0510 C.ar    1  LIG1       -0.0274
      3 C          -0.5047   -0.5138    0.2998 C.ar    1  LIG1        0.0428
      4 C          -0.6298    0.6424    1.0387 C.ar    1  LIG1        0.0418
      5 S          -1.1320    0.2798    2.6586 S.2     1  LIG1       -0.0946
      6 H          -1.4573   -2.1076    3.1028 H       1  LIG1        0.0696
      7 C          -0.7504   -3.0815    0.4630 C.3     1  LIG1       -0.0380
      8 H           0.2569   -3.3106    0.1035 H       1  LIG1        0.0278
      9 H          -1.4232   -3.1710   -0.3947 H       1  LIG1        0.0278
     10 H          -1.0314   -3.8361    1.1999 H       1  LIG1        0.0278
     11 C          -0.1610   -0.5492   -1.0826 C.1     1  LIG1       -0.0682
     12 C           0.1194   -0.6167   -2.2520 C.1     1  LIG1       -0.1139
     13 H           0.3573   -0.6647   -3.2897 H       1  LIG1        0.1232
     14 C          -0.4053    2.0192    0.6110 C.ar    1  LIG1        0.0318
     15 C           0.7125    2.5601    0.0355 C.ar    1  LIG1       -0.0191
     16 C           0.5391    3.9578   -0.2619 C.ar    1  LIG1        0.0435
     17 C          -0.6896    4.4538    0.1153 C.ar    1  LIG1        0.0424
     18 S          -1.6612    3.2078    0.8198 S.2     1  LIG1       -0.0856
     19 C           1.9863    1.8296   -0.2522 C.3     1  LIG1       -0.0374
     20 H           2.8475    2.4595   -0.0178 H       1  LIG1        0.0278
     21 H           2.0517    1.5580   -1.3096 H       1  LIG1        0.0278
     22 H           2.0509    0.9084    0.3280 H       1  LIG1        0.0278
     23 C           1.5423    4.7296   -0.9169 C.1     1  LIG1       -0.0682
     24 C           2.4066    5.3542   -1.4767 C.1     1  LIG1       -0.1139
     25 H           3.1612    5.9113   -1.9826 H       1  LIG1        0.1232
     26 C          -1.1995    5.8135   -0.0265 C.ar    1  LIG1        0.0318
     27 C          -0.6424    6.9822    0.4176 C.ar    1  LIG1       -0.0191
     28 C          -1.4426    8.1253    0.0636 C.ar    1  LIG1        0.0435
     29 C          -2.5973    7.8021   -0.6147 C.ar    1  LIG1        0.0424
     30 S          -2.7101    6.0918   -0.8481 S.2     1  LIG1       -0.0856
     31 C           0.6301    7.1033    1.1952 C.3     1  LIG1       -0.0374
     32 H           0.5195    7.8426    1.9919 H       1  LIG1        0.0278
     33 H           1.4525    7.4296    0.5522 H       1  LIG1        0.0278
     34 H           0.9159    6.1472    1.6348 H       1  LIG1        0.0278
     35 C          -1.0423    9.4596    0.3643 C.1     1  LIG1       -0.0682
     36 C          -0.6738   10.5756    0.6277 C.1     1  LIG1       -0.1139
     37 H          -0.3498   11.5670    0.8465 H       1  LIG1        0.1232
     38 C          -3.6352    8.6972   -1.1151 C.ar    1  LIG1        0.0312
     39 C          -4.3567    9.6348   -0.4256 C.ar    1  LIG1       -0.0198
     40 C          -5.2892   10.3234   -1.2823 C.ar    1  LIG1        0.0352
     41 C          -5.2521    9.8814   -2.5760 C.ar    1  LIG1       -0.0081
     42 S          -4.0933    8.6418   -2.7979 S.2     1  LIG1       -0.0946
     43 H          -5.8560   10.2318   -3.4000 H       1  LIG1        0.0706
     44 C          -4.2497    9.9178    1.0397 C.3     1  LIG1       -0.0374
     45 H          -5.2413   10.0836    1.4673 H       1  LIG1        0.0278
     46 H          -3.6547   10.8172    1.2226 H       1  LIG1        0.0278
     47 H          -3.7688    9.0935    1.5676 H       1  LIG1        0.0278
     48 C          -6.1710   11.3452   -0.8205 C.1     1  LIG1       -0.0688
     49 C          -6.9112   12.2050   -0.4171 C.1     1  LIG1       -0.1139
     50 H          -7.5684   12.9671   -0.0669 H       1  LIG1        0.1232
@<TRIPOS>BOND
     1    43    41    1
     2    13    12    1
     3    42    41   ar
     4    42    38   ar
     5    41    40   ar
     6    12    11    3
     7    25    24    1
     8    24    23    3
     9    21    19    1
    10    40    48    1
    11    40    39   ar
    12    38    29    1
    13    38    39   ar
    14    11     3    1
    15    23    16    1
    16    30    29   ar
    17    30    26   ar
    18    48    49    3
    19    29    28   ar
    20    39    44    1
    21    49    50    1
    22     9     7    1
    23    16    15   ar
    24    16    17   ar
    25    19    20    1
    26    19    15    1
    27    19    22    1
    28    26    17    1
    29    26    27   ar
    30    15    14   ar
    31    28    35    1
    32    28    27   ar
    33     8     7    1
    34    17    18   ar
    35     3     4   ar
    36     3     2   ar
    37    35    36    3
    38    27    31    1
    39     7     2    1
    40     7    10    1
    41    33    31    1
    42    14    18   ar
    43    14     4    1
    44    36    37    1
    45     4     5   ar
    46    44    46    1
    47    44    45    1
    48    44    47    1
    49     2     1   ar
    50    31    34    1
    51    31    32    1
    52     1     5   ar
    53     1     6    1
