@<TRIPOS>MOLECULE
mol_data/opt/cam/geoms/mol2/5ie5ie-5ie-5ie.out
 50 53 0 0 0
SMALL
GASTEIGER

@<TRIPOS>ATOM
      1 C          -1.1554   -1.4250    2.3041 C.ar    1  LIG1       -0.0196
      2 C          -0.7971   -1.7108    1.0253 C.ar    1  LIG1       -0.0274
      3 C          -0.4932   -0.5138    0.2813 C.ar    1  LIG1        0.0428
      4 C          -0.6205    0.6376    1.0272 C.ar    1  LIG1        0.0418
      5 S          -1.1214    0.2642    2.6451 S.2     1  LIG1       -0.0946
      6 H          -1.4416   -2.1266    3.0749 H       1  LIG1        0.0696
      7 C          -0.7335   -3.0829    0.4290 C.3     1  LIG1       -0.0380
      8 H           0.2742   -3.3078    0.0678 H       1  LIG1        0.0278
      9 H          -1.4064   -3.1686   -0.4290 H       1  LIG1        0.0278
     10 H          -1.0126   -3.8426    1.1613 H       1  LIG1        0.0278
     11 C          -0.1499   -0.5401   -1.1014 C.1     1  LIG1       -0.0682
     12 C           0.1302   -0.5999   -2.2713 C.1     1  LIG1       -0.1139
     13 H           0.3679   -0.6412   -3.3094 H       1  LIG1        0.1232
     14 C          -0.3991    2.0175    0.6078 C.ar    1  LIG1        0.0318
     15 C           0.7175    2.5642    0.0352 C.ar    1  LIG1       -0.0191
     16 C           0.5409    3.9634   -0.2536 C.ar    1  LIG1        0.0435
     17 C          -0.6887    4.4544    0.1270 C.ar    1  LIG1        0.0424
     18 S          -1.6573    3.2021    0.8242 S.2     1  LIG1       -0.0856
     19 C           1.9926    1.8381   -0.2573 C.3     1  LIG1       -0.0374
     20 H           2.8526    2.4684   -0.0195 H       1  LIG1        0.0278
     21 H           2.0582    1.5730   -1.3163 H       1  LIG1        0.0278
     22 H           2.0594    0.9137    0.3174 H       1  LIG1        0.0278
     23 C           1.5423    4.7412   -0.9042 C.1     1  LIG1       -0.0682
     24 C           2.4052    5.3710   -1.4605 C.1     1  LIG1       -0.1139
     25 H           3.1584    5.9328   -1.9633 H       1  LIG1        0.1232
     26 C          -1.2015    5.8139   -0.0064 C.ar    1  LIG1        0.0318
     27 C          -0.6467    6.9810    0.4446 C.ar    1  LIG1       -0.0191
     28 C          -1.4494    8.1246    0.0978 C.ar    1  LIG1        0.0435
     29 C          -2.6036    7.8031   -0.5821 C.ar    1  LIG1        0.0424
     30 S          -2.7129    6.0940   -0.8258 S.2     1  LIG1       -0.0856
     31 C           0.6259    7.1001    1.2226 C.3     1  LIG1       -0.0374
     32 H           0.5140    7.8344    2.0237 H       1  LIG1        0.0278
     33 H           1.4474    7.4319    0.5812 H       1  LIG1        0.0278
     34 H           0.9137    6.1419    1.6563 H       1  LIG1        0.0278
     35 C          -1.0518    9.4579    0.4066 C.1     1  LIG1       -0.0682
     36 C          -0.6855   10.5730    0.6766 C.1     1  LIG1       -0.1139
     37 H          -0.3635   11.5637    0.9013 H       1  LIG1        0.1232
     38 C          -3.6435    8.6991   -1.0767 C.ar    1  LIG1        0.0312
     39 C          -4.3668    9.6309   -0.3812 C.ar    1  LIG1       -0.0198
     40 C          -5.3010   10.3227   -1.2334 C.ar    1  LIG1        0.0352
     41 C          -5.2634    9.8887   -2.5299 C.ar    1  LIG1       -0.0081
     42 S          -4.1021    8.6529   -2.7597 S.2     1  LIG1       -0.0946
     43 H          -5.8683   10.2428   -3.3515 H       1  LIG1        0.0706
     44 C          -4.2600    9.9052    1.0858 C.3     1  LIG1       -0.0374
     45 H          -5.2517   10.0664    1.5146 H       1  LIG1        0.0278
     46 H          -3.6666   10.8046    1.2739 H       1  LIG1        0.0278
     47 H          -3.7772    9.0786    1.6084 H       1  LIG1        0.0278
     48 C          -6.1848   11.3399   -0.7652 C.1     1  LIG1       -0.0688
     49 C          -6.9267   12.1955   -0.3563 C.1     1  LIG1       -0.1139
     50 H          -7.5854   12.9541   -0.0013 H       1  LIG1        0.1232
@<TRIPOS>BOND
     1    43    41    1
     2    13    12    1
     3    42    41   ar
     4    42    38   ar
     5    41    40   ar
     6    12    11    3
     7    25    24    1
     8    24    23    3
     9    21    19    1
    10    40    48    1
    11    40    39   ar
    12    11     3    1
    13    38    29    1
    14    38    39   ar
    15    23    16    1
    16    30    29   ar
    17    30    26   ar
    18    48    49    3
    19    29    28   ar
    20     9     7    1
    21    39    44    1
    22    49    50    1
    23    19    20    1
    24    19    15    1
    25    19    22    1
    26    16    15   ar
    27    16    17   ar
    28    26    17    1
    29    26    27   ar
    30    15    14   ar
    31     8     7    1
    32    28    35    1
    33    28    27   ar
    34    17    18   ar
    35     3     2   ar
    36     3     4   ar
    37    35    36    3
    38     7     2    1
    39     7    10    1
    40    27    31    1
    41    33    31    1
    42    14    18   ar
    43    14     4    1
    44    36    37    1
    45     2     1   ar
    46     4     5   ar
    47    44    46    1
    48    44    45    1
    49    44    47    1
    50    31    34    1
    51    31    32    1
    52     1     5   ar
    53     1     6    1
