@<TRIPOS>MOLECULE
mol_data/opt/cam/geoms/mol2/5if.out
 13 13 0 0 0
SMALL
GASTEIGER

@<TRIPOS>ATOM
      1 C          -2.1294   -1.6544    0.0976 C.ar    1  LIG1       -0.0179
      2 C          -0.7727   -1.6534    0.0231 C.ar    1  LIG1       -0.0020
      3 C          -0.2654   -0.3127   -0.0418 C.ar    1  LIG1        0.1267
      4 C          -1.2299    0.6458   -0.0153 C.ar    1  LIG1        0.0174
      5 S          -2.8048   -0.0651    0.0907 S.2     1  LIG1       -0.1011
      6 H          -2.7792   -2.5160    0.1571 H       1  LIG1        0.0697
      7 H          -1.1084    1.7187   -0.0516 H       1  LIG1        0.0730
      8 C           0.1177   -2.8566    0.0074 C.3     1  LIG1       -0.0357
      9 H           0.8168   -2.8381    0.8485 H       1  LIG1        0.0279
     10 H           0.7199   -2.8870   -0.9052 H       1  LIG1        0.0279
     11 H          -0.4656   -3.7774    0.0653 H       1  LIG1        0.0279
     12 O           1.0822   -0.1309   -0.1208 O.3     1  LIG1       -0.5060
     13 H           1.2769    0.8124   -0.1574 H       1  LIG1        0.2922
@<TRIPOS>BOND
     1    10     8    1
     2    13    12    1
     3    12     3    1
     4     7     4    1
     5     3     4   ar
     6     3     2   ar
     7     4     5   ar
     8     8     2    1
     9     8    11    1
    10     8     9    1
    11     2     1   ar
    12     5     1   ar
    13     1     6    1
