@<TRIPOS>MOLECULE
mol_data/opt/cam/geoms/mol2/5if5if-5if5if.out
 46 49 0 0 0
SMALL
GASTEIGER

@<TRIPOS>ATOM
      1 C          -0.9104   -1.6581    2.0468 C.ar    1  LIG1       -0.0172
      2 C          -0.7042   -1.8435    0.7159 C.ar    1  LIG1       -0.0014
      3 C          -0.5717   -0.5865    0.0434 C.ar    1  LIG1        0.1350
      4 C          -0.6658    0.5084    0.8605 C.ar    1  LIG1        0.0679
      5 S          -0.9400    0.0041    2.5079 S.2     1  LIG1       -0.0921
      6 H          -1.0505   -2.4255    2.7952 H       1  LIG1        0.0697
      7 C          -0.6344   -3.1556   -0.0007 C.3     1  LIG1       -0.0357
      8 H           0.3339   -3.2834   -0.4933 H       1  LIG1        0.0279
      9 H          -1.3984   -3.2148   -0.7812 H       1  LIG1        0.0279
     10 H          -0.7814   -3.9884    0.6895 H       1  LIG1        0.0279
     11 O          -0.3939   -0.5633   -1.3010 O.3     1  LIG1       -0.5053
     12 H          -0.4517    0.3542   -1.6017 H       1  LIG1        0.2922
     13 C          -0.5727    1.9012    0.4461 C.ar    1  LIG1        0.0365
     14 C           0.4257    2.4858   -0.2929 C.ar    1  LIG1        0.0070
     15 C           0.1450    3.8644   -0.5480 C.ar    1  LIG1        0.1356
     16 C          -1.0188    4.3247    0.0060 C.ar    1  LIG1        0.0685
     17 S          -1.8404    3.0323    0.8373 S.2     1  LIG1       -0.0831
     18 C           1.6918    1.8298   -0.7539 C.3     1  LIG1       -0.0351
     19 H           2.5419    2.4930   -0.5770 H       1  LIG1        0.0279
     20 H           1.6786    1.6186   -1.8285 H       1  LIG1        0.0279
     21 H           1.8599    0.8906   -0.2254 H       1  LIG1        0.0279
     22 O           1.0151    4.5938   -1.2893 O.3     1  LIG1       -0.5053
     23 H           0.6318    5.4695   -1.4376 H       1  LIG1        0.2922
     24 C          -1.5303    5.6857   -0.0773 C.ar    1  LIG1        0.0365
     25 C          -0.8687    6.8462    0.2405 C.ar    1  LIG1        0.0070
     26 C          -1.6790    7.9947   -0.0219 C.ar    1  LIG1        0.1356
     27 C          -2.9315    7.7163   -0.4977 C.ar    1  LIG1        0.0685
     28 S          -3.1371    5.9960   -0.6783 S.2     1  LIG1       -0.0831
     29 C           0.5011    6.9554    0.8383 C.3     1  LIG1       -0.0351
     30 H           0.4955    7.6834    1.6530 H       1  LIG1        0.0279
     31 H           1.2409    7.3071    0.1111 H       1  LIG1        0.0279
     32 H           0.8367    5.9933    1.2272 H       1  LIG1        0.0279
     33 O          -1.1750    9.2317    0.2105 O.3     1  LIG1       -0.5053
     34 H          -1.8177    9.8860   -0.0974 H       1  LIG1        0.2922
     35 C          -3.9631    8.6926   -0.8213 C.ar    1  LIG1        0.0359
     36 C          -4.4495    9.6909   -0.0152 C.ar    1  LIG1        0.0064
     37 C          -5.4301   10.4830   -0.6979 C.ar    1  LIG1        0.1273
     38 C          -5.6811   10.0803   -1.9724 C.ar    1  LIG1        0.0180
     39 S          -4.7030    8.7217   -2.3999 S.2     1  LIG1       -0.0920
     40 H          -6.3863   10.4981   -2.6766 H       1  LIG1        0.0730
     41 C          -4.0926    9.9276    1.4209 C.3     1  LIG1       -0.0351
     42 H          -4.9980   10.1137    2.0033 H       1  LIG1        0.0279
     43 H          -3.4539   10.8084    1.5470 H       1  LIG1        0.0279
     44 H          -3.5721    9.0668    1.8426 H       1  LIG1        0.0279
     45 O          -6.0116   11.5122   -0.0251 O.3     1  LIG1       -0.5060
     46 H          -6.6823   11.9241   -0.5820 H       1  LIG1        0.2922
@<TRIPOS>BOND
     1    40    38    1
     2    39    38   ar
     3    39    35   ar
     4    38    37   ar
     5    20    18    1
     6    12    11    1
     7    23    22    1
     8    11     3    1
     9    22    15    1
    10    35    27    1
    11    35    36   ar
    12     9     7    1
    13    18    19    1
    14    18    14    1
    15    18    21    1
    16    37    45    1
    17    37    36   ar
    18    28    27   ar
    19    28    24   ar
    20    46    45    1
    21    15    14   ar
    22    15    16   ar
    23    27    26   ar
    24     8     7    1
    25    14    13   ar
    26    34    33    1
    27    24    16    1
    28    24    25   ar
    29    26    33    1
    30    26    25   ar
    31    36    41    1
    32     7    10    1
    33     7     2    1
    34    16    17   ar
    35     3     2   ar
    36     3     4   ar
    37    31    29    1
    38    25    29    1
    39    13    17   ar
    40    13     4    1
    41     2     1   ar
    42    29    32    1
    43    29    30    1
    44     4     5   ar
    45    41    43    1
    46    41    44    1
    47    41    42    1
    48     1     5   ar
    49     1     6    1
