@<TRIPOS>MOLECULE
mol_data/opt/cam/geoms/mol2/5if5if-5if-5if.out
 46 49 0 0 0
SMALL
GASTEIGER

@<TRIPOS>ATOM
      1 C          -0.9201   -1.6588    2.0446 C.ar    1  LIG1       -0.0172
      2 C          -0.7045   -1.8433    0.7150 C.ar    1  LIG1       -0.0014
      3 C          -0.5682   -0.5858    0.0442 C.ar    1  LIG1        0.1350
      4 C          -0.6686    0.5085    0.8613 C.ar    1  LIG1        0.0679
      5 S          -0.9540    0.0030    2.5065 S.2     1  LIG1       -0.0921
      6 H          -1.0649   -2.4268    2.7914 H       1  LIG1        0.0697
      7 C          -0.6288   -3.1549   -0.0019 C.3     1  LIG1       -0.0357
      8 H           0.3427   -3.2814   -0.4883 H       1  LIG1        0.0279
      9 H          -1.3877   -3.2143   -0.7874 H       1  LIG1        0.0279
     10 H          -0.7795   -3.9883    0.6867 H       1  LIG1        0.0279
     11 O          -0.3809   -0.5616   -1.2989 O.3     1  LIG1       -0.5053
     12 H          -0.4374    0.3560   -1.5995 H       1  LIG1        0.2922
     13 C          -0.5738    1.9016    0.4484 C.ar    1  LIG1        0.0365
     14 C           0.4294    2.4873   -0.2835 C.ar    1  LIG1        0.0070
     15 C           0.1494    3.8658   -0.5398 C.ar    1  LIG1        0.1356
     16 C          -1.0185    4.3251    0.0065 C.ar    1  LIG1        0.0685
     17 S          -1.8449    3.0316    0.8314 S.2     1  LIG1       -0.0831
     18 C           1.6991    1.8326   -0.7360 C.3     1  LIG1       -0.0351
     19 H           2.5475    2.4959   -0.5517 H       1  LIG1        0.0279
     20 H           1.6939    1.6231   -1.8111 H       1  LIG1        0.0279
     21 H           1.8638    0.8926   -0.2077 H       1  LIG1        0.0279
     22 O           1.0240    4.5962   -1.2748 O.3     1  LIG1       -0.5053
     23 H           0.6409    5.4715   -1.4258 H       1  LIG1        0.2922
     24 C          -1.5305    5.6857   -0.0799 C.ar    1  LIG1        0.0365
     25 C          -0.8718    6.8465    0.2427 C.ar    1  LIG1        0.0070
     26 C          -1.6812    7.9945   -0.0248 C.ar    1  LIG1        0.1356
     27 C          -2.9304    7.7154   -0.5088 C.ar    1  LIG1        0.0685
     28 S          -3.1335    5.9950   -0.6913 S.2     1  LIG1       -0.0831
     29 C           0.4938    6.9566    0.8498 C.3     1  LIG1       -0.0351
     30 H           0.4821    7.6844    1.6646 H       1  LIG1        0.0279
     31 H           1.2382    7.3092    0.1277 H       1  LIG1        0.0279
     32 H           0.8276    5.9947    1.2407 H       1  LIG1        0.0279
     33 O          -1.1797    9.2318    0.2115 O.3     1  LIG1       -0.5053
     34 H          -1.8207    9.8858   -0.1006 H       1  LIG1        0.2922
     35 C          -3.9603    8.6910   -0.8391 C.ar    1  LIG1        0.0359
     36 C          -4.4528    9.6888   -0.0360 C.ar    1  LIG1        0.0064
     37 C          -5.4292   10.4806   -0.7251 C.ar    1  LIG1        0.1273
     38 C          -5.6714   10.0781   -2.0014 C.ar    1  LIG1        0.0180
     39 S          -4.6897    8.7201   -2.4227 S.2     1  LIG1       -0.0920
     40 H          -6.3720   10.4958   -2.7102 H       1  LIG1        0.0730
     41 C          -4.1059    9.9254    1.4026 C.3     1  LIG1       -0.0351
     42 H          -5.0156   10.1088    1.9792 H       1  LIG1        0.0279
     43 H          -3.4704   10.8079    1.5333 H       1  LIG1        0.0279
     44 H          -3.5859    9.0657    1.8271 H       1  LIG1        0.0279
     45 O          -6.0158   11.5093   -0.0560 O.3     1  LIG1       -0.5060
     46 H          -6.6832   11.9207   -0.6171 H       1  LIG1        0.2922
@<TRIPOS>BOND
     1    40    38    1
     2    39    38   ar
     3    39    35   ar
     4    38    37   ar
     5    20    18    1
     6    12    11    1
     7    23    22    1
     8    11     3    1
     9    22    15    1
    10    35    27    1
    11    35    36   ar
    12     9     7    1
    13    18    19    1
    14    18    14    1
    15    18    21    1
    16    37    45    1
    17    37    36   ar
    18    28    27   ar
    19    28    24   ar
    20    46    45    1
    21    15    14   ar
    22    15    16   ar
    23    27    26   ar
    24     8     7    1
    25    14    13   ar
    26    34    33    1
    27    24    16    1
    28    24    25   ar
    29    36    41    1
    30    26    33    1
    31    26    25   ar
    32     7    10    1
    33     7     2    1
    34    16    17   ar
    35     3     2   ar
    36     3     4   ar
    37    31    29    1
    38    25    29    1
    39    13    17   ar
    40    13     4    1
    41     2     1   ar
    42    29    32    1
    43    29    30    1
    44     4     5   ar
    45    41    43    1
    46    41    44    1
    47    41    42    1
    48     1     5   ar
    49     1     6    1
