@<TRIPOS>MOLECULE
mol_data/opt/cam/geoms/mol2/5if5if-5if.out
 35 37 0 0 0
SMALL
GASTEIGER

@<TRIPOS>ATOM
      1 C          -1.4806   -1.7657    1.4687 C.ar    1  LIG1       -0.0172
      2 C          -0.7721   -1.8644    0.3126 C.ar    1  LIG1       -0.0014
      3 C          -0.4648   -0.5658   -0.2061 C.ar    1  LIG1        0.1350
      4 C          -0.9253    0.4748    0.5557 C.ar    1  LIG1        0.0679
      5 S          -1.7775   -0.1357    1.9501 S.2     1  LIG1       -0.0921
      6 H          -1.8519   -2.5806    2.0742 H       1  LIG1        0.0697
      7 C          -0.3590   -3.1283   -0.3743 C.3     1  LIG1       -0.0357
      8 H           0.7300   -3.1941   -0.4544 H       1  LIG1        0.0279
      9 H          -0.7555   -3.1659   -1.3930 H       1  LIG1        0.0279
     10 H          -0.7172   -4.0054    0.1678 H       1  LIG1        0.0279
     11 O           0.2107   -0.4563   -1.3773 O.3     1  LIG1       -0.5053
     12 H           0.2211    0.4750   -1.6384 H       1  LIG1        0.2922
     13 C          -0.7616    1.8919    0.2641 C.ar    1  LIG1        0.0365
     14 C           0.4077    2.5560   -0.0131 C.ar    1  LIG1        0.0070
     15 C           0.1663    3.9352   -0.3031 C.ar    1  LIG1        0.1356
     16 C          -1.1450    4.3177   -0.2206 C.ar    1  LIG1        0.0685
     17 S          -2.1453    2.9497    0.1837 S.2     1  LIG1       -0.0831
     18 C           1.7894    1.9767    0.0215 C.3     1  LIG1       -0.0351
     19 H           2.4672    2.6586    0.5405 H       1  LIG1        0.0279
     20 H           2.2006    1.8322   -0.9833 H       1  LIG1        0.0279
     21 H           1.7965    1.0135    0.5331 H       1  LIG1        0.0279
     22 O           1.2089    4.7403   -0.6250 O.3     1  LIG1       -0.5053
     23 H           0.8592    5.6079   -0.8717 H       1  LIG1        0.2922
     24 C          -1.6618    5.6616   -0.4409 C.ar    1  LIG1        0.0359
     25 C          -1.2443    6.8245    0.1562 C.ar    1  LIG1        0.0064
     26 C          -1.9599    7.9587   -0.3502 C.ar    1  LIG1        0.1273
     27 C          -2.8962    7.6524   -1.2878 C.ar    1  LIG1        0.0180
     28 S          -2.9225    5.9548   -1.6092 S.2     1  LIG1       -0.0920
     29 H          -3.5723    8.3232   -1.7983 H       1  LIG1        0.0730
     30 C          -0.2284    6.9466    1.2512 C.3     1  LIG1       -0.0351
     31 H          -0.5960    7.6235    2.0259 H       1  LIG1        0.0279
     32 H           0.7169    7.3674    0.8916 H       1  LIG1        0.0279
     33 H          -0.0187    5.9752    1.7009 H       1  LIG1        0.0279
     34 O          -1.6617    9.1878    0.1509 O.3     1  LIG1       -0.5060
     35 H          -2.2462    9.8465   -0.2412 H       1  LIG1        0.2922
@<TRIPOS>BOND
     1    29    27    1
     2    12    11    1
     3    28    27   ar
     4    28    24   ar
     5     9     7    1
     6    11     3    1
     7    27    26   ar
     8    20    18    1
     9    23    22    1
    10    22    15    1
    11     8     7    1
    12    24    16    1
    13    24    25   ar
    14     7    10    1
    15     7     2    1
    16    26    34    1
    17    26    25   ar
    18    15    16   ar
    19    15    14   ar
    20    35    34    1
    21    16    17   ar
    22     3     2   ar
    23     3     4   ar
    24    14    18    1
    25    14    13   ar
    26    18    21    1
    27    18    19    1
    28    25    30    1
    29    17    13   ar
    30    13     4    1
    31     2     1   ar
    32     4     5   ar
    33    32    30    1
    34    30    33    1
    35    30    31    1
    36     1     5   ar
    37     1     6    1
