@<TRIPOS>MOLECULE
mol_data/opt/cam/geoms/mol2/5if5if-.out
 24 25 0 0 0
SMALL
GASTEIGER

@<TRIPOS>ATOM
      1 C          -1.8930   -1.7597    0.8466 C.ar    1  LIG1       -0.0172
      2 C          -0.7686   -1.8046    0.0837 C.ar    1  LIG1       -0.0014
      3 C          -0.3571   -0.4852   -0.2906 C.ar    1  LIG1        0.1350
      4 C          -1.1529    0.5180    0.1937 C.ar    1  LIG1        0.0679
      5 S          -2.4610   -0.1554    1.1307 S.2     1  LIG1       -0.0921
      6 H          -2.4285   -2.6009    1.2640 H       1  LIG1        0.0697
      7 C          -0.0331   -3.0345   -0.3478 C.3     1  LIG1       -0.0357
      8 H           0.9959   -3.0277    0.0234 H       1  LIG1        0.0279
      9 H           0.0231   -3.0928   -1.4386 H       1  LIG1        0.0279
     10 H          -0.5252   -3.9364    0.0208 H       1  LIG1        0.0279
     11 O           0.7316   -0.3231   -1.0835 O.3     1  LIG1       -0.5053
     12 H           0.7919    0.6103   -1.3305 H       1  LIG1        0.2922
     13 C          -0.9701    1.9448   -0.0342 C.ar    1  LIG1        0.0359
     14 C           0.1634    2.6865    0.1852 C.ar    1  LIG1        0.0064
     15 C          -0.0224    4.0540   -0.2030 C.ar    1  LIG1        0.1273
     16 C          -1.2633    4.3321   -0.6847 C.ar    1  LIG1        0.0180
     17 S          -2.2527    2.9151   -0.7084 S.2     1  LIG1       -0.0920
     18 H          -1.6511    5.2843   -1.0173 H       1  LIG1        0.0730
     19 C           1.4348    2.1999    0.8120 C.3     1  LIG1       -0.0351
     20 H           1.7892    2.9261    1.5473 H       1  LIG1        0.0279
     21 H           2.2383    2.0812    0.0771 H       1  LIG1        0.0279
     22 H           1.2834    1.2396    1.3066 H       1  LIG1        0.0279
     23 O           1.0146    4.9197   -0.0391 O.3     1  LIG1       -0.5060
     24 H           0.7372    5.8062   -0.2972 H       1  LIG1        0.2922
@<TRIPOS>BOND
     1     9     7    1
     2    12    11    1
     3    11     3    1
     4    18    16    1
     5    17    16   ar
     6    17    13   ar
     7    16    15   ar
     8     7    10    1
     9     7     8    1
    10     7     2    1
    11    24    23    1
    12     3     2   ar
    13     3     4   ar
    14    15    23    1
    15    15    14   ar
    16    13    14   ar
    17    13     4    1
    18    21    19    1
    19     2     1   ar
    20    14    19    1
    21     4     5   ar
    22    19    22    1
    23    19    20    1
    24     1     5   ar
    25     1     6    1
