@<TRIPOS>MOLECULE
mol_data/opt/cam/geoms/mol2/5if5if-5if5if-.out
 46 49 0 0 0
SMALL
GASTEIGER

@<TRIPOS>ATOM
      1 C          -0.8959   -1.6526    2.0553 C.ar    1  LIG1       -0.0172
      2 C          -0.6935   -1.8408    0.7242 C.ar    1  LIG1       -0.0014
      3 C          -0.5648   -0.5851    0.0484 C.ar    1  LIG1        0.1350
      4 C          -0.6577    0.5115    0.8633 C.ar    1  LIG1        0.0679
      5 S          -0.9262    0.0106    2.5128 S.2     1  LIG1       -0.0921
      6 H          -1.0327   -2.4185    2.8058 H       1  LIG1        0.0697
      7 C          -0.6242   -3.1544    0.0104 C.3     1  LIG1       -0.0357
      8 H           0.3426   -3.2818   -0.4852 H       1  LIG1        0.0279
      9 H          -1.3907   -3.2165   -0.7675 H       1  LIG1        0.0279
     10 H          -0.7677   -3.9859    0.7028 H       1  LIG1        0.0279
     11 O          -0.3910   -0.5647   -1.2966 O.3     1  LIG1       -0.5053
     12 H          -0.4513    0.3520   -1.5992 H       1  LIG1        0.2922
     13 C          -0.5678    1.9034    0.4454 C.ar    1  LIG1        0.0365
     14 C           0.4275    2.4875   -0.2982 C.ar    1  LIG1        0.0070
     15 C           0.1443    3.8651   -0.5556 C.ar    1  LIG1        0.1356
     16 C          -1.0182    4.3254    0.0011 C.ar    1  LIG1        0.0685
     17 S          -1.8356    3.0339    0.8381 S.2     1  LIG1       -0.0831
     18 C           1.6930    1.8321   -0.7616 C.3     1  LIG1       -0.0351
     19 H           2.5427    2.4969   -0.5892 H       1  LIG1        0.0279
     20 H           1.6765    1.6181   -1.8357 H       1  LIG1        0.0279
     21 H           1.8641    0.8944   -0.2313 H       1  LIG1        0.0279
     22 O           1.0110    4.5939   -1.3015 O.3     1  LIG1       -0.5053
     23 H           0.6261    5.4687   -1.4508 H       1  LIG1        0.2922
     24 C          -1.5319    5.6855   -0.0840 C.ar    1  LIG1        0.0365
     25 C          -0.8708    6.8476    0.2287 C.ar    1  LIG1        0.0070
     26 C          -1.6834    7.9943   -0.0341 C.ar    1  LIG1        0.1356
     27 C          -2.9371    7.7131   -0.5050 C.ar    1  LIG1        0.0685
     28 S          -3.1410    5.9921   -0.6805 S.2     1  LIG1       -0.0831
     29 C           0.5007    6.9603    0.8220 C.3     1  LIG1       -0.0351
     30 H           0.4961    7.6889    1.6361 H       1  LIG1        0.0279
     31 H           1.2372    7.3132    0.0920 H       1  LIG1        0.0279
     32 H           0.8398    5.9993    1.2106 H       1  LIG1        0.0279
     33 O          -1.1803    9.2326    0.1936 O.3     1  LIG1       -0.5053
     34 H          -1.8247    9.8853   -0.1141 H       1  LIG1        0.2922
     35 C          -3.9708    8.6873   -0.8280 C.ar    1  LIG1        0.0359
     36 C          -4.4559    9.6871   -0.0229 C.ar    1  LIG1        0.0064
     37 C          -5.4395   10.4763   -0.7046 C.ar    1  LIG1        0.1273
     38 C          -5.6941   10.0700   -1.9773 C.ar    1  LIG1        0.0180
     39 S          -4.7159    8.7113   -2.4043 S.2     1  LIG1       -0.0920
     40 H          -6.4019   10.4852   -2.6803 H       1  LIG1        0.0730
     41 C          -4.0949    9.9281    1.4114 C.3     1  LIG1       -0.0351
     42 H          -4.9989   10.1132    1.9964 H       1  LIG1        0.0279
     43 H          -3.4582   10.8111    1.5332 H       1  LIG1        0.0279
     44 H          -3.5707    9.0698    1.8334 H       1  LIG1        0.0279
     45 O          -6.0200   11.5068   -0.0328 O.3     1  LIG1       -0.5060
     46 H          -6.6932   11.9161   -0.5885 H       1  LIG1        0.2922
@<TRIPOS>BOND
     1    40    38    1
     2    39    38   ar
     3    39    35   ar
     4    38    37   ar
     5    20    18    1
     6    12    11    1
     7    23    22    1
     8    22    15    1
     9    11     3    1
    10    35    27    1
    11    35    36   ar
    12     9     7    1
    13    18    19    1
    14    18    14    1
    15    18    21    1
    16    37    45    1
    17    37    36   ar
    18    28    27   ar
    19    28    24   ar
    20    46    45    1
    21    15    14   ar
    22    15    16   ar
    23    27    26   ar
    24     8     7    1
    25    14    13   ar
    26    34    33    1
    27    24    16    1
    28    24    25   ar
    29    26    33    1
    30    26    25   ar
    31    36    41    1
    32    16    17   ar
    33     7    10    1
    34     7     2    1
    35     3     2   ar
    36     3     4   ar
    37    31    29    1
    38    25    29    1
    39    13    17   ar
    40    13     4    1
    41     2     1   ar
    42    29    32    1
    43    29    30    1
    44     4     5   ar
    45    41    43    1
    46    41    44    1
    47    41    42    1
    48     1     5   ar
    49     1     6    1
