@<TRIPOS>MOLECULE
mol_data/opt/cam/geoms/mol2/5if5if.out
 24 25 0 0 0
SMALL
GASTEIGER

@<TRIPOS>ATOM
      1 C          -1.9042   -1.7619    0.8258 C.ar    1  LIG1       -0.0172
      2 C          -0.7705   -1.8046    0.0767 C.ar    1  LIG1       -0.0014
      3 C          -0.3540   -0.4842   -0.2883 C.ar    1  LIG1        0.1350
      4 C          -1.1554    0.5177    0.1895 C.ar    1  LIG1        0.0679
      5 S          -2.4751   -0.1582    1.1082 S.2     1  LIG1       -0.0921
      6 H          -2.4450   -2.6043    1.2338 H       1  LIG1        0.0697
      7 C          -0.0301   -3.0334   -0.3498 C.3     1  LIG1       -0.0357
      8 H           0.9942   -3.0282    0.0343 H       1  LIG1        0.0279
      9 H           0.0396   -3.0880   -1.4400 H       1  LIG1        0.0279
     10 H          -0.5271   -3.9363    0.0096 H       1  LIG1        0.0279
     11 O           0.7445   -0.3198   -1.0672 O.3     1  LIG1       -0.5053
     12 H           0.8080    0.6143   -1.3103 H       1  LIG1        0.2922
     13 C          -0.9694    1.9452   -0.0315 C.ar    1  LIG1        0.0359
     14 C           0.1616    2.6857    0.2043 C.ar    1  LIG1        0.0064
     15 C          -0.0190    4.0545   -0.1817 C.ar    1  LIG1        0.1273
     16 C          -1.2537    4.3347   -0.6777 C.ar    1  LIG1        0.0180
     17 S          -2.2432    2.9182   -0.7182 S.2     1  LIG1       -0.0920
     18 H          -1.6371    5.2881   -1.0119 H       1  LIG1        0.0730
     19 C           1.4250    2.1967    0.8451 C.3     1  LIG1       -0.0351
     20 H           1.7707    2.9204    1.5870 H       1  LIG1        0.0279
     21 H           2.2374    2.0798    0.1198 H       1  LIG1        0.0279
     22 H           1.2671    1.2349    1.3350 H       1  LIG1        0.0279
     23 O           1.0162    4.9194   -0.0021 O.3     1  LIG1       -0.5060
     24 H           0.7424    5.8068   -0.2610 H       1  LIG1        0.2922
@<TRIPOS>BOND
     1     9     7    1
     2    12    11    1
     3    11     3    1
     4    18    16    1
     5    17    16   ar
     6    17    13   ar
     7    16    15   ar
     8     7    10    1
     9     7     8    1
    10     7     2    1
    11     3     2   ar
    12     3     4   ar
    13    24    23    1
    14    15    23    1
    15    15    14   ar
    16    13     4    1
    17    13    14   ar
    18     2     1   ar
    19    21    19    1
    20     4     5   ar
    21    14    19    1
    22     1     5   ar
    23     1     6    1
    24    19    22    1
    25    19    20    1
