@<TRIPOS>MOLECULE
mol_data/opt/cam/geoms/mol2/5if5if-5if-.out
 35 37 0 0 0
SMALL
GASTEIGER

@<TRIPOS>ATOM
      1 C          -1.4873   -1.7741    1.4435 C.ar    1  LIG1       -0.0172
      2 C          -0.7689   -1.8662    0.2929 C.ar    1  LIG1       -0.0014
      3 C          -0.4587   -0.5646   -0.2166 C.ar    1  LIG1        0.1350
      4 C          -0.9268    0.4715    0.5466 C.ar    1  LIG1        0.0679
      5 S          -1.7900   -0.1470    1.9307 S.2     1  LIG1       -0.0921
      6 H          -1.8628   -2.5925    2.0416 H       1  LIG1        0.0697
      7 C          -0.3487   -3.1261   -0.3969 C.3     1  LIG1       -0.0357
      8 H           0.7410   -3.1905   -0.4681 H       1  LIG1        0.0279
      9 H          -0.7364   -3.1589   -1.4191 H       1  LIG1        0.0279
     10 H          -0.7105   -4.0063    0.1377 H       1  LIG1        0.0279
     11 O           0.2266   -0.4485   -1.3814 O.3     1  LIG1       -0.5053
     12 H           0.2385    0.4842   -1.6375 H       1  LIG1        0.2922
     13 C          -0.7624    1.8903    0.2635 C.ar    1  LIG1        0.0365
     14 C           0.4084    2.5573   -0.0002 C.ar    1  LIG1        0.0070
     15 C           0.1676    3.9376   -0.2856 C.ar    1  LIG1        0.1356
     16 C          -1.1448    4.3180   -0.2127 C.ar    1  LIG1        0.0685
     17 S          -2.1467    2.9467    0.1763 S.2     1  LIG1       -0.0831
     18 C           1.7906    1.9799    0.0435 C.3     1  LIG1       -0.0351
     19 H           2.4621    2.6585    0.5749 H       1  LIG1        0.0279
     20 H           2.2120    1.8445   -0.9583 H       1  LIG1        0.0279
     21 H           1.7942    1.0124    0.5472 H       1  LIG1        0.0279
     22 O           1.2120    4.7456   -0.5945 O.3     1  LIG1       -0.5053
     23 H           0.8632    5.6139   -0.8404 H       1  LIG1        0.2922
     24 C          -1.6614    5.6623   -0.4309 C.ar    1  LIG1        0.0359
     25 C          -1.2505    6.8228    0.1754 C.ar    1  LIG1        0.0064
     26 C          -1.9633    7.9585   -0.3316 C.ar    1  LIG1        0.1273
     27 C          -2.8911    7.6556   -1.2786 C.ar    1  LIG1        0.0180
     28 S          -2.9126    5.9596   -1.6085 S.2     1  LIG1       -0.0920
     29 H          -3.5638    8.3280   -1.7916 H       1  LIG1        0.0730
     30 C          -0.2441    6.9406    1.2795 C.3     1  LIG1       -0.0351
     31 H          -0.6182    7.6150    2.0534 H       1  LIG1        0.0279
     32 H           0.7045    7.3622    0.9298 H       1  LIG1        0.0279
     33 H          -0.0388    5.9676    1.7277 H       1  LIG1        0.0279
     34 O          -1.6709    9.1855    0.1780 O.3     1  LIG1       -0.5060
     35 H          -2.2531    9.8454   -0.2157 H       1  LIG1        0.2922
@<TRIPOS>BOND
     1    29    27    1
     2    12    11    1
     3    28    27   ar
     4    28    24   ar
     5     9     7    1
     6    11     3    1
     7    27    26   ar
     8    20    18    1
     9    23    22    1
    10    22    15    1
    11     8     7    1
    12    24    16    1
    13    24    25   ar
    14     7    10    1
    15     7     2    1
    16    26    25   ar
    17    26    34    1
    18    15    16   ar
    19    15    14   ar
    20     3     2   ar
    21     3     4   ar
    22    35    34    1
    23    16    17   ar
    24    14    18    1
    25    14    13   ar
    26    18    21    1
    27    18    19    1
    28    25    30    1
    29    17    13   ar
    30    13     4    1
    31     2     1   ar
    32     4     5   ar
    33    32    30    1
    34    30    33    1
    35    30    31    1
    36     1     5   ar
    37     1     6    1
