@<TRIPOS>MOLECULE
mol_data/opt/cam/geoms/mol2/5if5if5if-.out
 35 37 0 0 0
SMALL
GASTEIGER

@<TRIPOS>ATOM
      1 C          -1.4997   -1.7704    1.4429 C.ar    1  LIG1       -0.0172
      2 C          -0.7709   -1.8654    0.2992 C.ar    1  LIG1       -0.0014
      3 C          -0.4563   -0.5652   -0.2109 C.ar    1  LIG1        0.1350
      4 C          -0.9314    0.4729    0.5452 C.ar    1  LIG1        0.0679
      5 S          -1.8071   -0.1421    1.9231 S.2     1  LIG1       -0.0921
      6 H          -1.8804   -2.5873    2.0399 H       1  LIG1        0.0697
      7 C          -0.3443   -3.1271   -0.3834 C.3     1  LIG1       -0.0357
      8 H           0.7460   -3.1909   -0.4457 H       1  LIG1        0.0279
      9 H          -0.7237   -3.1633   -1.4086 H       1  LIG1        0.0279
     10 H          -0.7097   -4.0060    0.1508 H       1  LIG1        0.0279
     11 O           0.2395   -0.4520   -1.3698 O.3     1  LIG1       -0.5053
     12 H           0.2536    0.4800   -1.6282 H       1  LIG1        0.2922
     13 C          -0.7646    1.8910    0.2599 C.ar    1  LIG1        0.0365
     14 C           0.4084    2.5573    0.0050 C.ar    1  LIG1        0.0070
     15 C           0.1702    3.9368   -0.2862 C.ar    1  LIG1        0.1356
     16 C          -1.1428    4.3174   -0.2260 C.ar    1  LIG1        0.0685
     17 S          -2.1481    2.9470    0.1574 S.2     1  LIG1       -0.0831
     18 C           1.7902    1.9800    0.0627 C.3     1  LIG1       -0.0351
     19 H           2.4573    2.6608    0.5970 H       1  LIG1        0.0279
     20 H           2.2201    1.8405   -0.9350 H       1  LIG1        0.0279
     21 H           1.7894    1.0146    0.5703 H       1  LIG1        0.0279
     22 O           1.2173    4.7442   -0.5876 O.3     1  LIG1       -0.5053
     23 H           0.8707    5.6119   -0.8385 H       1  LIG1        0.2922
     24 C          -1.6575    5.6610   -0.4524 C.ar    1  LIG1        0.0359
     25 C          -1.2525    6.8232    0.1547 C.ar    1  LIG1        0.0064
     26 C          -1.9606    7.9575   -0.3620 C.ar    1  LIG1        0.1273
     27 C          -2.8795    7.6520   -1.3168 C.ar    1  LIG1        0.0180
     28 S          -2.8976    5.9551   -1.6425 S.2     1  LIG1       -0.0920
     29 H          -3.5473    8.3230   -1.8379 H       1  LIG1        0.0730
     30 C          -0.2565    6.9442    1.2679 C.3     1  LIG1       -0.0351
     31 H          -0.6392    7.6182    2.0378 H       1  LIG1        0.0279
     32 H           0.6941    7.3680    0.9264 H       1  LIG1        0.0279
     33 H          -0.0529    5.9720    1.7186 H       1  LIG1        0.0279
     34 O          -1.6731    9.1858    0.1472 O.3     1  LIG1       -0.5060
     35 H          -2.2514    9.8447   -0.2538 H       1  LIG1        0.2922
@<TRIPOS>BOND
     1    29    27    1
     2    28    27   ar
     3    28    24   ar
     4    12    11    1
     5     9     7    1
     6    11     3    1
     7    27    26   ar
     8    20    18    1
     9    23    22    1
    10    22    15    1
    11    24    16    1
    12    24    25   ar
    13     8     7    1
    14     7    10    1
    15     7     2    1
    16    26    34    1
    17    26    25   ar
    18    15    16   ar
    19    15    14   ar
    20    35    34    1
    21    16    17   ar
    22     3     2   ar
    23     3     4   ar
    24    14    18    1
    25    14    13   ar
    26    18    21    1
    27    18    19    1
    28    25    30    1
    29    17    13   ar
    30    13     4    1
    31     2     1   ar
    32     4     5   ar
    33    32    30    1
    34    30    33    1
    35    30    31    1
    36     1     5   ar
    37     1     6    1
