@<TRIPOS>MOLECULE
mol_data/opt/cam/geoms/mol2/5if5if5if-5if.out
 46 49 0 0 0
SMALL
GASTEIGER

@<TRIPOS>ATOM
      1 C          -0.9361   -1.6523    2.0523 C.ar    1  LIG1       -0.0172
      2 C          -0.7110   -1.8412    0.7249 C.ar    1  LIG1       -0.0014
      3 C          -0.5697   -0.5859    0.0510 C.ar    1  LIG1        0.1350
      4 C          -0.6757    0.5111    0.8637 C.ar    1  LIG1        0.0679
      5 S          -0.9730    0.0111    2.5085 S.2     1  LIG1       -0.0921
      6 H          -1.0864   -2.4177    2.8006 H       1  LIG1        0.0697
      7 C          -0.6305   -3.1551    0.0129 C.3     1  LIG1       -0.0357
      8 H           0.3445   -3.2834   -0.4661 H       1  LIG1        0.0279
      9 H          -1.3836   -3.2169   -0.7779 H       1  LIG1        0.0279
     10 H          -0.7864   -3.9862    0.7031 H       1  LIG1        0.0279
     11 O          -0.3728   -0.5661   -1.2909 O.3     1  LIG1       -0.5053
     12 H          -0.4271    0.3505   -1.5948 H       1  LIG1        0.2922
     13 C          -0.5776    1.9028    0.4469 C.ar    1  LIG1        0.0365
     14 C           0.4309    2.4859   -0.2797 C.ar    1  LIG1        0.0070
     15 C           0.1532    3.8636   -0.5426 C.ar    1  LIG1        0.1356
     16 C          -1.0185    4.3250   -0.0061 C.ar    1  LIG1        0.0685
     17 S          -1.8511    3.0344    0.8172 S.2     1  LIG1       -0.0831
     18 C           1.7036    1.8293   -0.7211 C.3     1  LIG1       -0.0351
     19 H           2.5508    2.4934   -0.5338 H       1  LIG1        0.0279
     20 H           1.7057    1.6154   -1.7953 H       1  LIG1        0.0279
     21 H           1.8647    0.8915   -0.1879 H       1  LIG1        0.0279
     22 O           1.0331    4.5914   -1.2737 O.3     1  LIG1       -0.5053
     23 H           0.6514    5.4664   -1.4301 H       1  LIG1        0.2922
     24 C          -1.5295    5.6854   -0.1006 C.ar    1  LIG1        0.0365
     25 C          -0.8729    6.8471    0.2230 C.ar    1  LIG1        0.0070
     26 C          -1.6800    7.9944   -0.0542 C.ar    1  LIG1        0.1356
     27 C          -2.9257    7.7140   -0.5464 C.ar    1  LIG1        0.0685
     28 S          -3.1279    5.9930   -0.7247 S.2     1  LIG1       -0.0831
     29 C           0.4883    6.9590    0.8396 C.3     1  LIG1       -0.0351
     30 H           0.4705    7.6884    1.6528 H       1  LIG1        0.0279
     31 H           1.2377    7.3103    0.1221 H       1  LIG1        0.0279
     32 H           0.8196    5.9980    1.2349 H       1  LIG1        0.0279
     33 O          -1.1799    9.2324    0.1816 O.3     1  LIG1       -0.5053
     34 H          -1.8185    9.8855   -0.1373 H       1  LIG1        0.2922
     35 C          -3.9530    8.6888   -0.8874 C.ar    1  LIG1        0.0359
     36 C          -4.4510    9.6894   -0.0912 C.ar    1  LIG1        0.0064
     37 C          -5.4222   10.4790   -0.7900 C.ar    1  LIG1        0.1273
     38 C          -5.6552   10.0724   -2.0666 C.ar    1  LIG1        0.0180
     39 S          -4.6709    8.7128   -2.4763 S.2     1  LIG1       -0.0920
     40 H          -6.3505   10.4879   -2.7819 H       1  LIG1        0.0730
     41 C          -4.1145    9.9306    1.3491 C.3     1  LIG1       -0.0351
     42 H          -5.0282   10.1165    1.9184 H       1  LIG1        0.0279
     43 H          -3.4794   10.8132    1.4814 H       1  LIG1        0.0279
     44 H          -3.5981    9.0721    1.7802 H       1  LIG1        0.0279
     45 O          -6.0133   11.5102   -0.1286 O.3     1  LIG1       -0.5060
     46 H          -6.6767   11.9197   -0.6958 H       1  LIG1        0.2922
@<TRIPOS>BOND
     1    40    38    1
     2    39    38   ar
     3    39    35   ar
     4    38    37   ar
     5    20    18    1
     6    12    11    1
     7    23    22    1
     8    11     3    1
     9    22    15    1
    10    35    27    1
    11    35    36   ar
    12    37    45    1
    13    37    36   ar
    14     9     7    1
    15    28    27   ar
    16    28    24   ar
    17    18    19    1
    18    18    14    1
    19    18    21    1
    20    46    45    1
    21    27    26   ar
    22    15    14   ar
    23    15    16   ar
    24     8     7    1
    25    14    13   ar
    26    34    33    1
    27    24    16    1
    28    24    25   ar
    29    36    41    1
    30    26    33    1
    31    26    25   ar
    32    16    17   ar
    33     7    10    1
    34     7     2    1
    35     3     2   ar
    36     3     4   ar
    37    31    29    1
    38    25    29    1
    39    13    17   ar
    40    13     4    1
    41     2     1   ar
    42    29    32    1
    43    29    30    1
    44     4     5   ar
    45    41    43    1
    46    41    44    1
    47    41    42    1
    48     1     5   ar
    49     1     6    1
