@<TRIPOS>MOLECULE
mol_data/opt/cam/geoms/mol2/5ig.out
 13 13 0 0 0
SMALL
GASTEIGER

@<TRIPOS>ATOM
      1 C          -2.1555   -1.6793    0.0898 C.ar    1  LIG1       -0.0204
      2 C          -0.7970   -1.6645    0.0220 C.ar    1  LIG1       -0.0303
      3 C          -0.2951   -0.3172   -0.0334 C.ar    1  LIG1        0.0147
      4 C          -1.2772    0.6232   -0.0058 C.ar    1  LIG1       -0.0109
      5 S          -2.8424   -0.0987    0.0883 S.2     1  LIG1       -0.1037
      6 H          -2.7955   -2.5487    0.1412 H       1  LIG1        0.0696
      7 H          -1.1734    1.6979   -0.0352 H       1  LIG1        0.0704
      8 C           0.0778   -2.8813    0.0059 C.3     1  LIG1       -0.0382
      9 H           0.7699   -2.8837    0.8541 H       1  LIG1        0.0278
     10 H           0.6823   -2.9235   -0.9057 H       1  LIG1        0.0278
     11 H          -0.5199   -3.7930    0.0563 H       1  LIG1        0.0278
     12 S           1.4526   -0.0197   -0.1269 S.3     1  LIG1       -0.1418
     13 H           1.3797    1.3201   -0.1532 H       1  LIG1        0.1071
@<TRIPOS>BOND
     1    10     8    1
     2    13    12    1
     3    12     3    1
     4     7     4    1
     5     3     4   ar
     6     3     2   ar
     7     4     5   ar
     8     8     2    1
     9     8    11    1
    10     8     9    1
    11     2     1   ar
    12     5     1   ar
    13     1     6    1
