@<TRIPOS>MOLECULE
mol_data/opt/cam/geoms/mol2/5ig5ig-.out
 24 25 0 0 0
SMALL
GASTEIGER

@<TRIPOS>ATOM
      1 C          -1.8361   -1.7373    0.9435 C.ar    1  LIG1       -0.0197
      2 C          -0.7803   -1.8467    0.0929 C.ar    1  LIG1       -0.0297
      3 C          -0.3438   -0.5562   -0.3658 C.ar    1  LIG1        0.0230
      4 C          -1.0674    0.4861    0.1523 C.ar    1  LIG1        0.0396
      5 S          -2.3156   -0.1078    1.2130 S.2     1  LIG1       -0.0947
      6 H          -2.3633   -2.5464    1.4294 H       1  LIG1        0.0696
      7 C          -0.1494   -3.1374   -0.3329 C.3     1  LIG1       -0.0382
      8 H           0.9082   -3.1749   -0.0526 H       1  LIG1        0.0278
      9 H          -0.2012   -3.2633   -1.4190 H       1  LIG1        0.0278
     10 H          -0.6510   -3.9886    0.1308 H       1  LIG1        0.0278
     11 S           0.9902   -0.4322   -1.5223 S.3     1  LIG1       -0.1412
     12 H           0.8850    0.8936   -1.7128 H       1  LIG1        0.1071
     13 C          -0.9067    1.9187   -0.0928 C.ar    1  LIG1        0.0309
     14 C           0.1513    2.7210    0.2513 C.ar    1  LIG1       -0.0220
     15 C          -0.0527    4.0790   -0.1711 C.ar    1  LIG1        0.0153
     16 C          -1.2419    4.2744   -0.8024 C.ar    1  LIG1       -0.0103
     17 S          -2.1486    2.8157   -0.9186 S.2     1  LIG1       -0.0947
     18 H          -1.6364    5.1961   -1.2052 H       1  LIG1        0.0704
     19 C           1.3641    2.2672    1.0043 C.3     1  LIG1       -0.0376
     20 H           1.5174    2.8820    1.8967 H       1  LIG1        0.0278
     21 H           2.2689    2.3503    0.3931 H       1  LIG1        0.0278
     22 H           1.2631    1.2275    1.3162 H       1  LIG1        0.0278
     23 S           1.1837    5.3083    0.1591 S.3     1  LIG1       -0.1418
     24 H           0.5125    6.3427   -0.3711 H       1  LIG1        0.1071
@<TRIPOS>BOND
     1    12    11    1
     2    11     3    1
     3     9     7    1
     4    18    16    1
     5    17    16   ar
     6    17    13   ar
     7    16    15   ar
     8    24    23    1
     9     3     2   ar
    10     3     4   ar
    11     7     8    1
    12     7     2    1
    13     7    10    1
    14    15    23    1
    15    15    14   ar
    16    13     4    1
    17    13    14   ar
    18     2     1   ar
    19     4     5   ar
    20    14    19    1
    21    21    19    1
    22     1     5   ar
    23     1     6    1
    24    19    22    1
    25    19    20    1
