@<TRIPOS>MOLECULE
mol_data/opt/cam/geoms/mol2/5ig5ig-5ig5ig-.out
 46 49 0 0 0
SMALL
GASTEIGER

@<TRIPOS>ATOM
      1 C          -0.6729   -1.4204    2.3421 C.ar    1  LIG1       -0.0197
      2 C          -0.8262   -1.7176    1.0237 C.ar    1  LIG1       -0.0297
      3 C          -0.7511   -0.5349    0.2099 C.ar    1  LIG1        0.0230
      4 C          -0.5351    0.6131    0.9267 C.ar    1  LIG1        0.0396
      5 S          -0.4330    0.2582    2.6294 S.2     1  LIG1       -0.0947
      6 H          -0.6920   -2.1157    3.1697 H       1  LIG1        0.0696
      7 C          -1.0580   -3.0917    0.4731 C.3     1  LIG1       -0.0382
      8 H          -0.2653   -3.3797   -0.2249 H       1  LIG1        0.0278
      9 H          -2.0051   -3.1436   -0.0731 H       1  LIG1        0.0278
     10 H          -1.0876   -3.8330    1.2735 H       1  LIG1        0.0278
     11 S          -0.9681   -0.6531   -1.5425 S.3     1  LIG1       -0.1412
     12 H          -0.9723    0.6705   -1.7731 H       1  LIG1        0.1071
     13 C          -0.4072    1.9849    0.4361 C.ar    1  LIG1        0.0315
     14 C           0.5796    2.5077   -0.3595 C.ar    1  LIG1       -0.0214
     15 C           0.3556    3.8963   -0.6460 C.ar    1  LIG1        0.0236
     16 C          -0.7683    4.4098   -0.0533 C.ar    1  LIG1        0.0402
     17 S          -1.5984    3.1796    0.8518 S.2     1  LIG1       -0.0858
     18 C           1.7684    1.7484   -0.8630 C.3     1  LIG1       -0.0375
     19 H           2.6978    2.2558   -0.5863 H       1  LIG1        0.0278
     20 H           1.7562    1.6671   -1.9548 H       1  LIG1        0.0278
     21 H           1.7907    0.7403   -0.4490 H       1  LIG1        0.0278
     22 S           1.4773    4.7703   -1.6998 S.3     1  LIG1       -0.1412
     23 H           0.7715    5.9130   -1.7329 H       1  LIG1        0.1071
     24 C          -1.2908    5.7746   -0.1214 C.ar    1  LIG1        0.0315
     25 C          -0.7226    6.9196    0.3747 C.ar    1  LIG1       -0.0214
     26 C          -1.5252    8.0768    0.0974 C.ar    1  LIG1        0.0236
     27 C          -2.6867    7.7977   -0.5744 C.ar    1  LIG1        0.0402
     28 S          -2.8069    6.0958   -0.9063 S.2     1  LIG1       -0.0858
     29 C           0.5670    6.9795    1.1341 C.3     1  LIG1       -0.0375
     30 H           0.4235    7.4675    2.1032 H       1  LIG1        0.0278
     31 H           1.3227    7.5556    0.5903 H       1  LIG1        0.0278
     32 H           0.9646    5.9797    1.3090 H       1  LIG1        0.0278
     33 S          -0.9644    9.6790    0.5980 S.3     1  LIG1       -0.1412
     34 H          -1.9622   10.3612    0.0114 H       1  LIG1        0.1071
     35 C          -3.7316    8.7240   -1.0100 C.ar    1  LIG1        0.0309
     36 C          -4.5765    9.4705   -0.2289 C.ar    1  LIG1       -0.0220
     37 C          -5.4632   10.2734   -1.0248 C.ar    1  LIG1        0.0153
     38 C          -5.2819   10.1107   -2.3634 C.ar    1  LIG1       -0.0103
     39 S          -4.0222    8.9887   -2.7050 S.2     1  LIG1       -0.0947
     40 H          -5.8201   10.5883   -3.1695 H       1  LIG1        0.0704
     41 C          -4.6125    9.4436    1.2683 C.3     1  LIG1       -0.0376
     42 H          -5.6216    9.2170    1.6262 H       1  LIG1        0.0278
     43 H          -4.3274   10.4121    1.6925 H       1  LIG1        0.0278
     44 H          -3.9311    8.6896    1.6628 H       1  LIG1        0.0278
     45 S          -6.6499   11.3321   -0.2386 S.3     1  LIG1       -0.1418
     46 H          -7.2148   11.7893   -1.3671 H       1  LIG1        0.1071
@<TRIPOS>BOND
     1    40    38    1
     2    39    38   ar
     3    39    35   ar
     4    38    37   ar
     5    20    18    1
     6    12    11    1
     7    23    22    1
     8    22    15    1
     9    11     3    1
    10    46    45    1
    11    37    45    1
    12    37    36   ar
    13    35    27    1
    14    35    36   ar
    15    28    27   ar
    16    28    24   ar
    17    18    19    1
    18    18    21    1
    19    18    14    1
    20    15    14   ar
    21    15    16   ar
    22    27    26   ar
    23    14    13   ar
    24    36    41    1
    25     8     7    1
    26    24    16    1
    27    24    25   ar
    28     9     7    1
    29    16    17   ar
    30    34    33    1
    31    26    25   ar
    32    26    33    1
    33     3     4   ar
    34     3     2   ar
    35    25    29    1
    36    13    17   ar
    37    13     4    1
    38     7     2    1
    39     7    10    1
    40    31    29    1
    41     4     5   ar
    42     2     1   ar
    43    29    32    1
    44    29    30    1
    45    41    42    1
    46    41    44    1
    47    41    43    1
    48     1     5   ar
    49     1     6    1
