@<TRIPOS>MOLECULE
mol_data/opt/cam/geoms/mol2/5ig5ig.out
 24 25 0 0 0
SMALL
GASTEIGER

@<TRIPOS>ATOM
      1 C          -1.8440   -1.7400    0.9306 C.ar    1  LIG1       -0.0197
      2 C          -0.7812   -1.8470    0.0884 C.ar    1  LIG1       -0.0297
      3 C          -0.3409   -0.5551   -0.3627 C.ar    1  LIG1        0.0230
      4 C          -1.0687    0.4857    0.1526 C.ar    1  LIG1        0.0396
      5 S          -2.3257   -0.1113    1.2011 S.2     1  LIG1       -0.0947
      6 H          -2.3753   -2.5506    1.4096 H       1  LIG1        0.0696
      7 C          -0.1469   -3.1364   -0.3361 C.3     1  LIG1       -0.0382
      8 H           0.9083   -3.1748   -0.0472 H       1  LIG1        0.0278
      9 H          -0.1897   -3.2589   -1.4230 H       1  LIG1        0.0278
     10 H          -0.6524   -3.9889    0.1208 H       1  LIG1        0.0278
     11 S           1.0027   -0.4276   -1.5077 S.3     1  LIG1       -0.1412
     12 H           0.8991    0.8988   -1.6950 H       1  LIG1        0.1071
     13 C          -0.9059    1.9191   -0.0867 C.ar    1  LIG1        0.0309
     14 C           0.1493    2.7202    0.2687 C.ar    1  LIG1       -0.0220
     15 C          -0.0512    4.0795   -0.1512 C.ar    1  LIG1        0.0153
     16 C          -1.2351    4.2769   -0.7917 C.ar    1  LIG1       -0.0103
     17 S          -2.1408    2.8187   -0.9201 S.2     1  LIG1       -0.0947
     18 H          -1.6262    5.1999   -1.1950 H       1  LIG1        0.0704
     19 C           1.3557    2.2639    1.0304 C.3     1  LIG1       -0.0376
     20 H           1.5017    2.8760    1.9259 H       1  LIG1        0.0278
     21 H           2.2655    2.3489    0.4269 H       1  LIG1        0.0278
     22 H           1.2520    1.2233    1.3382 H       1  LIG1        0.0278
     23 S           1.1824    5.3077    0.1931 S.3     1  LIG1       -0.1418
     24 H           0.5157    6.3438   -0.3393 H       1  LIG1        0.1071
@<TRIPOS>BOND
     1    12    11    1
     2    11     3    1
     3     9     7    1
     4    18    16    1
     5    17    16   ar
     6    17    13   ar
     7    16    15   ar
     8     3     2   ar
     9     3     4   ar
    10    24    23    1
    11     7     8    1
    12     7     2    1
    13     7    10    1
    14    15    23    1
    15    15    14   ar
    16    13     4    1
    17    13    14   ar
    18     2     1   ar
    19     4     5   ar
    20    14    19    1
    21    21    19    1
    22     1     5   ar
    23     1     6    1
    24    19    22    1
    25    19    20    1
