@<TRIPOS>MOLECULE
mol_data/opt/cam/geoms/mol2/5ig5ig-5ig5ig.out
 46 49 0 0 0
SMALL
GASTEIGER

@<TRIPOS>ATOM
      1 C          -0.6799   -1.4015    2.3985 C.ar    1  LIG1       -0.0197
      2 C          -0.8248   -1.7089    1.0814 C.ar    1  LIG1       -0.0297
      3 C          -0.7462   -0.5322    0.2591 C.ar    1  LIG1        0.0230
      4 C          -0.5359    0.6214    0.9685 C.ar    1  LIG1        0.0396
      5 S          -0.4437    0.2795    2.6744 S.2     1  LIG1       -0.0947
      6 H          -0.7031   -2.0905    3.2311 H       1  LIG1        0.0696
      7 C          -1.0516   -3.0873    0.5398 C.3     1  LIG1       -0.0382
      8 H          -0.2544   -3.3796   -0.1512 H       1  LIG1        0.0278
      9 H          -1.9954   -3.1445   -0.0116 H       1  LIG1        0.0278
     10 H          -1.0851   -3.8226    1.3457 H       1  LIG1        0.0278
     11 S          -0.9523   -0.6639   -1.4936 S.3     1  LIG1       -0.1412
     12 H          -0.9568    0.6578   -1.7342 H       1  LIG1        0.1071
     13 C          -0.4067    1.9897    0.4683 C.ar    1  LIG1        0.0315
     14 C           0.5843    2.5077   -0.3252 C.ar    1  LIG1       -0.0214
     15 C           0.3605    3.8937   -0.6236 C.ar    1  LIG1        0.0236
     16 C          -0.7677    4.4103   -0.0416 C.ar    1  LIG1        0.0402
     17 S          -1.6017    3.1860    0.8678 S.2     1  LIG1       -0.0858
     18 C           1.7771    1.7460   -0.8157 C.3     1  LIG1       -0.0375
     19 H           2.7042    2.2566   -0.5372 H       1  LIG1        0.0278
     20 H           1.7716    1.6565   -1.9069 H       1  LIG1        0.0278
     21 H           1.7981    0.7410   -0.3940 H       1  LIG1        0.0278
     22 S           1.4875    4.7611   -1.6772 S.3     1  LIG1       -0.1412
     23 H           0.7806    5.9026   -1.7232 H       1  LIG1        0.1071
     24 C          -1.2913    5.7739   -0.1232 C.ar    1  LIG1        0.0315
     25 C          -0.7275    6.9233    0.3677 C.ar    1  LIG1       -0.0214
     26 C          -1.5298    8.0774    0.0767 C.ar    1  LIG1        0.0236
     27 C          -2.6868    7.7919   -0.6000 C.ar    1  LIG1        0.0402
     28 S          -2.8030    6.0873   -0.9197 S.2     1  LIG1       -0.0858
     29 C           0.5574    6.9906    1.1344 C.3     1  LIG1       -0.0375
     30 H           0.4074    7.4857    2.0989 H       1  LIG1        0.0278
     31 H           1.3157    7.5635    0.5908 H       1  LIG1        0.0278
     32 H           0.9550    5.9926    1.3192 H       1  LIG1        0.0278
     33 S          -0.9740    9.6841    0.5686 S.3     1  LIG1       -0.1412
     34 H          -1.9689   10.3606   -0.0293 H       1  LIG1        0.1071
     35 C          -3.7302    8.7135   -1.0489 C.ar    1  LIG1        0.0309
     36 C          -4.5807    9.4649   -0.2786 C.ar    1  LIG1       -0.0220
     37 C          -5.4635   10.2606   -1.0860 C.ar    1  LIG1        0.0153
     38 C          -5.2739   10.0881   -2.4222 C.ar    1  LIG1       -0.0103
     39 S          -4.0108    8.9650   -2.7476 S.2     1  LIG1       -0.0947
     40 H          -5.8077   10.5589   -3.2351 H       1  LIG1        0.0704
     41 C          -4.6257    9.4492    1.2185 C.3     1  LIG1       -0.0376
     42 H          -5.6367    9.2241    1.5720 H       1  LIG1        0.0278
     43 H          -4.3444   10.4212    1.6370 H       1  LIG1        0.0278
     44 H          -3.9459    8.6991    1.6228 H       1  LIG1        0.0278
     45 S          -6.6562   11.3238   -0.3150 S.3     1  LIG1       -0.1418
     46 H          -7.2149   11.7716   -1.4503 H       1  LIG1        0.1071
@<TRIPOS>BOND
     1    40    38    1
     2    39    38   ar
     3    39    35   ar
     4    38    37   ar
     5    20    18    1
     6    12    11    1
     7    23    22    1
     8    22    15    1
     9    11     3    1
    10    46    45    1
    11    37    45    1
    12    37    36   ar
    13    35    27    1
    14    35    36   ar
    15    28    27   ar
    16    28    24   ar
    17    18    19    1
    18    18    21    1
    19    18    14    1
    20    15    14   ar
    21    15    16   ar
    22    27    26   ar
    23    14    13   ar
    24    36    41    1
    25     8     7    1
    26    24    16    1
    27    24    25   ar
    28    16    17   ar
    29    34    33    1
    30     9     7    1
    31    26    25   ar
    32    26    33    1
    33     3     4   ar
    34     3     2   ar
    35    25    29    1
    36    13    17   ar
    37    13     4    1
    38     7     2    1
    39     7    10    1
    40    31    29    1
    41     4     5   ar
    42     2     1   ar
    43    29    32    1
    44    29    30    1
    45    41    42    1
    46    41    44    1
    47    41    43    1
    48     1     5   ar
    49     1     6    1
