@<TRIPOS>MOLECULE
mol_data/opt/cam/geoms/mol2/5ig5ig5ig-.out
 35 37 0 0 0
SMALL
GASTEIGER

@<TRIPOS>ATOM
      1 C          -1.4299   -1.6130    1.7083 C.ar    1  LIG1       -0.0197
      2 C          -0.8702   -1.8391    0.4894 C.ar    1  LIG1       -0.0297
      3 C          -0.5191   -0.6059   -0.1606 C.ar    1  LIG1        0.0230
      4 C          -0.8103    0.5092    0.5810 C.ar    1  LIG1        0.0396
      5 S          -1.5398    0.0585    2.0978 S.2     1  LIG1       -0.0947
      6 H          -1.7896   -2.3578    2.4044 H       1  LIG1        0.0696
      7 C          -0.6527   -3.1908   -0.1195 C.3     1  LIG1       -0.0382
      8 H           0.4075   -3.3681   -0.3265 H       1  LIG1        0.0278
      9 H          -1.1886   -3.2873   -1.0690 H       1  LIG1        0.0278
     10 H          -1.0021   -3.9804    0.5481 H       1  LIG1        0.0278
     11 S           0.1840   -0.6322   -1.7845 S.3     1  LIG1       -0.1412
     12 H           0.1644    0.6987   -1.9668 H       1  LIG1        0.1071
     13 C          -0.5971    1.9147    0.2376 C.ar    1  LIG1        0.0315
     14 C           0.5951    2.5665    0.0529 C.ar    1  LIG1       -0.0214
     15 C           0.4018    3.9456   -0.2945 C.ar    1  LIG1        0.0236
     16 C          -0.9140    4.3257   -0.3442 C.ar    1  LIG1        0.0402
     17 S          -1.9527    2.9774    0.0094 S.2     1  LIG1       -0.0858
     18 C           1.9474    1.9421    0.2099 C.3     1  LIG1       -0.0375
     19 H           2.5565    2.5103    0.9198 H       1  LIG1        0.0278
     20 H           2.4906    1.9232   -0.7406 H       1  LIG1        0.0278
     21 H           1.8638    0.9173    0.5720 H       1  LIG1        0.0278
     22 S           1.8021    4.9742   -0.6325 S.3     1  LIG1       -0.1412
     23 H           1.0919    6.0527   -1.0035 H       1  LIG1        0.1071
     24 C          -1.4708    5.6427   -0.6519 C.ar    1  LIG1        0.0309
     25 C          -1.3510    6.8000    0.0747 C.ar    1  LIG1       -0.0220
     26 C          -2.0342    7.8951   -0.5561 C.ar    1  LIG1        0.0153
     27 C          -2.6537    7.5473   -1.7165 C.ar    1  LIG1       -0.0103
     28 S          -2.4199    5.8835   -2.0903 S.2     1  LIG1       -0.0947
     29 H          -3.2356    8.1775   -2.3735 H       1  LIG1        0.0704
     30 C          -0.6325    6.9233    1.3832 C.3     1  LIG1       -0.0376
     31 H          -1.2944    7.3390    2.1492 H       1  LIG1        0.0278
     32 H           0.2317    7.5911    1.3035 H       1  LIG1        0.0278
     33 H          -0.2764    5.9520    1.7271 H       1  LIG1        0.0278
     34 S          -2.0186    9.5028    0.1944 S.3     1  LIG1       -0.1418
     35 H          -2.8114   10.0991   -0.7097 H       1  LIG1        0.1071
@<TRIPOS>BOND
     1    29    27    1
     2    28    27   ar
     3    28    24   ar
     4    12    11    1
     5    11     3    1
     6    27    26   ar
     7     9     7    1
     8    23    22    1
     9    20    18    1
    10    35    34    1
    11    24    16    1
    12    24    25   ar
    13    22    15    1
    14    26    25   ar
    15    26    34    1
    16    16    15   ar
    17    16    17   ar
    18     8     7    1
    19    15    14   ar
    20     3     2   ar
    21     3     4   ar
    22     7     2    1
    23     7    10    1
    24    17    13   ar
    25    14    18    1
    26    14    13   ar
    27    25    30    1
    28    18    21    1
    29    18    19    1
    30    13     4    1
    31     2     1   ar
    32     4     5   ar
    33    32    30    1
    34    30    33    1
    35    30    31    1
    36     1     5   ar
    37     1     6    1
