@<TRIPOS>MOLECULE
mol_data/opt/cam/geoms/mol2/5ig5ig-5ig-5ig.out
 46 49 0 0 0
SMALL
GASTEIGER

@<TRIPOS>ATOM
      1 C          -0.7275   -1.4251    2.3512 C.ar    1  LIG1       -0.0197
      2 C          -0.8542   -1.7201    1.0294 C.ar    1  LIG1       -0.0297
      3 C          -0.7612   -0.5361    0.2192 C.ar    1  LIG1        0.0230
      4 C          -0.5586    0.6105    0.9422 C.ar    1  LIG1        0.0396
      5 S          -0.4917    0.2527    2.6460 S.2     1  LIG1       -0.0947
      6 H          -0.7642   -2.1218    3.1771 H       1  LIG1        0.0696
      7 C          -1.0762   -3.0930    0.4720 C.3     1  LIG1       -0.0382
      8 H          -0.2697   -3.3807   -0.2101 H       1  LIG1        0.0278
      9 H          -2.0120   -3.1430   -0.0935 H       1  LIG1        0.0278
     10 H          -1.1229   -3.8356    1.2705 H       1  LIG1        0.0278
     11 S          -0.9425   -0.6513   -1.5374 S.3     1  LIG1       -0.1412
     12 H          -0.9406    0.6726   -1.7658 H       1  LIG1        0.1071
     13 C          -0.4193    1.9830    0.4565 C.ar    1  LIG1        0.0315
     14 C           0.5841    2.5059   -0.3179 C.ar    1  LIG1       -0.0214
     15 C           0.3676    3.8952   -0.6067 C.ar    1  LIG1        0.0236
     16 C          -0.7677    4.4090   -0.0363 C.ar    1  LIG1        0.0402
     17 S          -1.6174    3.1783    0.8497 S.2     1  LIG1       -0.0858
     18 C           1.7822    1.7461   -0.7982 C.3     1  LIG1       -0.0375
     19 H           2.7063    2.2520   -0.5018 H       1  LIG1        0.0278
     20 H           1.7922    1.6665   -1.8902 H       1  LIG1        0.0278
     21 H           1.7950    0.7372   -0.3855 H       1  LIG1        0.0278
     22 S           1.5115    4.7696   -1.6360 S.3     1  LIG1       -0.1412
     23 H           0.8078    5.9131   -1.6816 H       1  LIG1        0.1071
     24 C          -1.2871    5.7745   -0.1128 C.ar    1  LIG1        0.0315
     25 C          -0.7280    6.9180    0.3967 C.ar    1  LIG1       -0.0214
     26 C          -1.5235    8.0766    0.1048 C.ar    1  LIG1        0.0236
     27 C          -2.6713    7.7999   -0.5910 C.ar    1  LIG1        0.0402
     28 S          -2.7866    6.0986   -0.9280 S.2     1  LIG1       -0.0858
     29 C           0.5459    6.9753    1.1824 C.3     1  LIG1       -0.0375
     30 H           0.3832    7.4619    2.1491 H       1  LIG1        0.0278
     31 H           1.3132    7.5514    0.6550 H       1  LIG1        0.0278
     32 H           0.9387    5.9747    1.3637 H       1  LIG1        0.0278
     33 S          -0.9713    9.6774    0.6195 S.3     1  LIG1       -0.1412
     34 H          -1.9561   10.3616    0.0136 H       1  LIG1        0.1071
     35 C          -3.7061    8.7280   -1.0463 C.ar    1  LIG1        0.0309
     36 C          -4.5660    9.4742   -0.2814 C.ar    1  LIG1       -0.0220
     37 C          -5.4354   10.2794   -1.0940 C.ar    1  LIG1        0.0153
     38 C          -5.2269   10.1186   -2.4289 C.ar    1  LIG1       -0.0103
     39 S          -3.9618    8.9957   -2.7465 S.2     1  LIG1       -0.0947
     40 H          -5.7480   10.5981   -3.2450 H       1  LIG1        0.0704
     41 C          -4.6325    9.4450    1.2147 C.3     1  LIG1       -0.0376
     42 H          -5.6490    9.2190    1.5515 H       1  LIG1        0.0278
     43 H          -4.3551   10.4125    1.6461 H       1  LIG1        0.0278
     44 H          -3.9602    8.6896    1.6218 H       1  LIG1        0.0278
     45 S          -6.6367   11.3382   -0.3305 S.3     1  LIG1       -0.1418
     46 H          -7.1780   11.7977   -1.4695 H       1  LIG1        0.1071
@<TRIPOS>BOND
     1    40    38    1
     2    39    38   ar
     3    39    35   ar
     4    38    37   ar
     5    20    18    1
     6    12    11    1
     7    23    22    1
     8    22    15    1
     9    11     3    1
    10    46    45    1
    11    37    45    1
    12    37    36   ar
    13    35    27    1
    14    35    36   ar
    15    28    27   ar
    16    28    24   ar
    17    18    19    1
    18    18    21    1
    19    18    14    1
    20    15    14   ar
    21    15    16   ar
    22    27    26   ar
    23    14    13   ar
    24    36    41    1
    25     8     7    1
    26    24    16    1
    27    24    25   ar
    28     9     7    1
    29    16    17   ar
    30    34    33    1
    31    26    25   ar
    32    26    33    1
    33     3     4   ar
    34     3     2   ar
    35    25    29    1
    36    13    17   ar
    37    13     4    1
    38     7     2    1
    39     7    10    1
    40    31    29    1
    41     4     5   ar
    42     2     1   ar
    43    29    32    1
    44    29    30    1
    45    41    42    1
    46    41    44    1
    47    41    43    1
    48     1     5   ar
    49     1     6    1
