@<TRIPOS>MOLECULE
mol_data/opt/cam/geoms/mol2/5ig5ig-5ig-.out
 35 37 0 0 0
SMALL
GASTEIGER

@<TRIPOS>ATOM
      1 C          -1.3445   -1.6164    1.7444 C.ar    1  LIG1       -0.0197
      2 C          -0.8200   -1.8405    0.5096 C.ar    1  LIG1       -0.0297
      3 C          -0.4977   -0.6058   -0.1524 C.ar    1  LIG1        0.0230
      4 C          -0.7748    0.5084    0.5960 C.ar    1  LIG1        0.0396
      5 S          -1.4549    0.0548    2.1347 S.2     1  LIG1       -0.0947
      6 H          -1.6776   -2.3627    2.4521 H       1  LIG1        0.0696
      7 C          -0.6109   -3.1915   -0.1036 C.3     1  LIG1       -0.0382
      8 H           0.4439   -3.3613   -0.3421 H       1  LIG1        0.0278
      9 H          -1.1743   -3.2935   -1.0365 H       1  LIG1        0.0278
     10 H          -0.9343   -3.9825    0.5753 H       1  LIG1        0.0278
     11 S           0.1564   -0.6296   -1.7967 S.3     1  LIG1       -0.1412
     12 H           0.1215    0.7008   -1.9803 H       1  LIG1        0.1071
     13 C          -0.5823    1.9149    0.2443 C.ar    1  LIG1        0.0315
     14 C           0.5989    2.5750    0.0229 C.ar    1  LIG1       -0.0214
     15 C           0.3851    3.9522   -0.3205 C.ar    1  LIG1        0.0236
     16 C          -0.9343    4.3225   -0.3311 C.ar    1  LIG1        0.0402
     17 S          -1.9519    2.9672    0.0555 S.2     1  LIG1       -0.0858
     18 C           1.9599    1.9608    0.1400 C.3     1  LIG1       -0.0375
     19 H           2.5860    2.5348    0.8303 H       1  LIG1        0.0278
     20 H           2.4743    1.9442   -0.8264 H       1  LIG1        0.0278
     21 H           1.8949    0.9361    0.5062 H       1  LIG1        0.0278
     22 S           1.7670    4.9904   -0.7019 S.3     1  LIG1       -0.1412
     23 H           1.0380    6.0631   -1.0528 H       1  LIG1        0.1071
     24 C          -1.5098    5.6349   -0.6237 C.ar    1  LIG1        0.0309
     25 C          -1.3768    6.7942    0.0973 C.ar    1  LIG1       -0.0220
     26 C          -2.0867    7.8833   -0.5143 C.ar    1  LIG1        0.0153
     27 C          -2.7382    7.5290   -1.6550 C.ar    1  LIG1       -0.0103
     28 S          -2.5035    5.8664   -2.0333 S.2     1  LIG1       -0.0947
     29 H          -3.3442    8.1539   -2.2951 H       1  LIG1        0.0704
     30 C          -0.6203    6.9249    1.3834 C.3     1  LIG1       -0.0376
     31 H          -1.2619    7.3369    2.1684 H       1  LIG1        0.0278
     32 H           0.2361    7.5989    1.2769 H       1  LIG1        0.0278
     33 H          -0.2468    5.9568    1.7178 H       1  LIG1        0.0278
     34 S          -2.0605    9.4922    0.2332 S.3     1  LIG1       -0.1418
     35 H          -2.8843   10.0813   -0.6476 H       1  LIG1        0.1071
@<TRIPOS>BOND
     1    29    27    1
     2    28    27   ar
     3    28    24   ar
     4    12    11    1
     5    11     3    1
     6    27    26   ar
     7    23    22    1
     8     9     7    1
     9    20    18    1
    10    22    15    1
    11    35    34    1
    12    24    16    1
    13    24    25   ar
    14    26    25   ar
    15    26    34    1
    16     8     7    1
    17    16    15   ar
    18    16    17   ar
    19    15    14   ar
    20     3     2   ar
    21     3     4   ar
    22     7     2    1
    23     7    10    1
    24    14    18    1
    25    14    13   ar
    26    17    13   ar
    27    25    30    1
    28    18    21    1
    29    18    19    1
    30    13     4    1
    31     2     1   ar
    32     4     5   ar
    33    32    30    1
    34    30    33    1
    35    30    31    1
    36     1     5   ar
    37     1     6    1
