@<TRIPOS>MOLECULE
mol_data/opt/cam/geoms/mol2/5ig5ig-5ig.out
 35 37 0 0 0
SMALL
GASTEIGER

@<TRIPOS>ATOM
      1 C          -1.3685   -1.6161    1.7281 C.ar    1  LIG1       -0.0197
      2 C          -0.8390   -1.8402    0.4955 C.ar    1  LIG1       -0.0297
      3 C          -0.5093   -0.6057   -0.1633 C.ar    1  LIG1        0.0230
      4 C          -0.7860    0.5084    0.5854 C.ar    1  LIG1        0.0396
      5 S          -1.4750    0.0550    2.1202 S.2     1  LIG1       -0.0947
      6 H          -1.7075   -2.3622    2.4332 H       1  LIG1        0.0696
      7 C          -0.6317   -3.1911   -0.1187 C.3     1  LIG1       -0.0382
      8 H           0.4236   -3.3642   -0.3525 H       1  LIG1        0.0278
      9 H          -1.1911   -3.2898   -1.0543 H       1  LIG1        0.0278
     10 H          -0.9609   -3.9819    0.5576 H       1  LIG1        0.0278
     11 S           0.1526   -0.6295   -1.8045 S.3     1  LIG1       -0.1412
     12 H           0.1232    0.7013   -1.9863 H       1  LIG1        0.1071
     13 C          -0.5870    1.9146    0.2366 C.ar    1  LIG1        0.0315
     14 C           0.5975    2.5710    0.0218 C.ar    1  LIG1       -0.0214
     15 C           0.3902    3.9494   -0.3207 C.ar    1  LIG1        0.0236
     16 C          -0.9280    4.3242   -0.3371 C.ar    1  LIG1        0.0402
     17 S          -1.9521    2.9720    0.0428 S.2     1  LIG1       -0.0858
     18 C           1.9559    1.9519    0.1445 C.3     1  LIG1       -0.0375
     19 H           2.5806    2.5227    0.8387 H       1  LIG1        0.0278
     20 H           2.4749    1.9350   -0.8194 H       1  LIG1        0.0278
     21 H           1.8855    0.9269    0.5087 H       1  LIG1        0.0278
     22 S           1.7774    4.9834   -0.6940 S.3     1  LIG1       -0.1412
     23 H           1.0538    6.0590   -1.0469 H       1  LIG1        0.1071
     24 C          -1.4975    5.6391   -0.6306 C.ar    1  LIG1        0.0309
     25 C          -1.3639    6.7969    0.0927 C.ar    1  LIG1       -0.0220
     26 C          -2.0672    7.8893   -0.5207 C.ar    1  LIG1        0.0153
     27 C          -2.7144    7.5389   -1.6650 C.ar    1  LIG1       -0.0103
     28 S          -2.4836    5.8760   -2.0446 S.2     1  LIG1       -0.0947
     29 H          -3.3152    8.1667   -2.3072 H       1  LIG1        0.0704
     30 C          -0.6131    6.9231    1.3826 C.3     1  LIG1       -0.0376
     31 H          -1.2570    7.3365    2.1650 H       1  LIG1        0.0278
     32 H           0.2462    7.5943    1.2811 H       1  LIG1        0.0278
     33 H          -0.2447    5.9533    1.7174 H       1  LIG1        0.0278
     34 S          -2.0390    9.4970    0.2292 S.3     1  LIG1       -0.1418
     35 H          -2.8567   10.0902   -0.6546 H       1  LIG1        0.1071
@<TRIPOS>BOND
     1    29    27    1
     2    28    27   ar
     3    28    24   ar
     4    12    11    1
     5    11     3    1
     6    27    26   ar
     7     9     7    1
     8    23    22    1
     9    20    18    1
    10    22    15    1
    11    35    34    1
    12    24    16    1
    13    24    25   ar
    14    26    25   ar
    15    26    34    1
    16     8     7    1
    17    16    15   ar
    18    16    17   ar
    19    15    14   ar
    20     3     2   ar
    21     3     4   ar
    22     7     2    1
    23     7    10    1
    24    14    18    1
    25    14    13   ar
    26    17    13   ar
    27    25    30    1
    28    18    21    1
    29    18    19    1
    30    13     4    1
    31     2     1   ar
    32     4     5   ar
    33    32    30    1
    34    30    33    1
    35    30    31    1
    36     1     5   ar
    37     1     6    1
