@<TRIPOS>MOLECULE
mol_data/opt/cam/geoms/mol2/5ig5ig5ig-5ig.out
 46 49 0 0 0
SMALL
GASTEIGER

@<TRIPOS>ATOM
      1 C          -0.7671   -1.3943    2.4264 C.ar    1  LIG1       -0.0197
      2 C          -0.8720   -1.7062    1.1066 C.ar    1  LIG1       -0.0297
      3 C          -0.7655   -0.5328    0.2829 C.ar    1  LIG1        0.0230
      4 C          -0.5747    0.6230    0.9943 C.ar    1  LIG1        0.0396
      5 S          -0.5359    0.2872    2.7034 S.2     1  LIG1       -0.0947
      6 H          -0.8176   -2.0802    3.2604 H       1  LIG1        0.0696
      7 C          -1.0851   -3.0862    0.5633 C.3     1  LIG1       -0.0382
      8 H          -0.2676   -3.3826   -0.1018 H       1  LIG1        0.0278
      9 H          -2.0115   -3.1435   -0.0167 H       1  LIG1        0.0278
     10 H          -1.1449   -3.8185    1.3704 H       1  LIG1        0.0278
     11 S          -0.9178   -0.6705   -1.4749 S.3     1  LIG1       -0.1412
     12 H          -0.9119    0.6503   -1.7203 H       1  LIG1        0.1071
     13 C          -0.4271    1.9891    0.4933 C.ar    1  LIG1        0.0315
     14 C           0.5891    2.5021   -0.2710 C.ar    1  LIG1       -0.0214
     15 C           0.3776    3.8875   -0.5813 C.ar    1  LIG1        0.0236
     16 C          -0.7670    4.4085   -0.0366 C.ar    1  LIG1        0.0402
     17 S          -1.6314    3.1893    0.8511 S.2     1  LIG1       -0.0858
     18 C           1.7949    1.7362   -0.7214 C.3     1  LIG1       -0.0375
     19 H           2.7140    2.2461   -0.4164 H       1  LIG1        0.0278
     20 H           1.8230    1.6424   -1.8119 H       1  LIG1        0.0278
     21 H           1.8008    0.7329   -0.2954 H       1  LIG1        0.0278
     22 S           1.5386    4.7487   -1.6026 S.3     1  LIG1       -0.1412
     23 H           0.8359    5.8914   -1.6747 H       1  LIG1        0.1071
     24 C          -1.2850    5.7728   -0.1396 C.ar    1  LIG1        0.0315
     25 C          -0.7344    6.9229    0.3645 C.ar    1  LIG1       -0.0214
     26 C          -1.5247    8.0775    0.0443 C.ar    1  LIG1        0.0236
     27 C          -2.6606    7.7918   -0.6673 C.ar    1  LIG1        0.0402
     28 S          -2.7704    6.0863   -0.9841 S.2     1  LIG1       -0.0858
     29 C           0.5261    6.9905    1.1707 C.3     1  LIG1       -0.0375
     30 H           0.3471    7.4896    2.1282 H       1  LIG1        0.0278
     31 H           1.3022    7.5597    0.6489 H       1  LIG1        0.0278
     32 H           0.9156    5.9924    1.3717 H       1  LIG1        0.0278
     33 S          -0.9811    9.6849    0.5474 S.3     1  LIG1       -0.1412
     34 H          -1.9554   10.3612   -0.0838 H       1  LIG1        0.1071
     35 C          -3.6874    8.7139   -1.1520 C.ar    1  LIG1        0.0309
     36 C          -4.5600    9.4698   -0.4114 C.ar    1  LIG1       -0.0220
     37 C          -5.4154   10.2643   -1.2489 C.ar    1  LIG1        0.0153
     38 C          -5.1844   10.0865   -2.5779 C.ar    1  LIG1       -0.0103
     39 S          -3.9143    8.9596   -2.8596 S.2     1  LIG1       -0.0947
     40 H          -5.6916   10.5553   -3.4088 H       1  LIG1        0.0704
     41 C          -4.6518    9.4599    1.0836 C.3     1  LIG1       -0.0376
     42 H          -5.6739    9.2389    1.4061 H       1  LIG1        0.0278
     43 H          -4.3809   10.4327    1.5071 H       1  LIG1        0.0278
     44 H          -3.9870    8.7095    1.5117 H       1  LIG1        0.0278
     45 S          -6.6293   11.3329   -0.5196 S.3     1  LIG1       -0.1418
     46 H          -7.1512   11.7776   -1.6734 H       1  LIG1        0.1071
@<TRIPOS>BOND
     1    40    38    1
     2    39    38   ar
     3    39    35   ar
     4    38    37   ar
     5    20    18    1
     6    12    11    1
     7    23    22    1
     8    46    45    1
     9    22    15    1
    10    11     3    1
    11    37    45    1
    12    37    36   ar
    13    35    27    1
    14    35    36   ar
    15    28    27   ar
    16    28    24   ar
    17    18    19    1
    18    18    21    1
    19    18    14    1
    20    27    26   ar
    21    15    14   ar
    22    15    16   ar
    23    36    41    1
    24    14    13   ar
    25    24    16    1
    26    24    25   ar
    27     8     7    1
    28    34    33    1
    29    16    17   ar
    30     9     7    1
    31    26    25   ar
    32    26    33    1
    33     3     4   ar
    34     3     2   ar
    35    25    29    1
    36    13    17   ar
    37    13     4    1
    38     7     2    1
    39     7    10    1
    40    31    29    1
    41     4     5   ar
    42    41    42    1
    43    41    43    1
    44    41    44    1
    45     2     1   ar
    46    29    32    1
    47    29    30    1
    48     1     5   ar
    49     1     6    1
