@<TRIPOS>MOLECULE
mol_data/opt/cam/geoms/mol2/5ih.out
 14 14 0 0 0
SMALL
GASTEIGER

@<TRIPOS>ATOM
      1 C          -2.1404   -1.6653    0.0942 C.ar    1  LIG1       -0.0196
      2 C          -0.7838   -1.6670    0.0084 C.ar    1  LIG1       -0.0228
      3 C          -0.2547   -0.3290   -0.0767 C.ar    1  LIG1        0.0346
      4 C          -1.2296    0.6236   -0.0527 C.ar    1  LIG1       -0.0034
      5 S          -2.8060   -0.0758    0.0875 S.2     1  LIG1       -0.1029
      6 H          -2.7888   -2.5266    0.1724 H       1  LIG1        0.0696
      7 H          -1.1078    1.6960   -0.0992 H       1  LIG1        0.0712
      8 C           0.0884   -2.8853    0.0144 C.3     1  LIG1       -0.0375
      9 H           0.8365   -2.8266    0.8114 H       1  LIG1        0.0278
     10 H           0.6308   -3.0021   -0.9318 H       1  LIG1        0.0278
     11 H          -0.5005   -3.7917    0.1655 H       1  LIG1        0.0278
     12 N           1.1255   -0.0953   -0.1048 N.pl3   1  LIG1       -0.3573
     13 H           1.6353   -0.7535   -0.6794 H       1  LIG1        0.1423
     14 H           1.3708    0.8524   -0.3559 H       1  LIG1        0.1423
@<TRIPOS>BOND
     1    10     8    1
     2    13    12    1
     3    14    12    1
     4    12     3    1
     5     7     4    1
     6     3     4   ar
     7     3     2   ar
     8     4     5   ar
     9     2     8    1
    10     2     1   ar
    11     8    11    1
    12     8     9    1
    13     5     1   ar
    14     1     6    1
