@<TRIPOS>MOLECULE
mol_data/opt/cam/geoms/mol2/5ih5ih5ih.out
 38 40 0 0 0
SMALL
GASTEIGER

@<TRIPOS>ATOM
      1 C          -1.4699   -1.7119    1.5473 C.ar    1  LIG1       -0.0190
      2 C          -0.7318   -1.8628    0.4156 C.ar    1  LIG1       -0.0222
      3 C          -0.3754   -0.5928   -0.1574 C.ar    1  LIG1        0.0430
      4 C          -0.8432    0.4779    0.5635 C.ar    1  LIG1        0.0471
      5 S          -1.7379   -0.0632    1.9619 S.2     1  LIG1       -0.0940
      6 H          -1.8680   -2.4999    2.1713 H       1  LIG1        0.0697
      7 C          -0.3252   -3.1712   -0.1907 C.3     1  LIG1       -0.0374
      8 H           0.7614   -3.2297   -0.3105 H       1  LIG1        0.0278
      9 H          -0.7701   -3.3148   -1.1829 H       1  LIG1        0.0278
     10 H          -0.6435   -4.0092    0.4319 H       1  LIG1        0.0278
     11 N           0.3980   -0.4973   -1.3153 N.pl3   1  LIG1       -0.3569
     12 H           0.2177   -1.2338   -1.9846 H       1  LIG1        0.1424
     13 H           0.3358    0.4130   -1.7539 H       1  LIG1        0.1424
     14 C          -0.6675    1.8900    0.2489 C.ar    1  LIG1        0.0330
     15 C           0.5099    2.5610    0.0371 C.ar    1  LIG1       -0.0139
     16 C           0.2960    3.9424   -0.2921 C.ar    1  LIG1        0.0436
     17 C          -1.0270    4.3067   -0.2973 C.ar    1  LIG1        0.0477
     18 S          -2.0444    2.9410    0.0772 S.2     1  LIG1       -0.0850
     19 C           1.8811    1.9738    0.1822 C.3     1  LIG1       -0.0368
     20 H           2.5233    2.6506    0.7543 H       1  LIG1        0.0278
     21 H           2.3657    1.7985   -0.7861 H       1  LIG1        0.0278
     22 H           1.8400    1.0131    0.6961 H       1  LIG1        0.0278
     23 N           1.3615    4.8139   -0.5252 N.pl3   1  LIG1       -0.3568
     24 H           2.1384    4.3843   -1.0093 H       1  LIG1        0.1424
     25 H           1.0743    5.6694   -0.9836 H       1  LIG1        0.1424
     26 C          -1.5706    5.6288   -0.5818 C.ar    1  LIG1        0.0324
     27 C          -1.2559    6.8167    0.0269 C.ar    1  LIG1       -0.0145
     28 C          -1.9717    7.9278   -0.5437 C.ar    1  LIG1        0.0352
     29 C          -2.8119    7.5566   -1.5506 C.ar    1  LIG1       -0.0028
     30 S          -2.7544    5.8543   -1.8409 S.2     1  LIG1       -0.0939
     31 H          -3.4743    8.1892   -2.1238 H       1  LIG1        0.0712
     32 C          -0.3416    6.9727    1.2040 C.3     1  LIG1       -0.0369
     33 H          -0.8053    7.6183    1.9560 H       1  LIG1        0.0278
     34 H           0.6200    7.4237    0.9299 H       1  LIG1        0.0278
     35 H          -0.1225    6.0062    1.6585 H       1  LIG1        0.0278
     36 N          -1.8445    9.2170   -0.0143 N.pl3   1  LIG1       -0.3573
     37 H          -0.8972    9.4601    0.2426 H       1  LIG1        0.1423
     38 H          -2.2508    9.9375   -0.5946 H       1  LIG1        0.1423
@<TRIPOS>BOND
     1    31    29    1
     2    12    11    1
     3    30    29   ar
     4    30    26   ar
     5    13    11    1
     6    29    28   ar
     7    11     3    1
     8     9     7    1
     9    24    23    1
    10    25    23    1
    11    21    19    1
    12    38    36    1
    13    26    17    1
    14    26    27   ar
    15    28    36    1
    16    28    27   ar
    17    23    16    1
    18     8     7    1
    19    17    16   ar
    20    17    18   ar
    21    16    15   ar
    22     7     2    1
    23     7    10    1
    24     3     2   ar
    25     3     4   ar
    26    36    37    1
    27    27    32    1
    28    15    19    1
    29    15    14   ar
    30    18    14   ar
    31    19    22    1
    32    19    20    1
    33    14     4    1
    34     2     1   ar
    35     4     5   ar
    36    34    32    1
    37    32    35    1
    38    32    33    1
    39     1     5   ar
    40     1     6    1
