@<TRIPOS>MOLECULE
mol_data/opt/cam/geoms/mol2/5ih5ih-5ih.out
 38 40 0 0 0
SMALL
GASTEIGER

@<TRIPOS>ATOM
      1 C          -1.4649   -1.7124    1.5536 C.ar    1  LIG1       -0.0190
      2 C          -0.7312   -1.8630    0.4190 C.ar    1  LIG1       -0.0222
      3 C          -0.3767   -0.5928   -0.1547 C.ar    1  LIG1        0.0430
      4 C          -0.8416    0.4777    0.5684 C.ar    1  LIG1        0.0471
      5 S          -1.7310   -0.0639    1.9700 S.2     1  LIG1       -0.0940
      6 H          -1.8608   -2.5006    2.1788 H       1  LIG1        0.0697
      7 C          -0.3272   -3.1712   -0.1894 C.3     1  LIG1       -0.0374
      8 H           0.7589   -3.2298   -0.3134 H       1  LIG1        0.0278
      9 H          -0.7759   -3.3142   -1.1800 H       1  LIG1        0.0278
     10 H          -0.6433   -4.0094    0.4341 H       1  LIG1        0.0278
     11 N           0.3923   -0.4969   -1.3156 N.pl3   1  LIG1       -0.3569
     12 H           0.2093   -1.2331   -1.9845 H       1  LIG1        0.1424
     13 H           0.3286    0.4135   -1.7536 H       1  LIG1        0.1424
     14 C          -0.6667    1.8899    0.2538 C.ar    1  LIG1        0.0330
     15 C           0.5100    2.5607    0.0377 C.ar    1  LIG1       -0.0139
     16 C           0.2952    3.9424   -0.2900 C.ar    1  LIG1        0.0436
     17 C          -1.0278    4.3070   -0.2900 C.ar    1  LIG1        0.0477
     18 S          -2.0440    2.9413    0.0877 S.2     1  LIG1       -0.0850
     19 C           1.8817    1.9732    0.1774 C.3     1  LIG1       -0.0368
     20 H           2.5262    2.6496    0.7472 H       1  LIG1        0.0278
     21 H           2.3625    1.7982   -0.7928 H       1  LIG1        0.0278
     22 H           1.8422    1.0123    0.6910 H       1  LIG1        0.0278
     23 N           1.3600    4.8137   -0.5268 N.pl3   1  LIG1       -0.3568
     24 H           2.1349    4.3841   -1.0141 H       1  LIG1        0.1424
     25 H           1.0711    5.6694   -0.9837 H       1  LIG1        0.1424
     26 C          -1.5722    5.6293   -0.5719 C.ar    1  LIG1        0.0324
     27 C          -1.2549    6.8168    0.0362 C.ar    1  LIG1       -0.0145
     28 C          -1.9726    7.9283   -0.5312 C.ar    1  LIG1        0.0352
     29 C          -2.8167    7.5578   -1.5350 C.ar    1  LIG1       -0.0028
     30 S          -2.7607    5.8556   -1.8264 S.2     1  LIG1       -0.0939
     31 H          -3.4811    8.1908   -2.1055 H       1  LIG1        0.0712
     32 C          -0.3361    6.9720    1.2099 C.3     1  LIG1       -0.0369
     33 H          -0.7968    7.6175    1.9640 H       1  LIG1        0.0278
     34 H           0.6246    7.4230    0.9323 H       1  LIG1        0.0278
     35 H          -0.1155    6.0053    1.6631 H       1  LIG1        0.0278
     36 N          -1.8431    9.2172   -0.0017 N.pl3   1  LIG1       -0.3573
     37 H          -0.8948    9.4600    0.2518 H       1  LIG1        0.1423
     38 H          -2.2515    9.9382   -0.5801 H       1  LIG1        0.1423
@<TRIPOS>BOND
     1    31    29    1
     2    12    11    1
     3    30    29   ar
     4    30    26   ar
     5    13    11    1
     6    29    28   ar
     7    11     3    1
     8     9     7    1
     9    24    23    1
    10    25    23    1
    11    21    19    1
    12    38    36    1
    13    26    17    1
    14    26    27   ar
    15    28    36    1
    16    28    27   ar
    17    23    16    1
    18     8     7    1
    19    16    17   ar
    20    16    15   ar
    21    17    18   ar
    22     7     2    1
    23     7    10    1
    24     3     2   ar
    25     3     4   ar
    26    36    37    1
    27    27    32    1
    28    15    19    1
    29    15    14   ar
    30    18    14   ar
    31    19    22    1
    32    19    20    1
    33    14     4    1
    34     2     1   ar
    35     4     5   ar
    36    34    32    1
    37    32    35    1
    38    32    33    1
    39     1     5   ar
    40     1     6    1
