@<TRIPOS>MOLECULE
mol_data/opt/cam/geoms/mol2/5ih5ih.out
 26 27 0 0 0
SMALL
GASTEIGER

@<TRIPOS>ATOM
      1 C          -1.8893   -1.7486    0.8682 C.ar    1  LIG1       -0.0190
      2 C          -0.7436   -1.8266    0.1405 C.ar    1  LIG1       -0.0222
      3 C          -0.2907   -0.5264   -0.2751 C.ar    1  LIG1        0.0430
      4 C          -1.0993    0.4944    0.1590 C.ar    1  LIG1        0.0470
      5 S          -2.4373   -0.1320    1.0894 S.2     1  LIG1       -0.0940
      6 H          -2.4408   -2.5726    1.2991 H       1  LIG1        0.0697
      7 C          -0.0178   -3.0900   -0.2082 C.3     1  LIG1       -0.0374
      8 H           1.0236   -3.0517    0.1272 H       1  LIG1        0.0278
      9 H          -0.0044   -3.2651   -1.2909 H       1  LIG1        0.0278
     10 H          -0.4922   -3.9570    0.2550 H       1  LIG1        0.0278
     11 N           0.8790   -0.3553   -1.0178 N.pl3   1  LIG1       -0.3569
     12 H           1.0446   -1.0946   -1.6879 H       1  LIG1        0.1424
     13 H           0.9300    0.5532   -1.4614 H       1  LIG1        0.1424
     14 C          -0.9284    1.9187   -0.0995 C.ar    1  LIG1        0.0324
     15 C           0.1703    2.6951    0.1664 C.ar    1  LIG1       -0.0145
     16 C          -0.0101    4.0584   -0.2594 C.ar    1  LIG1        0.0352
     17 C          -1.2325    4.2818   -0.8189 C.ar    1  LIG1       -0.0028
     18 S          -2.1951    2.8472   -0.8541 S.2     1  LIG1       -0.0939
     19 H          -1.6249    5.2155   -1.1955 H       1  LIG1        0.0712
     20 C           1.4020    2.2372    0.8867 C.3     1  LIG1       -0.0369
     21 H           1.6811    2.9662    1.6536 H       1  LIG1        0.0278
     22 H           2.2608    2.1209    0.2143 H       1  LIG1        0.0278
     23 H           1.2373    1.2709    1.3643 H       1  LIG1        0.0278
     24 N           0.9691    5.0275   -0.0123 N.pl3   1  LIG1       -0.3573
     25 H           1.9133    4.6996   -0.1652 H       1  LIG1        0.1423
     26 H           0.8127    5.8975   -0.5020 H       1  LIG1        0.1423
@<TRIPOS>BOND
     1    12    11    1
     2    13    11    1
     3     9     7    1
     4    19    17    1
     5    11     3    1
     6    18    17   ar
     7    18    14   ar
     8    17    16   ar
     9    26    24    1
    10     3     2   ar
    11     3     4   ar
    12    16    24    1
    13    16    15   ar
    14     7     8    1
    15     7     2    1
    16     7    10    1
    17    25    24    1
    18    14     4    1
    19    14    15   ar
    20     2     1   ar
    21     4     5   ar
    22    15    20    1
    23    22    20    1
    24     1     5   ar
    25     1     6    1
    26    20    23    1
    27    20    21    1
