@<TRIPOS>MOLECULE
mol_data/opt/cam/geoms/mol2/5ih5ih5ih-5ih-.out
 50 53 0 0 0
SMALL
GASTEIGER

@<TRIPOS>ATOM
      1 C          -0.9236   -1.5584    2.1701 C.ar    1  LIG1       -0.0190
      2 C          -0.6904   -1.7931    0.8515 C.ar    1  LIG1       -0.0222
      3 C          -0.5031   -0.5687    0.1207 C.ar    1  LIG1        0.0430
      4 C          -0.5878    0.5519    0.9095 C.ar    1  LIG1        0.0471
      5 S          -0.9058    0.1153    2.5700 S.2     1  LIG1       -0.0940
      6 H          -1.0989   -2.2981    2.9389 H       1  LIG1        0.0697
      7 C          -0.6329   -3.1431    0.2041 C.3     1  LIG1       -0.0374
      8 H           0.3193   -3.2913   -0.3154 H       1  LIG1        0.0278
      9 H          -1.4312   -3.2723   -0.5368 H       1  LIG1        0.0278
     10 H          -0.7438   -3.9388    0.9429 H       1  LIG1        0.0278
     11 N          -0.2324   -0.5615   -1.2484 N.pl3   1  LIG1       -0.3569
     12 H          -0.7035   -1.2972   -1.7582 H       1  LIG1        0.1424
     13 H          -0.4007    0.3401   -1.6768 H       1  LIG1        0.1424
     14 C          -0.4602    1.9384    0.4791 C.ar    1  LIG1        0.0330
     15 C           0.5810    2.5108   -0.2061 C.ar    1  LIG1       -0.0139
     16 C           0.3428    3.8966   -0.4979 C.ar    1  LIG1        0.0436
     17 C          -0.8521    4.3623   -0.0090 C.ar    1  LIG1        0.0477
     18 S          -1.7276    3.0880    0.7979 S.2     1  LIG1       -0.0850
     19 C           1.8611    1.8229   -0.5727 C.3     1  LIG1       -0.0368
     20 H           2.7168    2.4551   -0.3164 H       1  LIG1        0.0278
     21 H           1.9241    1.6013   -1.6451 H       1  LIG1        0.0278
     22 H           1.9572    0.8737   -0.0451 H       1  LIG1        0.0278
     23 N           1.2847    4.6758   -1.1716 N.pl3   1  LIG1       -0.3568
     24 H           1.7905    4.1723   -1.8878 H       1  LIG1        0.1424
     25 H           0.8947    5.5354   -1.5368 H       1  LIG1        0.1424
     26 C          -1.3803    5.7151   -0.1305 C.ar    1  LIG1        0.0330
     27 C          -0.7764    6.8883    0.2444 C.ar    1  LIG1       -0.0139
     28 C          -1.5803    8.0367   -0.0675 C.ar    1  LIG1        0.0436
     29 C          -2.7858    7.7228   -0.6433 C.ar    1  LIG1        0.0477
     30 S          -2.9452    5.9975   -0.8391 S.2     1  LIG1       -0.0850
     31 C           0.5381    6.9992    0.9556 C.3     1  LIG1       -0.0368
     32 H           0.4540    7.6916    1.7989 H       1  LIG1        0.0278
     33 H           1.3369    7.3708    0.3021 H       1  LIG1        0.0278
     34 H           0.8601    6.0280    1.3317 H       1  LIG1        0.0278
     35 N          -1.1637    9.3308    0.2492 N.pl3   1  LIG1       -0.3568
     36 H          -0.1684    9.4741    0.1436 H       1  LIG1        0.1424
     37 H          -1.6895   10.0428   -0.2417 H       1  LIG1        0.1424
     38 C          -3.8234    8.6550   -1.0661 C.ar    1  LIG1        0.0324
     39 C          -4.4427    9.6212   -0.3155 C.ar    1  LIG1       -0.0145
     40 C          -5.3968   10.3789   -1.0826 C.ar    1  LIG1        0.0352
     41 C          -5.4854    9.9642   -2.3777 C.ar    1  LIG1       -0.0028
     42 S          -4.4122    8.6504   -2.7066 S.2     1  LIG1       -0.0939
     43 H          -6.1368   10.3474   -3.1500 H       1  LIG1        0.0712
     44 C          -4.2396    9.8426    1.1526 C.3     1  LIG1       -0.0369
     45 H          -5.2070    9.9422    1.6542 H       1  LIG1        0.0278
     46 H          -3.6642   10.7527    1.3624 H       1  LIG1        0.0278
     47 H          -3.6958    9.0108    1.6010 H       1  LIG1        0.0278
     48 N          -6.1867   11.3646   -0.4804 N.pl3   1  LIG1       -0.3573
     49 H          -5.6866   11.9352    0.1880 H       1  LIG1        0.1423
     50 H          -6.6869   11.9451   -1.1391 H       1  LIG1        0.1423
@<TRIPOS>BOND
     1    43    41    1
     2    42    41   ar
     3    42    38   ar
     4    41    40   ar
     5    24    23    1
     6    12    11    1
     7    13    11    1
     8    21    19    1
     9    25    23    1
    10    11     3    1
    11    23    16    1
    12    50    48    1
    13    40    48    1
    14    40    39   ar
    15    38    29    1
    16    38    39   ar
    17    30    29   ar
    18    30    26   ar
    19    29    28   ar
    20    19    20    1
    21    19    15    1
    22    19    22    1
    23     9     7    1
    24    16    15   ar
    25    16    17   ar
    26    48    49    1
    27    39    44    1
    28     8     7    1
    29    37    35    1
    30    15    14   ar
    31    26    17    1
    32    26    27   ar
    33    28    27   ar
    34    28    35    1
    35    17    18   ar
    36     3     2   ar
    37     3     4   ar
    38    36    35    1
    39     7     2    1
    40     7    10    1
    41    27    31    1
    42    33    31    1
    43    14    18   ar
    44    14     4    1
    45     2     1   ar
    46     4     5   ar
    47    31    34    1
    48    31    32    1
    49    44    46    1
    50    44    47    1
    51    44    45    1
    52     1     5   ar
    53     1     6    1
