@<TRIPOS>MOLECULE
mol_data/opt/cam/geoms/mol2/5ih5ih-5ih-5ih-.out
 50 53 0 0 0
SMALL
GASTEIGER

@<TRIPOS>ATOM
      1 C          -0.8986   -1.5634    2.1673 C.ar    1  LIG1       -0.0190
      2 C          -0.6781   -1.7949    0.8459 C.ar    1  LIG1       -0.0222
      3 C          -0.4985   -0.5686    0.1163 C.ar    1  LIG1        0.0430
      4 C          -0.5762    0.5501    0.9085 C.ar    1  LIG1        0.0471
      5 S          -0.8782    0.1095    2.5709 S.2     1  LIG1       -0.0940
      6 H          -1.0660   -2.3049    2.9360 H       1  LIG1        0.0697
      7 C          -0.6261   -3.1433    0.1949 C.3     1  LIG1       -0.0374
      8 H           0.3209   -3.2896   -0.3344 H       1  LIG1        0.0278
      9 H          -1.4317   -3.2714   -0.5383 H       1  LIG1        0.0278
     10 H          -0.7291   -3.9407    0.9329 H       1  LIG1        0.0278
     11 N          -0.2410   -0.5581   -1.2554 N.pl3   1  LIG1       -0.3569
     12 H          -0.7165   -1.2928   -1.7623 H       1  LIG1        0.1424
     13 H          -0.4139    0.3444   -1.6800 H       1  LIG1        0.1424
     14 C          -0.4535    1.9377    0.4802 C.ar    1  LIG1        0.0330
     15 C           0.5808    2.5123   -0.2137 C.ar    1  LIG1       -0.0139
     16 C           0.3390    3.8987   -0.4997 C.ar    1  LIG1        0.0436
     17 C          -0.8514    4.3625    0.0019 C.ar    1  LIG1        0.0477
     18 S          -1.7185    3.0858    0.8138 S.2     1  LIG1       -0.0850
     19 C           1.8575    1.8261   -0.5943 C.3     1  LIG1       -0.0368
     20 H           2.7155    2.4579   -0.3444 H       1  LIG1        0.0278
     21 H           1.9105    1.6076   -1.6680 H       1  LIG1        0.0278
     22 H           1.9590    0.8754   -0.0705 H       1  LIG1        0.0278
     23 N           1.2739    4.6801   -1.1804 N.pl3   1  LIG1       -0.3568
     24 H           1.7735    4.1787   -1.9025 H       1  LIG1        0.1424
     25 H           0.8800    5.5404   -1.5400 H       1  LIG1        0.1424
     26 C          -1.3814    5.7154   -0.1110 C.ar    1  LIG1        0.0330
     27 C          -0.7746    6.8879    0.2610 C.ar    1  LIG1       -0.0139
     28 C          -1.5820    8.0367   -0.0402 C.ar    1  LIG1        0.0436
     29 C          -2.7929    7.7236   -0.6051 C.ar    1  LIG1        0.0477
     30 S          -2.9532    5.9987   -0.8039 S.2     1  LIG1       -0.0850
     31 C           0.5467    6.9977    0.9596 C.3     1  LIG1       -0.0368
     32 H           0.4706    7.6880    1.8054 H       1  LIG1        0.0278
     33 H           1.3390    7.3713    0.2993 H       1  LIG1        0.0278
     34 H           0.8728    6.0257    1.3302 H       1  LIG1        0.0278
     35 N          -1.1631    9.3302    0.2758 N.pl3   1  LIG1       -0.3568
     36 H          -0.1689    9.4743    0.1615 H       1  LIG1        0.1424
     37 H          -1.6938   10.0432   -0.2085 H       1  LIG1        0.1424
     38 C          -3.8351    8.6562   -1.0155 C.ar    1  LIG1        0.0324
     39 C          -4.4478    9.6202   -0.2565 C.ar    1  LIG1       -0.0145
     40 C          -5.4096   10.3792   -1.0124 C.ar    1  LIG1        0.0352
     41 C          -5.5103    9.9678   -2.3078 C.ar    1  LIG1       -0.0028
     42 S          -4.4394    8.6556   -2.6504 S.2     1  LIG1       -0.0939
     43 H          -6.1694   10.3526   -3.0727 H       1  LIG1        0.0712
     44 C          -4.2306    9.8378    1.2102 C.3     1  LIG1       -0.0369
     45 H          -5.1932    9.9354    1.7214 H       1  LIG1        0.0278
     46 H          -3.6539   10.7477    1.4169 H       1  LIG1        0.0278
     47 H          -3.6820    9.0052    1.6511 H       1  LIG1        0.0278
     48 N          -6.1943   11.3629   -0.4002 N.pl3   1  LIG1       -0.3573
     49 H          -5.6884   11.9313    0.2657 H       1  LIG1        0.1423
     50 H          -6.7003   11.9454   -1.0525 H       1  LIG1        0.1423
@<TRIPOS>BOND
     1    43    41    1
     2    42    41   ar
     3    42    38   ar
     4    41    40   ar
     5    24    23    1
     6    12    11    1
     7    13    11    1
     8    21    19    1
     9    25    23    1
    10    11     3    1
    11    23    16    1
    12    50    48    1
    13    38    29    1
    14    38    39   ar
    15    40    48    1
    16    40    39   ar
    17    30    29   ar
    18    30    26   ar
    19    29    28   ar
    20    19    20    1
    21    19    15    1
    22    19    22    1
    23     9     7    1
    24    16    15   ar
    25    16    17   ar
    26    48    49    1
    27     8     7    1
    28    39    44    1
    29    15    14   ar
    30    37    35    1
    31    26    17    1
    32    26    27   ar
    33    28    27   ar
    34    28    35    1
    35    17    18   ar
    36     3     2   ar
    37     3     4   ar
    38    36    35    1
    39     7     2    1
    40     7    10    1
    41    27    31    1
    42    33    31    1
    43    14    18   ar
    44    14     4    1
    45     2     1   ar
    46     4     5   ar
    47    31    34    1
    48    31    32    1
    49    44    46    1
    50    44    47    1
    51    44    45    1
    52     1     5   ar
    53     1     6    1
