@<TRIPOS>MOLECULE
mol_data/opt/cam/geoms/mol2/5ih5ih-5ih-.out
 38 40 0 0 0
SMALL
GASTEIGER

@<TRIPOS>ATOM
      1 C          -1.4811   -1.7209    1.5237 C.ar    1  LIG1       -0.0190
      2 C          -0.7364   -1.8654    0.3954 C.ar    1  LIG1       -0.0222
      3 C          -0.3762   -0.5921   -0.1678 C.ar    1  LIG1        0.0430
      4 C          -0.8480    0.4745    0.5566 C.ar    1  LIG1        0.0471
      5 S          -1.7509   -0.0747    1.9466 S.2     1  LIG1       -0.0940
      6 H          -1.8831   -2.5125    2.1406 H       1  LIG1        0.0697
      7 C          -0.3267   -3.1702   -0.2163 C.3     1  LIG1       -0.0374
      8 H           0.7606   -3.2284   -0.3301 H       1  LIG1        0.0278
      9 H          -0.7659   -3.3077   -1.2119 H       1  LIG1        0.0278
     10 H          -0.6489   -4.0118    0.3995 H       1  LIG1        0.0278
     11 N           0.4040   -0.4899   -1.3207 N.pl3   1  LIG1       -0.3569
     12 H           0.2274   -1.2223   -1.9954 H       1  LIG1        0.1424
     13 H           0.3446    0.4230   -1.7542 H       1  LIG1        0.1424
     14 C          -0.6699    1.8884    0.2516 C.ar    1  LIG1        0.0330
     15 C           0.5089    2.5602    0.0506 C.ar    1  LIG1       -0.0139
     16 C           0.2974    3.9437   -0.2715 C.ar    1  LIG1        0.0436
     17 C          -1.0255    4.3085   -0.2823 C.ar    1  LIG1        0.0477
     18 S          -2.0455    2.9409    0.0780 S.2     1  LIG1       -0.0850
     19 C           1.8791    1.9717    0.2003 C.3     1  LIG1       -0.0368
     20 H           2.5181    2.6448    0.7802 H       1  LIG1        0.0278
     21 H           2.3693    1.8020   -0.7662 H       1  LIG1        0.0278
     22 H           1.8346    1.0079    0.7082 H       1  LIG1        0.0278
     23 N           1.3645    4.8161   -0.4931 N.pl3   1  LIG1       -0.3568
     24 H           2.1441    4.3892   -0.9752 H       1  LIG1        0.1424
     25 H           1.0802    5.6744   -0.9481 H       1  LIG1        0.1424
     26 C          -1.5669    5.6324   -0.5621 C.ar    1  LIG1        0.0324
     27 C          -1.2554    6.8165    0.0556 C.ar    1  LIG1       -0.0145
     28 C          -1.9675    7.9313   -0.5126 C.ar    1  LIG1        0.0352
     29 C          -2.8019    7.5664   -1.5265 C.ar    1  LIG1       -0.0028
     30 S          -2.7433    5.8658   -1.8267 S.2     1  LIG1       -0.0939
     31 H          -3.4607    8.2027   -2.0999 H       1  LIG1        0.0712
     32 C          -0.3480    6.9651    1.2390 C.3     1  LIG1       -0.0369
     33 H          -0.8159    7.6065    1.9921 H       1  LIG1        0.0278
     34 H           0.6154    7.4174    0.9732 H       1  LIG1        0.0278
     35 H          -0.1320    5.9958    1.6890 H       1  LIG1        0.0278
     36 N          -1.8430    9.2172    0.0253 N.pl3   1  LIG1       -0.3573
     37 H          -0.8971    9.4584    0.2892 H       1  LIG1        0.1423
     38 H          -2.2457    9.9414   -0.5531 H       1  LIG1        0.1423
@<TRIPOS>BOND
     1    31    29    1
     2    12    11    1
     3    30    29   ar
     4    30    26   ar
     5    13    11    1
     6    29    28   ar
     7    11     3    1
     8     9     7    1
     9    24    23    1
    10    25    23    1
    11    21    19    1
    12    26    17    1
    13    26    27   ar
    14    38    36    1
    15    28    36    1
    16    28    27   ar
    17    23    16    1
    18     8     7    1
    19    17    16   ar
    20    17    18   ar
    21    16    15   ar
    22     7     2    1
    23     7    10    1
    24     3     2   ar
    25     3     4   ar
    26    36    37    1
    27    15    19    1
    28    15    14   ar
    29    27    32    1
    30    18    14   ar
    31    19    22    1
    32    19    20    1
    33    14     4    1
    34     2     1   ar
    35     4     5   ar
    36    34    32    1
    37    32    35    1
    38    32    33    1
    39     1     5   ar
    40     1     6    1
