@<TRIPOS>MOLECULE
mol_data/opt/cam/geoms/mol2/5ih5ih-.out
 26 27 0 0 0
SMALL
GASTEIGER

@<TRIPOS>ATOM
      1 C          -1.8805   -1.7474    0.8808 C.ar    1  LIG1       -0.0190
      2 C          -0.7418   -1.8265    0.1423 C.ar    1  LIG1       -0.0222
      3 C          -0.2929   -0.5270   -0.2797 C.ar    1  LIG1        0.0430
      4 C          -1.0974    0.4945    0.1604 C.ar    1  LIG1        0.0470
      5 S          -2.4264   -0.1304    1.1045 S.2     1  LIG1       -0.0940
      6 H          -2.4279   -2.5706    1.3182 H       1  LIG1        0.0697
      7 C          -0.0193   -3.0905   -0.2112 C.3     1  LIG1       -0.0374
      8 H           1.0253   -3.0516    0.1141 H       1  LIG1        0.0278
      9 H          -0.0163   -3.2674   -1.2937 H       1  LIG1        0.0278
     10 H          -0.4892   -3.9567    0.2580 H       1  LIG1        0.0278
     11 N           0.8696   -0.3571   -1.0338 N.pl3   1  LIG1       -0.3569
     12 H           1.0288   -1.0975   -1.7043 H       1  LIG1        0.1424
     13 H           0.9164    0.5507   -1.4793 H       1  LIG1        0.1424
     14 C          -0.9289    1.9183   -0.1021 C.ar    1  LIG1        0.0324
     15 C           0.1721    2.6952    0.1521 C.ar    1  LIG1       -0.0145
     16 C          -0.0123    4.0578   -0.2743 C.ar    1  LIG1        0.0352
     17 C          -1.2400    4.2802   -0.8225 C.ar    1  LIG1       -0.0028
     18 S          -2.2029    2.8456   -0.8461 S.2     1  LIG1       -0.0939
     19 H          -1.6360    5.2133   -1.1969 H       1  LIG1        0.0712
     20 C           1.4106    2.2385    0.8614 C.3     1  LIG1       -0.0369
     21 H           1.6970    2.9687    1.6244 H       1  LIG1        0.0278
     22 H           2.2631    2.1213    0.1811 H       1  LIG1        0.0278
     23 H           1.2506    1.2730    1.3420 H       1  LIG1        0.0278
     24 N           0.9691    5.0274   -0.0381 N.pl3   1  LIG1       -0.3573
     25 H           1.9119    4.6992   -0.1995 H       1  LIG1        0.1423
     26 H           0.8080    5.8966   -0.5277 H       1  LIG1        0.1423
@<TRIPOS>BOND
     1    12    11    1
     2    13    11    1
     3     9     7    1
     4    19    17    1
     5    11     3    1
     6    18    17   ar
     7    18    14   ar
     8    17    16   ar
     9    26    24    1
    10     3     2   ar
    11     3     4   ar
    12    16    24    1
    13    16    15   ar
    14     7     8    1
    15     7     2    1
    16     7    10    1
    17    25    24    1
    18    14    15   ar
    19    14     4    1
    20     2     1   ar
    21    15    20    1
    22     4     5   ar
    23    22    20    1
    24    20    23    1
    25    20    21    1
    26     1     5   ar
    27     1     6    1
