@<TRIPOS>MOLECULE
mol_data/opt/cam/geoms/mol2/5ih5ih-5ih-5ih.out
 50 53 0 0 0
SMALL
GASTEIGER

@<TRIPOS>ATOM
      1 C          -0.9106   -1.5646    2.1711 C.ar    1  LIG1       -0.0190
      2 C          -0.6862   -1.7957    0.8503 C.ar    1  LIG1       -0.0222
      3 C          -0.5034   -0.5692    0.1218 C.ar    1  LIG1        0.0430
      4 C          -0.5827    0.5492    0.9142 C.ar    1  LIG1        0.0471
      5 S          -0.8902    0.1081    2.5755 S.2     1  LIG1       -0.0940
      6 H          -1.0810   -2.3063    2.9390 H       1  LIG1        0.0697
      7 C          -0.6333   -3.1438    0.1989 C.3     1  LIG1       -0.0374
      8 H           0.3153   -3.2906   -0.3276 H       1  LIG1        0.0278
      9 H          -1.4367   -3.2710   -0.5369 H       1  LIG1        0.0278
     10 H          -0.7392   -3.9415    0.9362 H       1  LIG1        0.0278
     11 N          -0.2416   -0.5583   -1.2490 N.pl3   1  LIG1       -0.3569
     12 H          -0.7161   -1.2924   -1.7578 H       1  LIG1        0.1424
     13 H          -0.4124    0.3445   -1.6739 H       1  LIG1        0.1424
     14 C          -0.4575    1.9369    0.4870 C.ar    1  LIG1        0.0330
     15 C           0.5793    2.5110   -0.2035 C.ar    1  LIG1       -0.0139
     16 C           0.3395    3.8977   -0.4897 C.ar    1  LIG1        0.0436
     17 C          -0.8521    4.3622    0.0085 C.ar    1  LIG1        0.0477
     18 S          -1.7226    3.0858    0.8172 S.2     1  LIG1       -0.0850
     19 C           1.8567    1.8239   -0.5805 C.3     1  LIG1       -0.0368
     20 H           2.7144    2.4550   -0.3276 H       1  LIG1        0.0278
     21 H           1.9129    1.6058   -1.6540 H       1  LIG1        0.0278
     22 H           1.9558    0.8729   -0.0567 H       1  LIG1        0.0278
     23 N           1.2772    4.6787   -1.1671 N.pl3   1  LIG1       -0.3568
     24 H           1.7785    4.1772   -1.8879 H       1  LIG1        0.1424
     25 H           0.8850    5.5394   -1.5275 H       1  LIG1        0.1424
     26 C          -1.3806    5.7156   -0.1055 C.ar    1  LIG1        0.0330
     27 C          -0.7740    6.8875    0.2689 C.ar    1  LIG1       -0.0139
     28 C          -1.5797    8.0370   -0.0343 C.ar    1  LIG1        0.0436
     29 C          -2.7890    7.7251   -0.6031 C.ar    1  LIG1        0.0477
     30 S          -2.9501    6.0005   -0.8031 S.2     1  LIG1       -0.0850
     31 C           0.5452    6.9959    0.9717 C.3     1  LIG1       -0.0368
     32 H           0.4670    7.6859    1.8175 H       1  LIG1        0.0278
     33 H           1.3398    7.3691    0.3140 H       1  LIG1        0.0278
     34 H           0.8693    6.0235    1.3429 H       1  LIG1        0.0278
     35 N          -1.1607    9.3300    0.2835 N.pl3   1  LIG1       -0.3568
     36 H          -0.1660    9.4734    0.1724 H       1  LIG1        0.1424
     37 H          -1.6893   10.0437   -0.2021 H       1  LIG1        0.1424
     38 C          -3.8292    8.6587   -1.0163 C.ar    1  LIG1        0.0324
     39 C          -4.4435    9.6228   -0.2588 C.ar    1  LIG1       -0.0145
     40 C          -5.4024   10.3829   -1.0173 C.ar    1  LIG1        0.0352
     41 C          -5.4994    9.9721   -2.3132 C.ar    1  LIG1       -0.0028
     42 S          -4.4285    8.6593   -2.6530 S.2     1  LIG1       -0.0939
     43 H          -6.1558   10.3578   -3.0800 H       1  LIG1        0.0712
     44 C          -4.2307    9.8396    1.2087 C.3     1  LIG1       -0.0369
     45 H          -5.1948    9.9378    1.7169 H       1  LIG1        0.0278
     46 H          -3.6539   10.7490    1.4175 H       1  LIG1        0.0278
     47 H          -3.6841    9.0065    1.6509 H       1  LIG1        0.0278
     48 N          -6.1882   11.3670   -0.4071 N.pl3   1  LIG1       -0.3573
     49 H          -5.6840   11.9347    0.2606 H       1  LIG1        0.1423
     50 H          -6.6917   11.9502   -1.0608 H       1  LIG1        0.1423
@<TRIPOS>BOND
     1    43    41    1
     2    42    41   ar
     3    42    38   ar
     4    41    40   ar
     5    24    23    1
     6    12    11    1
     7    13    11    1
     8    21    19    1
     9    25    23    1
    10    11     3    1
    11    23    16    1
    12    50    48    1
    13    40    48    1
    14    40    39   ar
    15    38    29    1
    16    38    39   ar
    17    30    29   ar
    18    30    26   ar
    19    29    28   ar
    20    19    20    1
    21    19    15    1
    22    19    22    1
    23     9     7    1
    24    16    15   ar
    25    16    17   ar
    26    48    49    1
    27     8     7    1
    28    39    44    1
    29    15    14   ar
    30    37    35    1
    31    26    17    1
    32    26    27   ar
    33    28    27   ar
    34    28    35    1
    35    17    18   ar
    36     3     2   ar
    37     3     4   ar
    38    36    35    1
    39     7     2    1
    40     7    10    1
    41    27    31    1
    42    33    31    1
    43    14    18   ar
    44    14     4    1
    45     2     1   ar
    46     4     5   ar
    47    31    34    1
    48    31    32    1
    49    44    46    1
    50    44    47    1
    51    44    45    1
    52     1     5   ar
    53     1     6    1
