@<TRIPOS>MOLECULE
mol_data/opt/cam/geoms/mol2/5ih5ih5ih-5ih.out
 50 53 0 0 0
SMALL
GASTEIGER

@<TRIPOS>ATOM
      1 C          -0.9355   -1.5612    2.1686 C.ar    1  LIG1       -0.0190
      2 C          -0.6958   -1.7942    0.8509 C.ar    1  LIG1       -0.0222
      3 C          -0.5047   -0.5688    0.1227 C.ar    1  LIG1        0.0430
      4 C          -0.5933    0.5507    0.9125 C.ar    1  LIG1        0.0471
      5 S          -0.9199    0.1120    2.5707 S.2     1  LIG1       -0.0940
      6 H          -1.1146   -2.3018    2.9356 H       1  LIG1        0.0697
      7 C          -0.6351   -3.1434    0.2021 C.3     1  LIG1       -0.0374
      8 H           0.3195   -3.2908   -0.3131 H       1  LIG1        0.0278
      9 H          -1.4299   -3.2717   -0.5427 H       1  LIG1        0.0278
     10 H          -0.7494   -3.9400    0.9394 H       1  LIG1        0.0278
     11 N          -0.2271   -0.5599   -1.2450 N.pl3   1  LIG1       -0.3569
     12 H          -0.6956   -1.2949   -1.7581 H       1  LIG1        0.1424
     13 H          -0.3931    0.3422   -1.6731 H       1  LIG1        0.1424
     14 C          -0.4634    1.9378    0.4846 C.ar    1  LIG1        0.0330
     15 C           0.5813    2.5110   -0.1946 C.ar    1  LIG1       -0.0139
     16 C           0.3446    3.8973   -0.4856 C.ar    1  LIG1        0.0436
     17 C          -0.8527    4.3624   -0.0020 C.ar    1  LIG1        0.0477
     18 S          -1.7324    3.0870    0.7985 S.2     1  LIG1       -0.0850
     19 C           1.8631    1.8236   -0.5558 C.3     1  LIG1       -0.0368
     20 H           2.7176    2.4552   -0.2940 H       1  LIG1        0.0278
     21 H           1.9316    1.6039   -1.6283 H       1  LIG1        0.0278
     22 H           1.9562    0.8734   -0.0295 H       1  LIG1        0.0278
     23 N           1.2899    4.6774   -1.1534 N.pl3   1  LIG1       -0.3568
     24 H           1.7997    4.1749   -1.8675 H       1  LIG1        0.1424
     25 H           0.9019    5.5375   -1.5195 H       1  LIG1        0.1424
     26 C          -1.3801    5.7155   -0.1241 C.ar    1  LIG1        0.0330
     27 C          -0.7780    6.8880    0.2556 C.ar    1  LIG1       -0.0139
     28 C          -1.5803    8.0370   -0.0586 C.ar    1  LIG1        0.0436
     29 C          -2.7829    7.7240   -0.6409 C.ar    1  LIG1        0.0477
     30 S          -2.9414    5.9991   -0.8402 S.2     1  LIG1       -0.0850
     31 C           0.5330    6.9977    0.9734 C.3     1  LIG1       -0.0368
     32 H           0.4449    7.6889    1.8173 H       1  LIG1        0.0278
     33 H           1.3351    7.3701    0.3244 H       1  LIG1        0.0278
     34 H           0.8529    6.0259    1.3497 H       1  LIG1        0.0278
     35 N          -1.1652    9.3305    0.2621 N.pl3   1  LIG1       -0.3568
     36 H          -0.1693    9.4739    0.1622 H       1  LIG1        0.1424
     37 H          -1.6882   10.0434   -0.2306 H       1  LIG1        0.1424
     38 C          -3.8183    8.6569   -1.0675 C.ar    1  LIG1        0.0324
     39 C          -4.4415    9.6220   -0.3186 C.ar    1  LIG1       -0.0145
     40 C          -5.3916   10.3808   -1.0893 C.ar    1  LIG1        0.0352
     41 C          -5.4736    9.9681   -2.3855 C.ar    1  LIG1       -0.0028
     42 S          -4.3987    8.6549   -2.7110 S.2     1  LIG1       -0.0939
     43 H          -6.1211   10.3525   -3.1605 H       1  LIG1        0.0712
     44 C          -4.2458    9.8410    1.1509 C.3     1  LIG1       -0.0369
     45 H          -5.2157    9.9398    1.6478 H       1  LIG1        0.0278
     46 H          -3.6715   10.7508    1.3651 H       1  LIG1        0.0278
     47 H          -3.7042    9.0086    1.6007 H       1  LIG1        0.0278
     48 N          -6.1846   11.3657   -0.4897 N.pl3   1  LIG1       -0.3573
     49 H          -5.6882   11.9345    0.1830 H       1  LIG1        0.1423
     50 H          -6.6806   11.9478   -1.1500 H       1  LIG1        0.1423
@<TRIPOS>BOND
     1    43    41    1
     2    42    41   ar
     3    42    38   ar
     4    41    40   ar
     5    24    23    1
     6    12    11    1
     7    13    11    1
     8    21    19    1
     9    25    23    1
    10    11     3    1
    11    23    16    1
    12    50    48    1
    13    40    48    1
    14    40    39   ar
    15    38    29    1
    16    38    39   ar
    17    30    29   ar
    18    30    26   ar
    19    29    28   ar
    20    19    20    1
    21    19    15    1
    22    19    22    1
    23     9     7    1
    24    48    49    1
    25    16    15   ar
    26    16    17   ar
    27    39    44    1
    28     8     7    1
    29    37    35    1
    30    15    14   ar
    31    26    17    1
    32    26    27   ar
    33    28    27   ar
    34    28    35    1
    35    17    18   ar
    36     3     2   ar
    37     3     4   ar
    38    36    35    1
    39     7     2    1
    40     7    10    1
    41    27    31    1
    42    33    31    1
    43    14    18   ar
    44    14     4    1
    45     2     1   ar
    46     4     5   ar
    47    31    34    1
    48    31    32    1
    49    44    46    1
    50    44    47    1
    51    44    45    1
    52     1     5   ar
    53     1     6    1
