@<TRIPOS>MOLECULE
mol_data/opt/cam/geoms/mol2/5ih5ih5ih5ih.out
 50 53 0 0 0
SMALL
GASTEIGER

@<TRIPOS>ATOM
      1 C          -0.9092   -1.5663    2.1518 C.ar    1  LIG1       -0.0190
      2 C          -0.6857   -1.7965    0.8307 C.ar    1  LIG1       -0.0222
      3 C          -0.5033   -0.5695    0.1029 C.ar    1  LIG1        0.0430
      4 C          -0.5820    0.5483    0.8962 C.ar    1  LIG1        0.0471
      5 S          -0.8884    0.1061    2.5573 S.2     1  LIG1       -0.0940
      6 H          -1.0791   -2.3085    2.9193 H       1  LIG1        0.0697
      7 C          -0.6332   -3.1442    0.1784 C.3     1  LIG1       -0.0374
      8 H           0.3150   -3.2907   -0.3488 H       1  LIG1        0.0278
      9 H          -1.4371   -3.2708   -0.5569 H       1  LIG1        0.0278
     10 H          -0.7387   -3.9424    0.9153 H       1  LIG1        0.0278
     11 N          -0.2425   -0.5577   -1.2681 N.pl3   1  LIG1       -0.3569
     12 H          -0.7173   -1.2915   -1.7770 H       1  LIG1        0.1424
     13 H          -0.4135    0.3454   -1.6922 H       1  LIG1        0.1424
     14 C          -0.4571    1.9364    0.4697 C.ar    1  LIG1        0.0330
     15 C           0.5793    2.5109   -0.2210 C.ar    1  LIG1       -0.0139
     16 C           0.3394    3.8978   -0.5061 C.ar    1  LIG1        0.0436
     17 C          -0.8518    4.3620   -0.0069 C.ar    1  LIG1        0.0477
     18 S          -1.7219    3.0851    0.8016 S.2     1  LIG1       -0.0850
     19 C           1.8564    1.8240   -0.5993 C.3     1  LIG1       -0.0368
     20 H           2.7143    2.4548   -0.3466 H       1  LIG1        0.0278
     21 H           1.9119    1.6066   -1.6730 H       1  LIG1        0.0278
     22 H           1.9559    0.8726   -0.0762 H       1  LIG1        0.0278
     23 N           1.2766    4.6792   -1.1837 N.pl3   1  LIG1       -0.3568
     24 H           1.7775    4.1781   -1.9051 H       1  LIG1        0.1424
     25 H           0.8843    5.5401   -1.5432 H       1  LIG1        0.1424
     26 C          -1.3804    5.7154   -0.1196 C.ar    1  LIG1        0.0330
     27 C          -0.7736    6.8871    0.2552 C.ar    1  LIG1       -0.0139
     28 C          -1.5794    8.0368   -0.0467 C.ar    1  LIG1        0.0436
     29 C          -2.7891    7.7253   -0.6149 C.ar    1  LIG1        0.0477
     30 S          -2.9503    6.0008   -0.8160 S.2     1  LIG1       -0.0850
     31 C           0.5461    6.9950    0.9571 C.3     1  LIG1       -0.0368
     32 H           0.4685    7.6843    1.8036 H       1  LIG1        0.0278
     33 H           1.3403    7.3688    0.2992 H       1  LIG1        0.0278
     34 H           0.8705    6.0223    1.3274 H       1  LIG1        0.0278
     35 N          -1.1602    9.3296    0.2717 N.pl3   1  LIG1       -0.3568
     36 H          -0.1655    9.4731    0.1600 H       1  LIG1        0.1424
     37 H          -1.6890   10.0436   -0.2131 H       1  LIG1        0.1424
     38 C          -3.8295    8.6593   -1.0268 C.ar    1  LIG1        0.0324
     39 C          -4.4433    9.6229   -0.2682 C.ar    1  LIG1       -0.0145
     40 C          -5.4027   10.3835   -1.0256 C.ar    1  LIG1        0.0352
     41 C          -5.5006    9.9736   -2.3217 C.ar    1  LIG1       -0.0028
     42 S          -4.4299    8.6609   -2.6631 S.2     1  LIG1       -0.0939
     43 H          -6.1575   10.3597   -3.0878 H       1  LIG1        0.0712
     44 C          -4.2295    9.8387    1.1992 C.3     1  LIG1       -0.0369
     45 H          -5.1933    9.9365    1.7082 H       1  LIG1        0.0278
     46 H          -3.6526   10.7479    1.4083 H       1  LIG1        0.0278
     47 H          -3.6827    9.0052    1.6405 H       1  LIG1        0.0278
     48 N          -6.1880   11.3672   -0.4143 N.pl3   1  LIG1       -0.3573
     49 H          -5.6833   11.9344    0.2535 H       1  LIG1        0.1423
     50 H          -6.6920   11.9508   -1.0672 H       1  LIG1        0.1423
@<TRIPOS>BOND
     1    43    41    1
     2    42    41   ar
     3    42    38   ar
     4    41    40   ar
     5    24    23    1
     6    12    11    1
     7    13    11    1
     8    21    19    1
     9    25    23    1
    10    11     3    1
    11    23    16    1
    12    50    48    1
    13    38    29    1
    14    38    39   ar
    15    40    48    1
    16    40    39   ar
    17    30    29   ar
    18    30    26   ar
    19    29    28   ar
    20    19    20    1
    21    19    15    1
    22    19    22    1
    23     9     7    1
    24    16    15   ar
    25    16    17   ar
    26    48    49    1
    27     8     7    1
    28    39    44    1
    29    15    14   ar
    30    37    35    1
    31    26    17    1
    32    26    27   ar
    33    28    27   ar
    34    28    35    1
    35    17    18   ar
    36     3     2   ar
    37     3     4   ar
    38    36    35    1
    39     7     2    1
    40     7    10    1
    41    27    31    1
    42    33    31    1
    43    14    18   ar
    44    14     4    1
    45     2     1   ar
    46     4     5   ar
    47    31    34    1
    48    31    32    1
    49    44    46    1
    50    44    47    1
    51    44    45    1
    52     1     5   ar
    53     1     6    1
