@<TRIPOS>MOLECULE
mol_data/opt/cam/geoms/mol2/5ih5ih5ih-.out
 38 40 0 0 0
SMALL
GASTEIGER

@<TRIPOS>ATOM
      1 C          -1.4847   -1.7141    1.5367 C.ar    1  LIG1       -0.0190
      2 C          -0.7353   -1.8633    0.4123 C.ar    1  LIG1       -0.0222
      3 C          -0.3735   -0.5924   -0.1553 C.ar    1  LIG1        0.0430
      4 C          -0.8489    0.4772    0.5622 C.ar    1  LIG1        0.0471
      5 S          -1.7573   -0.0661    1.9509 S.2     1  LIG1       -0.0940
      6 H          -1.8888   -2.5031    2.1557 H       1  LIG1        0.0697
      7 C          -0.3223   -3.1707   -0.1917 C.3     1  LIG1       -0.0374
      8 H           0.7655   -3.2287   -0.3007 H       1  LIG1        0.0278
      9 H          -0.7572   -3.3131   -1.1885 H       1  LIG1        0.0278
     10 H          -0.6466   -4.0096    0.4266 H       1  LIG1        0.0278
     11 N           0.4114   -0.4951   -1.3054 N.pl3   1  LIG1       -0.3569
     12 H           0.2380   -1.2307   -1.9774 H       1  LIG1        0.1424
     13 H           0.3534    0.4157   -1.7433 H       1  LIG1        0.1424
     14 C          -0.6704    1.8898    0.2514 C.ar    1  LIG1        0.0330
     15 C           0.5089    2.5614    0.0523 C.ar    1  LIG1       -0.0139
     16 C           0.2979    3.9432   -0.2771 C.ar    1  LIG1        0.0436
     17 C          -1.0251    4.3072   -0.2951 C.ar    1  LIG1        0.0477
     18 S          -2.0458    2.9407    0.0673 S.2     1  LIG1       -0.0850
     19 C           1.8788    1.9744    0.2104 C.3     1  LIG1       -0.0368
     20 H           2.5149    2.6505    0.7899 H       1  LIG1        0.0278
     21 H           2.3731    1.8007   -0.7532 H       1  LIG1        0.0278
     22 H           1.8327    1.0130    0.7225 H       1  LIG1        0.0278
     23 N           1.3655    4.8153   -0.4983 N.pl3   1  LIG1       -0.3568
     24 H           2.1473    4.3866   -0.9751 H       1  LIG1        0.1424
     25 H           1.0826    5.6713   -0.9584 H       1  LIG1        0.1424
     26 C          -1.5662    5.6295   -0.5833 C.ar    1  LIG1        0.0324
     27 C          -1.2579    6.8166    0.0302 C.ar    1  LIG1       -0.0145
     28 C          -1.9683    7.9283   -0.5461 C.ar    1  LIG1        0.0352
     29 C          -2.7983    7.5582   -1.5618 C.ar    1  LIG1       -0.0028
     30 S          -2.7374    5.8563   -1.8539 S.2     1  LIG1       -0.0939
     31 H          -3.4551    8.1914   -2.1408 H       1  LIG1        0.0712
     32 C          -0.3555    6.9712    1.2166 C.3     1  LIG1       -0.0369
     33 H          -0.8269    7.6158    1.9648 H       1  LIG1        0.0278
     34 H           0.6087    7.4229    0.9527 H       1  LIG1        0.0278
     35 H          -0.1408    6.0042    1.6720 H       1  LIG1        0.0278
     36 N          -1.8468    9.2168   -0.0137 N.pl3   1  LIG1       -0.3573
     37 H          -0.9022    9.4598    0.2531 H       1  LIG1        0.1423
     38 H          -2.2474    9.9380   -0.5971 H       1  LIG1        0.1423
@<TRIPOS>BOND
     1    31    29    1
     2    12    11    1
     3    30    29   ar
     4    30    26   ar
     5    13    11    1
     6    29    28   ar
     7    11     3    1
     8     9     7    1
     9    24    23    1
    10    25    23    1
    11    21    19    1
    12    38    36    1
    13    26    17    1
    14    26    27   ar
    15    28    36    1
    16    28    27   ar
    17    23    16    1
    18     8     7    1
    19    17    16   ar
    20    17    18   ar
    21    16    15   ar
    22     7     2    1
    23     7    10    1
    24     3     2   ar
    25     3     4   ar
    26    36    37    1
    27    27    32    1
    28    15    19    1
    29    15    14   ar
    30    18    14   ar
    31    19    22    1
    32    19    20    1
    33    14     4    1
    34     2     1   ar
    35     4     5   ar
    36    34    32    1
    37    32    35    1
    38    32    33    1
    39     1     5   ar
    40     1     6    1
