@<TRIPOS>MOLECULE
mol_data/opt/cam/geoms/mol2/5ih5ih5ih5ih-.out
 50 53 0 0 0
SMALL
GASTEIGER

@<TRIPOS>ATOM
      1 C          -0.9099   -1.5601    2.1652 C.ar    1  LIG1       -0.0190
      2 C          -0.6856   -1.7940    0.8449 C.ar    1  LIG1       -0.0222
      3 C          -0.5028   -0.5691    0.1137 C.ar    1  LIG1        0.0430
      4 C          -0.5821    0.5510    0.9038 C.ar    1  LIG1        0.0471
      5 S          -0.8896    0.1134    2.5660 S.2     1  LIG1       -0.0940
      6 H          -1.0803   -2.3001    2.9347 H       1  LIG1        0.0697
      7 C          -0.6325   -3.1436    0.1964 C.3     1  LIG1       -0.0374
      8 H           0.3160   -3.2914   -0.3298 H       1  LIG1        0.0278
      9 H          -1.4359   -3.2723   -0.5391 H       1  LIG1        0.0278
     10 H          -0.7384   -3.9396    0.9355 H       1  LIG1        0.0278
     11 N          -0.2411   -0.5611   -1.2571 N.pl3   1  LIG1       -0.3569
     12 H          -0.7156   -1.2964   -1.7643 H       1  LIG1        0.1424
     13 H          -0.4120    0.3408   -1.6839 H       1  LIG1        0.1424
     14 C          -0.4571    1.9378    0.4735 C.ar    1  LIG1        0.0330
     15 C           0.5797    2.5105   -0.2181 C.ar    1  LIG1       -0.0139
     16 C           0.3398    3.8965   -0.5073 C.ar    1  LIG1        0.0436
     17 C          -0.8518    4.3621   -0.0102 C.ar    1  LIG1        0.0477
     18 S          -1.7223    3.0873    0.8013 S.2     1  LIG1       -0.0850
     19 C           1.8571    1.8227   -0.5937 C.3     1  LIG1       -0.0368
     20 H           2.7147    2.4543   -0.3422 H       1  LIG1        0.0278
     21 H           1.9133    1.6023   -1.6668 H       1  LIG1        0.0278
     22 H           1.9563    0.8728   -0.0679 H       1  LIG1        0.0278
     23 N           1.2774    4.6761   -1.1865 N.pl3   1  LIG1       -0.3568
     24 H           1.7788    4.1731   -1.9062 H       1  LIG1        0.1424
     25 H           0.8852    5.5360   -1.5487 H       1  LIG1        0.1424
     26 C          -1.3804    5.7151   -0.1270 C.ar    1  LIG1        0.0330
     27 C          -0.7739    6.8879    0.2449 C.ar    1  LIG1       -0.0139
     28 C          -1.5797    8.0367   -0.0608 C.ar    1  LIG1        0.0436
     29 C          -2.7890    7.7235   -0.6289 C.ar    1  LIG1        0.0477
     30 S          -2.9499    5.9984   -0.8252 S.2     1  LIG1       -0.0850
     31 C           0.5453    6.9979    0.9473 C.3     1  LIG1       -0.0368
     32 H           0.4671    7.6897    1.7917 H       1  LIG1        0.0278
     33 H           1.3399    7.3698    0.2889 H       1  LIG1        0.0278
     34 H           0.8696    6.0263    1.3206 H       1  LIG1        0.0278
     35 N          -1.1608    9.3305    0.2542 N.pl3   1  LIG1       -0.3568
     36 H          -0.1661    9.4737    0.1427 H       1  LIG1        0.1424
     37 H          -1.6894   10.0430   -0.2329 H       1  LIG1        0.1424
     38 C          -3.8292    8.6561   -1.0441 C.ar    1  LIG1        0.0324
     39 C          -4.4436    9.6218   -0.2887 C.ar    1  LIG1       -0.0145
     40 C          -5.4025   10.3802   -1.0488 C.ar    1  LIG1        0.0352
     41 C          -5.4996    9.9666   -2.3437 C.ar    1  LIG1       -0.0028
     42 S          -4.4286    8.6532   -2.6808 S.2     1  LIG1       -0.0939
     43 H          -6.1560   10.3506   -3.1113 H       1  LIG1        0.0712
     44 C          -4.2308    9.8418    1.1783 C.3     1  LIG1       -0.0369
     45 H          -5.1948    9.9410    1.6864 H       1  LIG1        0.0278
     46 H          -3.6540   10.7517    1.3852 H       1  LIG1        0.0278
     47 H          -3.6841    9.0097    1.6224 H       1  LIG1        0.0278
     48 N          -6.1884   11.3655   -0.4407 N.pl3   1  LIG1       -0.3573
     49 H          -5.6842   11.9347    0.2258 H       1  LIG1        0.1423
     50 H          -6.6920   11.9473   -1.0956 H       1  LIG1        0.1423
@<TRIPOS>BOND
     1    43    41    1
     2    42    41   ar
     3    42    38   ar
     4    41    40   ar
     5    24    23    1
     6    12    11    1
     7    13    11    1
     8    21    19    1
     9    25    23    1
    10    11     3    1
    11    23    16    1
    12    50    48    1
    13    40    48    1
    14    40    39   ar
    15    38    29    1
    16    38    39   ar
    17    30    29   ar
    18    30    26   ar
    19    29    28   ar
    20    19    20    1
    21    19    15    1
    22    19    22    1
    23     9     7    1
    24    16    15   ar
    25    16    17   ar
    26    48    49    1
    27     8     7    1
    28    39    44    1
    29    37    35    1
    30    15    14   ar
    31    26    17    1
    32    26    27   ar
    33    28    27   ar
    34    28    35    1
    35    17    18   ar
    36     3     2   ar
    37     3     4   ar
    38    36    35    1
    39     7     2    1
    40     7    10    1
    41    27    31    1
    42    33    31    1
    43    14    18   ar
    44    14     4    1
    45     2     1   ar
    46     4     5   ar
    47    31    34    1
    48    31    32    1
    49    44    46    1
    50    44    47    1
    51    44    45    1
    52     1     5   ar
    53     1     6    1
