@<TRIPOS>MOLECULE
mol_data/opt/cam/geoms/mol2/5ih5ih-5ih5ih-.out
 50 53 0 0 0
SMALL
GASTEIGER

@<TRIPOS>ATOM
      1 C          -0.8902   -1.5601    2.1780 C.ar    1  LIG1       -0.0190
      2 C          -0.6783   -1.7941    0.8556 C.ar    1  LIG1       -0.0222
      3 C          -0.5022   -0.5692    0.1228 C.ar    1  LIG1        0.0430
      4 C          -0.5738    0.5509    0.9136 C.ar    1  LIG1        0.0471
      5 S          -0.8658    0.1134    2.5786 S.2     1  LIG1       -0.0940
      6 H          -1.0534   -2.3002    2.9490 H       1  LIG1        0.0697
      7 C          -0.6315   -3.1436    0.2066 C.3     1  LIG1       -0.0374
      8 H           0.3120   -3.2917   -0.3284 H       1  LIG1        0.0278
      9 H          -1.4418   -3.2723   -0.5213 H       1  LIG1        0.0278
     10 H          -0.7306   -3.9397    0.9466 H       1  LIG1        0.0278
     11 N          -0.2533   -0.5612   -1.2505 N.pl3   1  LIG1       -0.3569
     12 H          -0.7327   -1.2964   -1.7531 H       1  LIG1        0.1424
     13 H          -0.4280    0.3407   -1.6756 H       1  LIG1        0.1424
     14 C          -0.4526    1.9377    0.4822 C.ar    1  LIG1        0.0330
     15 C           0.5777    2.5102   -0.2192 C.ar    1  LIG1       -0.0139
     16 C           0.3354    3.8963   -0.5061 C.ar    1  LIG1        0.0436
     17 C          -0.8514    4.3620    0.0022 C.ar    1  LIG1        0.0477
     18 S          -1.7145    3.0874    0.8218 S.2     1  LIG1       -0.0850
     19 C           1.8514    1.8221   -0.6068 C.3     1  LIG1       -0.0368
     20 H           2.7115    2.4537   -0.3634 H       1  LIG1        0.0278
     21 H           1.8975    1.6018   -1.6803 H       1  LIG1        0.0278
     22 H           1.9554    0.8723   -0.0819 H       1  LIG1        0.0278
     23 N           1.2667    4.6757   -1.1941 N.pl3   1  LIG1       -0.3568
     24 H           1.7612    4.1726   -1.9184 H       1  LIG1        0.1424
     25 H           0.8712    5.5357   -1.5526 H       1  LIG1        0.1424
     26 C          -1.3809    5.7152   -0.1097 C.ar    1  LIG1        0.0330
     27 C          -0.7707    6.8878    0.2565 C.ar    1  LIG1       -0.0139
     28 C          -1.5791    8.0368   -0.0416 C.ar    1  LIG1        0.0436
     29 C          -2.7938    7.7238   -0.5982 C.ar    1  LIG1        0.0477
     30 S          -2.9568    5.9987   -0.7930 S.2     1  LIG1       -0.0850
     31 C           0.5551    6.9976    0.9466 C.3     1  LIG1       -0.0368
     32 H           0.4849    7.6894    1.7917 H       1  LIG1        0.0278
     33 H           1.3435    7.3694    0.2807 H       1  LIG1        0.0278
     34 H           0.8826    6.0259    1.3167 H       1  LIG1        0.0278
     35 N          -1.1571    9.3305    0.2696 N.pl3   1  LIG1       -0.3568
     36 H          -0.1634    9.4735    0.1487 H       1  LIG1        0.1424
     37 H          -1.6901   10.0431   -0.2126 H       1  LIG1        0.1424
     38 C          -3.8377    8.6566   -1.0036 C.ar    1  LIG1        0.0324
     39 C          -4.4447    9.6224   -0.2424 C.ar    1  LIG1       -0.0145
     40 C          -5.4107   10.3810   -0.9935 C.ar    1  LIG1        0.0352
     41 C          -5.5200    9.9674   -2.2875 C.ar    1  LIG1       -0.0028
     42 S          -4.4524    8.6538   -2.6346 S.2     1  LIG1       -0.0939
     43 H          -6.1835   10.3515   -3.0489 H       1  LIG1        0.0712
     44 C          -4.2182    9.8424    1.2225 C.3     1  LIG1       -0.0369
     45 H          -5.1774    9.9416    1.7396 H       1  LIG1        0.0278
     46 H          -3.6394   10.7522    1.4240 H       1  LIG1        0.0278
     47 H          -3.6674    9.0101    1.6613 H       1  LIG1        0.0278
     48 N          -6.1906   11.3664   -0.3780 N.pl3   1  LIG1       -0.3573
     49 H          -5.6801   11.9355    0.2837 H       1  LIG1        0.1423
     50 H          -6.7003   11.9483   -1.0282 H       1  LIG1        0.1423
@<TRIPOS>BOND
     1    43    41    1
     2    42    41   ar
     3    42    38   ar
     4    41    40   ar
     5    24    23    1
     6    12    11    1
     7    21    19    1
     8    13    11    1
     9    25    23    1
    10    11     3    1
    11    23    16    1
    12    50    48    1
    13    38    29    1
    14    38    39   ar
    15    40    48    1
    16    40    39   ar
    17    30    29   ar
    18    30    26   ar
    19    19    20    1
    20    19    15    1
    21    19    22    1
    22    29    28   ar
    23     9     7    1
    24    16    15   ar
    25    16    17   ar
    26    48    49    1
    27     8     7    1
    28    39    44    1
    29    15    14   ar
    30    37    35    1
    31    26    17    1
    32    26    27   ar
    33    28    27   ar
    34    28    35    1
    35    17    18   ar
    36     3     2   ar
    37     3     4   ar
    38    36    35    1
    39     7     2    1
    40     7    10    1
    41    27    31    1
    42    33    31    1
    43    14    18   ar
    44    14     4    1
    45     2     1   ar
    46     4     5   ar
    47    31    34    1
    48    31    32    1
    49    44    46    1
    50    44    47    1
    51    44    45    1
    52     1     5   ar
    53     1     6    1
