@<TRIPOS>MOLECULE
mol_data/opt/cam/geoms/mol2/5ih5ih-5ih5ih.out
 50 53 0 0 0
SMALL
GASTEIGER

@<TRIPOS>ATOM
      1 C          -0.8879   -1.5606    2.1806 C.ar    1  LIG1       -0.0190
      2 C          -0.6770   -1.7941    0.8580 C.ar    1  LIG1       -0.0222
      3 C          -0.5016   -0.5690    0.1254 C.ar    1  LIG1        0.0430
      4 C          -0.5727    0.5509    0.9166 C.ar    1  LIG1        0.0471
      5 S          -0.8634    0.1128    2.5816 S.2     1  LIG1       -0.0940
      6 H          -1.0505   -2.3008    2.9515 H       1  LIG1        0.0697
      7 C          -0.6306   -3.1434    0.2086 C.3     1  LIG1       -0.0374
      8 H           0.3126   -3.2912   -0.3272 H       1  LIG1        0.0278
      9 H          -1.4414   -3.2719   -0.5188 H       1  LIG1        0.0278
     10 H          -0.7290   -3.9398    0.9484 H       1  LIG1        0.0278
     11 N          -0.2537   -0.5606   -1.2480 N.pl3   1  LIG1       -0.3569
     12 H          -0.7334   -1.2956   -1.7506 H       1  LIG1        0.1424
     13 H          -0.4289    0.3414   -1.6728 H       1  LIG1        0.1424
     14 C          -0.4520    1.9378    0.4855 C.ar    1  LIG1        0.0330
     15 C           0.5778    2.5106   -0.2165 C.ar    1  LIG1       -0.0139
     16 C           0.3351    3.8968   -0.5028 C.ar    1  LIG1        0.0436
     17 C          -0.8514    4.3623    0.0065 C.ar    1  LIG1        0.0477
     18 S          -1.7137    3.0873    0.8264 S.2     1  LIG1       -0.0850
     19 C           1.8513    1.8228   -0.6052 C.3     1  LIG1       -0.0368
     20 H           2.7115    2.4543   -0.3623 H       1  LIG1        0.0278
     21 H           1.8965    1.6028   -1.6789 H       1  LIG1        0.0278
     22 H           1.9557    0.8728   -0.0807 H       1  LIG1        0.0278
     23 N           1.2658    4.6765   -1.1912 N.pl3   1  LIG1       -0.3568
     24 H           1.7598    4.1737   -1.9161 H       1  LIG1        0.1424
     25 H           0.8700    5.5366   -1.5492 H       1  LIG1        0.1424
     26 C          -1.3811    5.7154   -0.1046 C.ar    1  LIG1        0.0330
     27 C          -0.7708    6.8880    0.2615 C.ar    1  LIG1       -0.0139
     28 C          -1.5794    8.0370   -0.0356 C.ar    1  LIG1        0.0436
     29 C          -2.7945    7.7240   -0.5915 C.ar    1  LIG1        0.0477
     30 S          -2.9575    5.9990   -0.7867 S.2     1  LIG1       -0.0850
     31 C           0.5555    6.9977    0.9506 C.3     1  LIG1       -0.0368
     32 H           0.4859    7.6892    1.7960 H       1  LIG1        0.0278
     33 H           1.3434    7.3697    0.2843 H       1  LIG1        0.0278
     34 H           0.8835    6.0259    1.3203 H       1  LIG1        0.0278
     35 N          -1.1573    9.3306    0.2756 N.pl3   1  LIG1       -0.3568
     36 H          -0.1638    9.4737    0.1541 H       1  LIG1        0.1424
     37 H          -1.6908   10.0433   -0.2059 H       1  LIG1        0.1424
     38 C          -3.8388    8.6569   -0.9958 C.ar    1  LIG1        0.0324
     39 C          -4.4454    9.6224   -0.2339 C.ar    1  LIG1       -0.0145
     40 C          -5.4119   10.3811   -0.9840 C.ar    1  LIG1        0.0352
     41 C          -5.5221    9.9679   -2.2780 C.ar    1  LIG1       -0.0028
     42 S          -4.4547    8.6545   -2.6263 S.2     1  LIG1       -0.0939
     43 H          -6.1863   10.3522   -3.0388 H       1  LIG1        0.0712
     44 C          -4.2177    9.8419    1.2309 C.3     1  LIG1       -0.0369
     45 H          -5.1766    9.9410    1.7488 H       1  LIG1        0.0278
     46 H          -3.6388   10.7516    1.4323 H       1  LIG1        0.0278
     47 H          -3.6667    9.0095    1.6691 H       1  LIG1        0.0278
     48 N          -6.1915   11.3663   -0.3677 N.pl3   1  LIG1       -0.3573
     49 H          -5.6806   11.9352    0.2938 H       1  LIG1        0.1423
     50 H          -6.7017   11.9483   -1.0173 H       1  LIG1        0.1423
@<TRIPOS>BOND
     1    43    41    1
     2    42    41   ar
     3    42    38   ar
     4    41    40   ar
     5    24    23    1
     6    12    11    1
     7    21    19    1
     8    13    11    1
     9    25    23    1
    10    11     3    1
    11    23    16    1
    12    50    48    1
    13    38    29    1
    14    38    39   ar
    15    40    48    1
    16    40    39   ar
    17    30    29   ar
    18    30    26   ar
    19    19    20    1
    20    19    15    1
    21    19    22    1
    22    29    28   ar
    23     9     7    1
    24    16    15   ar
    25    16    17   ar
    26    48    49    1
    27     8     7    1
    28    39    44    1
    29    15    14   ar
    30    37    35    1
    31    26    17    1
    32    26    27   ar
    33    28    27   ar
    34    28    35    1
    35    17    18   ar
    36     3     2   ar
    37     3     4   ar
    38    36    35    1
    39     7     2    1
    40     7    10    1
    41    27    31    1
    42    33    31    1
    43    14    18   ar
    44    14     4    1
    45     2     1   ar
    46     4     5   ar
    47    31    34    1
    48    31    32    1
    49    44    46    1
    50    44    47    1
    51    44    45    1
    52     1     5   ar
    53     1     6    1
