@<TRIPOS>MOLECULE
mol_data/opt/cam/geoms/mol2/5ii.out
 15 15 0 0 0
SMALL
GASTEIGER

@<TRIPOS>ATOM
      1 C          -2.1627   -1.6855    0.0796 C.ar    1  LIG1       -0.0212
      2 C          -0.8038   -1.6727    0.0135 C.ar    1  LIG1       -0.0405
      3 C          -0.2751   -0.3320    0.0135 C.ar    1  LIG1       -0.0405
      4 C          -1.2595    0.6049    0.0796 C.ar    1  LIG1       -0.0212
      5 S          -2.8338   -0.0976    0.1438 S.2     1  LIG1       -0.1045
      6 H          -2.8106   -2.5508    0.0945 H       1  LIG1        0.0696
      7 H          -1.1425    1.6794    0.0945 H       1  LIG1        0.0696
      8 C           0.0570   -2.8991   -0.0523 C.3     1  LIG1       -0.0390
      9 H           0.7500   -2.9471    0.7942 H       1  LIG1        0.0278
     10 H           0.6639   -2.9130   -0.9637 H       1  LIG1        0.0278
     11 H          -0.5481   -3.8076   -0.0403 H       1  LIG1        0.0278
     12 C           1.1911   -0.0232   -0.0523 C.3     1  LIG1       -0.0390
     13 H           1.3689    1.0538   -0.0403 H       1  LIG1        0.0278
     14 H           1.6442   -0.4273   -0.9636 H       1  LIG1        0.0278
     15 H           1.7303   -0.4611    0.7943 H       1  LIG1        0.0278
@<TRIPOS>BOND
     1    10     8    1
     2    14    12    1
     3     8    11    1
     4     8     2    1
     5     8     9    1
     6    12    13    1
     7    12     3    1
     8    12    15    1
     9     2     3   ar
    10     2     1   ar
    11     3     4   ar
    12     1     6    1
    13     1     5   ar
    14     4     7    1
    15     4     5   ar
