@<TRIPOS>MOLECULE
mol_data/opt/cam/geoms/mol2/5il.out
 16 16 0 0 0
SMALL
GASTEIGER

@<TRIPOS>ATOM
      1 C          -2.2594   -1.6801    0.1604 C.ar    1  LIG1       -0.0178
      2 C          -1.0025   -2.1059   -0.1265 C.ar    1  LIG1       -0.0018
      3 C          -0.0404   -1.0655    0.1159 C.ar    1  LIG1        0.1300
      4 C          -0.5850    0.0976    0.5712 C.ar    1  LIG1        0.0176
      5 S          -2.3041   -0.0460    0.7182 S.2     1  LIG1       -0.1011
      6 H          -3.1757   -2.2467    0.0730 H       1  LIG1        0.0697
      7 H          -0.0909    1.0210    0.8273 H       1  LIG1        0.0730
      8 C          -0.6144   -3.4615   -0.6292 C.3     1  LIG1       -0.0357
      9 H           0.0817   -3.9499    0.0590 H       1  LIG1        0.0279
     10 H          -0.1068   -3.3904   -1.5956 H       1  LIG1        0.0279
     11 H          -1.4899   -4.1028   -0.7463 H       1  LIG1        0.0279
     12 O           1.2661   -1.3377   -0.1248 O.3     1  LIG1       -0.4943
     13 C           2.1749   -0.2878    0.1266 C.3     1  LIG1        0.0788
     14 H           3.1673   -0.6676   -0.1149 H       1  LIG1        0.0660
     15 H           1.9557    0.5844   -0.5010 H       1  LIG1        0.0660
     16 H           2.1473    0.0160    1.1801 H       1  LIG1        0.0660
@<TRIPOS>BOND
     1    10     8    1
     2    11     8    1
     3     8     2    1
     4     8     9    1
     5    15    13    1
     6     2     3   ar
     7     2     1   ar
     8    12     3    1
     9    12    13    1
    10    14    13    1
    11     6     1    1
    12     3     4   ar
    13    13    16    1
    14     1     5   ar
    15     4     5   ar
    16     4     7    1
