@<TRIPOS>MOLECULE
mol_data/opt/cam/geoms/mol2/5il5il5il-5il.out
 58 61 0 0 0
SMALL
GASTEIGER

@<TRIPOS>ATOM
      1 C          -1.2972   -1.9290    2.2701 C.ar    1  LIG1       -0.0172
      2 C          -0.5653   -2.1418    1.1443 C.ar    1  LIG1       -0.0011
      3 C          -0.1919   -0.9018    0.5302 C.ar    1  LIG1        0.1382
      4 C          -0.6275    0.2152    1.1963 C.ar    1  LIG1        0.0681
      5 S          -1.5356   -0.2544    2.6067 S.2     1  LIG1       -0.0921
      6 H          -1.7217   -2.6757    2.9264 H       1  LIG1        0.0697
      7 C          -0.1826   -3.4732    0.5760 C.3     1  LIG1       -0.0357
      8 H           0.9042   -3.5716    0.5074 H       1  LIG1        0.0279
      9 H          -0.5774   -3.5995   -0.4363 H       1  LIG1        0.0279
     10 H          -0.5637   -4.2880    1.1943 H       1  LIG1        0.0279
     11 O           0.5479   -0.9020   -0.6199 O.3     1  LIG1       -0.4937
     12 C          -0.1229   -0.4042   -1.7722 C.3     1  LIG1        0.0789
     13 H           0.5551   -0.5559   -2.6130 H       1  LIG1        0.0660
     14 H          -1.0526   -0.9545   -1.9526 H       1  LIG1        0.0660
     15 H          -0.3498    0.6615   -1.6752 H       1  LIG1        0.0660
     16 C          -0.3786    1.6131    0.8730 C.ar    1  LIG1        0.0365
     17 C           0.8206    2.2012    0.5648 C.ar    1  LIG1        0.0072
     18 C           0.6618    3.5984    0.2980 C.ar    1  LIG1        0.1388
     19 C          -0.6198    4.0677    0.4191 C.ar    1  LIG1        0.0687
     20 S          -1.6861    2.7659    0.8545 S.2     1  LIG1       -0.0831
     21 C           2.1528    1.5192    0.5369 C.3     1  LIG1       -0.0351
     22 H           2.9473    2.2532    0.6838 H       1  LIG1        0.0279
     23 H           2.3251    1.0038   -0.4126 H       1  LIG1        0.0279
     24 H           2.2165    0.7605    1.3199 H       1  LIG1        0.0279
     25 O           1.7257    4.3948   -0.0298 O.3     1  LIG1       -0.4937
     26 C           1.9692    4.4824   -1.4280 C.3     1  LIG1        0.0789
     27 H           2.8386    5.1285   -1.5555 H       1  LIG1        0.0660
     28 H           2.1873    3.4968   -1.8552 H       1  LIG1        0.0660
     29 H           1.1104    4.9177   -1.9499 H       1  LIG1        0.0660
     30 C          -1.0943    5.4317    0.2347 C.ar    1  LIG1        0.0365
     31 C          -0.5709    6.5845    0.7590 C.ar    1  LIG1        0.0072
     32 C          -1.3156    7.7318    0.3368 C.ar    1  LIG1        0.1388
     33 C          -2.3880    7.4609   -0.4715 C.ar    1  LIG1        0.0687
     34 S          -2.4982    5.7493   -0.7503 S.2     1  LIG1       -0.0831
     35 C           0.5973    6.6817    1.6894 C.3     1  LIG1       -0.0351
     36 H           0.5301    7.6022    2.2723 H       1  LIG1        0.0279
     37 H           1.5452    6.6780    1.1445 H       1  LIG1        0.0279
     38 H           0.6248    5.8281    2.3702 H       1  LIG1        0.0279
     39 O          -0.9800    8.9960    0.7410 O.3     1  LIG1       -0.4937
     40 C          -0.0895    9.6649   -0.1426 C.3     1  LIG1        0.0789
     41 H           0.1091   10.6444    0.2941 H       1  LIG1        0.0660
     42 H           0.8546    9.1174   -0.2440 H       1  LIG1        0.0660
     43 H          -0.5398    9.7909   -1.1330 H       1  LIG1        0.0660
     44 C          -3.3408    8.4034   -1.0407 C.ar    1  LIG1        0.0359
     45 C          -4.0134    9.4114   -0.4016 C.ar    1  LIG1        0.0066
     46 C          -4.8685   10.1218   -1.3105 C.ar    1  LIG1        0.1306
     47 C          -4.8432    9.6501   -2.5857 C.ar    1  LIG1        0.0183
     48 S          -3.7599    8.3213   -2.7342 S.2     1  LIG1       -0.0920
     49 H          -5.4205   10.0074   -3.4250 H       1  LIG1        0.0730
     50 C          -3.9536    9.7202    1.0617 C.3     1  LIG1       -0.0351
     51 H          -4.8815   10.2030    1.3757 H       1  LIG1        0.0279
     52 H          -3.1145   10.3789    1.3021 H       1  LIG1        0.0279
     53 H          -3.8123    8.8085    1.6459 H       1  LIG1        0.0279
     54 O          -5.6875   11.1413   -0.9064 O.3     1  LIG1       -0.4943
     55 C          -5.0382   12.3981   -0.7935 C.3     1  LIG1        0.0788
     56 H          -5.7908   13.1119   -0.4564 H       1  LIG1        0.0660
     57 H          -4.2207   12.3671   -0.0639 H       1  LIG1        0.0660
     58 H          -4.6367   12.7219   -1.7608 H       1  LIG1        0.0660
@<TRIPOS>BOND
     1    49    47    1
     2    48    47   ar
     3    48    44   ar
     4    13    12    1
     5    47    46   ar
     6    14    12    1
     7    29    26    1
     8    28    26    1
     9    12    15    1
    10    12    11    1
    11    58    55    1
    12    27    26    1
    13    26    25    1
    14    46    54    1
    15    46    45   ar
    16    43    40    1
    17    44    33    1
    18    44    45   ar
    19    54    55    1
    20    55    56    1
    21    55    57    1
    22    34    33   ar
    23    34    30   ar
    24    11     3    1
    25    33    32   ar
    26     9     7    1
    27    23    21    1
    28    45    50    1
    29    42    40    1
    30    40    41    1
    31    40    39    1
    32    25    18    1
    33    30    19    1
    34    30    31   ar
    35    18    19   ar
    36    18    17   ar
    37    32    39    1
    38    32    31   ar
    39    19    20   ar
    40     8     7    1
    41     3     2   ar
    42     3     4   ar
    43    21    17    1
    44    21    22    1
    45    21    24    1
    46    17    16   ar
    47     7     2    1
    48     7    10    1
    49    31    35    1
    50    20    16   ar
    51    16     4    1
    52    50    52    1
    53    50    51    1
    54    50    53    1
    55     2     1   ar
    56    37    35    1
    57     4     5   ar
    58    35    36    1
    59    35    38    1
    60     1     5   ar
    61     1     6    1
