@<TRIPOS>MOLECULE
mol_data/opt/cam/geoms/mol2/5il5il5il5il.out
 58 61 0 0 0
SMALL
GASTEIGER

@<TRIPOS>ATOM
      1 C          -1.2722   -1.9242    2.2905 C.ar    1  LIG1       -0.0172
      2 C          -0.5499   -2.1389    1.1588 C.ar    1  LIG1       -0.0011
      3 C          -0.1828   -0.9000    0.5388 C.ar    1  LIG1        0.1382
      4 C          -0.6135    0.2181    1.2062 C.ar    1  LIG1        0.0681
      5 S          -1.5090   -0.2490    2.6254 S.2     1  LIG1       -0.0921
      6 H          -1.6904   -2.6697    2.9521 H       1  LIG1        0.0697
      7 C          -0.1711   -3.4713    0.5903 C.3     1  LIG1       -0.0357
      8 H           0.9152   -3.5690    0.5125 H       1  LIG1        0.0279
      9 H          -0.5745   -3.6001   -0.4184 H       1  LIG1        0.0279
     10 H          -0.5463   -4.2850    1.2136 H       1  LIG1        0.0279
     11 O           0.5470   -0.9022   -0.6176 O.3     1  LIG1       -0.4937
     12 C          -0.1340   -0.4073   -1.7652 C.3     1  LIG1        0.0789
     13 H           0.5367   -0.5605   -2.6115 H       1  LIG1        0.0660
     14 H          -1.0650   -0.9585   -1.9363 H       1  LIG1        0.0660
     15 H          -0.3607    0.6585   -1.6686 H       1  LIG1        0.0660
     16 C          -0.3685    1.6155    0.8777 C.ar    1  LIG1        0.0365
     17 C           0.8276    2.2038    0.5578 C.ar    1  LIG1        0.0072
     18 C           0.6654    3.6004    0.2893 C.ar    1  LIG1        0.1388
     19 C          -0.6155    4.0689    0.4204 C.ar    1  LIG1        0.0687
     20 S          -1.6770    2.7673    0.8679 S.2     1  LIG1       -0.0831
     21 C           2.1600    1.5227    0.5199 C.3     1  LIG1       -0.0351
     22 H           2.9552    2.2577    0.6582 H       1  LIG1        0.0279
     23 H           2.3244    1.0053   -0.4298 H       1  LIG1        0.0279
     24 H           2.2310    0.7660    1.3041 H       1  LIG1        0.0279
     25 O           1.7258    4.3968   -0.0494 O.3     1  LIG1       -0.4937
     26 C           1.9570    4.4816   -1.4499 C.3     1  LIG1        0.0789
     27 H           2.8248    5.1281   -1.5863 H       1  LIG1        0.0660
     28 H           2.1720    3.4953   -1.8769 H       1  LIG1        0.0660
     29 H           1.0934    4.9153   -1.9651 H       1  LIG1        0.0660
     30 C          -1.0926    5.4322    0.2372 C.ar    1  LIG1        0.0365
     31 C          -0.5656    6.5865    0.7544 C.ar    1  LIG1        0.0072
     32 C          -1.3148    7.7323    0.3361 C.ar    1  LIG1        0.1388
     33 C          -2.3939    7.4588   -0.4623 C.ar    1  LIG1        0.0687
     34 S          -2.5052    5.7465   -0.7365 S.2     1  LIG1       -0.0831
     35 C           0.6105    6.6865    1.6745 C.3     1  LIG1       -0.0351
     36 H           0.5478    7.6085    2.2557 H       1  LIG1        0.0279
     37 H           1.5537    6.6819    1.1216 H       1  LIG1        0.0279
     38 H           0.6442    5.8347    2.3573 H       1  LIG1        0.0279
     39 O          -0.9767    8.9976    0.7347 O.3     1  LIG1       -0.4937
     40 C          -0.0944    9.6653   -0.1580 C.3     1  LIG1        0.0789
     41 H           0.1071   10.6460    0.2749 H       1  LIG1        0.0660
     42 H           0.8492    9.1183   -0.2664 H       1  LIG1        0.0660
     43 H          -0.5534    9.7889   -1.1447 H       1  LIG1        0.0660
     44 C          -3.3523    8.3994   -1.0254 C.ar    1  LIG1        0.0359
     45 C          -4.0201    9.4082   -0.3827 C.ar    1  LIG1        0.0066
     46 C          -4.8835   10.1161   -1.2858 C.ar    1  LIG1        0.1306
     47 C          -4.8688    9.6417   -2.5601 C.ar    1  LIG1        0.0183
     48 S          -3.7858    8.3134   -2.7150 S.2     1  LIG1       -0.0920
     49 H          -5.4535    9.9967   -3.3952 H       1  LIG1        0.0730
     50 C          -3.9480    9.7203    1.0793 C.3     1  LIG1       -0.0351
     51 H          -4.8736   10.2031    1.4002 H       1  LIG1        0.0279
     52 H          -3.1074   10.3801    1.3111 H       1  LIG1        0.0279
     53 H          -3.8011    8.8099    1.6643 H       1  LIG1        0.0279
     54 O          -5.6998   11.1358   -0.8768 O.3     1  LIG1       -0.4943
     55 C          -5.0505   12.3933   -0.7723 C.3     1  LIG1        0.0788
     56 H          -5.8008   13.1074   -0.4303 H       1  LIG1        0.0660
     57 H          -4.2268   12.3647   -0.0497 H       1  LIG1        0.0660
     58 H          -4.6577   12.7154   -1.7437 H       1  LIG1        0.0660
@<TRIPOS>BOND
     1    49    47    1
     2    48    47   ar
     3    48    44   ar
     4    13    12    1
     5    47    46   ar
     6    29    26    1
     7    14    12    1
     8    28    26    1
     9    12    15    1
    10    12    11    1
    11    58    55    1
    12    27    26    1
    13    26    25    1
    14    46    54    1
    15    46    45   ar
    16    43    40    1
    17    44    33    1
    18    44    45   ar
    19    54    55    1
    20    55    56    1
    21    55    57    1
    22    34    33   ar
    23    34    30   ar
    24    11     3    1
    25    33    32   ar
    26    23    21    1
    27     9     7    1
    28    45    50    1
    29    42    40    1
    30    40    41    1
    31    40    39    1
    32    25    18    1
    33    30    19    1
    34    30    31   ar
    35    18    19   ar
    36    18    17   ar
    37    32    39    1
    38    32    31   ar
    39    19    20   ar
    40     8     7    1
    41    21    17    1
    42    21    22    1
    43    21    24    1
    44     3     2   ar
    45     3     4   ar
    46    17    16   ar
    47     7     2    1
    48     7    10    1
    49    31    35    1
    50    20    16   ar
    51    16     4    1
    52    50    52    1
    53    50    51    1
    54    50    53    1
    55    37    35    1
    56     2     1   ar
    57     4     5   ar
    58    35    36    1
    59    35    38    1
    60     1     5   ar
    61     1     6    1
