@<TRIPOS>MOLECULE
mol_data/opt/cam/geoms/mol2/5il5il5il-5il-.out
 58 61 0 0 0
SMALL
GASTEIGER

@<TRIPOS>ATOM
      1 C          -1.3052   -1.9263    2.2720 C.ar    1  LIG1       -0.0172
      2 C          -0.5703   -2.1406    1.1485 C.ar    1  LIG1       -0.0011
      3 C          -0.1948   -0.9015    0.5340 C.ar    1  LIG1        0.1382
      4 C          -0.6320    0.2164    1.1975 C.ar    1  LIG1        0.0681
      5 S          -1.5441   -0.2512    2.6059 S.2     1  LIG1       -0.0921
      6 H          -1.7317   -2.6720    2.9281 H       1  LIG1        0.0697
      7 C          -0.1863   -3.4728    0.5830 C.3     1  LIG1       -0.0357
      8 H           0.9007   -3.5716    0.5176 H       1  LIG1        0.0279
      9 H          -0.5782   -3.6001   -0.4304 H       1  LIG1        0.0279
     10 H          -0.5695   -4.2868    1.2011 H       1  LIG1        0.0279
     11 O           0.5481   -0.9033   -0.6141 O.3     1  LIG1       -0.4937
     12 C          -0.1192   -0.4063   -1.7688 C.3     1  LIG1        0.0789
     13 H           0.5610   -0.5595   -2.6076 H       1  LIG1        0.0660
     14 H          -1.0489   -0.9562   -1.9511 H       1  LIG1        0.0660
     15 H          -0.3456    0.6597   -1.6737 H       1  LIG1        0.0660
     16 C          -0.3819    1.6139    0.8732 C.ar    1  LIG1        0.0365
     17 C           0.8184    2.2013    0.5676 C.ar    1  LIG1        0.0072
     18 C           0.6607    3.5983    0.2987 C.ar    1  LIG1        0.1388
     19 C          -0.6212    4.0680    0.4157 C.ar    1  LIG1        0.0687
     20 S          -1.6890    2.7671    0.8497 S.2     1  LIG1       -0.0831
     21 C           2.1504    1.5189    0.5442 C.3     1  LIG1       -0.0351
     22 H           2.9447    2.2529    0.6924 H       1  LIG1        0.0279
     23 H           2.3251    1.0023   -0.4041 H       1  LIG1        0.0279
     24 H           2.2117    0.7613    1.3284 H       1  LIG1        0.0279
     25 O           1.7256    4.3940   -0.0271 O.3     1  LIG1       -0.4937
     26 C           1.9730    4.4799   -1.4247 C.3     1  LIG1        0.0789
     27 H           2.8430    5.1256   -1.5505 H       1  LIG1        0.0660
     28 H           2.1920    3.4937   -1.8502 H       1  LIG1        0.0660
     29 H           1.1158    4.9149   -1.9494 H       1  LIG1        0.0660
     30 C          -1.0947    5.4320    0.2284 C.ar    1  LIG1        0.0365
     31 C          -0.5725    6.5852    0.7528 C.ar    1  LIG1        0.0072
     32 C          -1.3157    7.7322    0.3271 C.ar    1  LIG1        0.1388
     33 C          -2.3860    7.4606   -0.4838 C.ar    1  LIG1        0.0687
     34 S          -2.4958    5.7487   -0.7610 S.2     1  LIG1       -0.0831
     35 C           0.5931    6.6831    1.6864 C.3     1  LIG1       -0.0351
     36 H           0.5247    7.6045    2.2678 H       1  LIG1        0.0279
     37 H           1.5425    6.6782    1.1442 H       1  LIG1        0.0279
     38 H           0.6182    5.8306    2.3686 H       1  LIG1        0.0279
     39 O          -0.9810    8.9968    0.7309 O.3     1  LIG1       -0.4937
     40 C          -0.0878    9.6644   -0.1511 C.3     1  LIG1        0.0789
     41 H           0.1098   10.6444    0.2851 H       1  LIG1        0.0660
     42 H           0.8564    9.1165   -0.2491 H       1  LIG1        0.0660
     43 H          -0.5353    9.7894   -1.1428 H       1  LIG1        0.0660
     44 C          -3.3369    8.4028   -1.0568 C.ar    1  LIG1        0.0359
     45 C          -4.0110    9.4116   -0.4207 C.ar    1  LIG1        0.0066
     46 C          -4.8633   10.1212   -1.3329 C.ar    1  LIG1        0.1306
     47 C          -4.8346    9.6481   -2.6074 C.ar    1  LIG1        0.0183
     48 S          -3.7512    8.3188   -2.7513 S.2     1  LIG1       -0.0920
     49 H          -5.4094   10.0045   -3.4489 H       1  LIG1        0.0730
     50 C          -3.9552    9.7222    1.0423 C.3     1  LIG1       -0.0351
     51 H          -4.8840   10.2055    1.3531 H       1  LIG1        0.0279
     52 H          -3.1167   10.3810    1.2843 H       1  LIG1        0.0279
     53 H          -3.8157    8.8111    1.6280 H       1  LIG1        0.0279
     54 O          -5.6832   11.1414   -0.9323 O.3     1  LIG1       -0.4943
     55 C          -5.0339   12.3982   -0.8190 C.3     1  LIG1        0.0788
     56 H          -5.7873   13.1126   -0.4849 H       1  LIG1        0.0660
     57 H          -4.2184   12.3679   -0.0872 H       1  LIG1        0.0660
     58 H          -4.6297   12.7208   -1.7856 H       1  LIG1        0.0660
@<TRIPOS>BOND
     1    49    47    1
     2    48    47   ar
     3    48    44   ar
     4    13    12    1
     5    47    46   ar
     6    14    12    1
     7    29    26    1
     8    28    26    1
     9    58    55    1
    10    12    15    1
    11    12    11    1
    12    27    26    1
    13    26    25    1
    14    46    54    1
    15    46    45   ar
    16    43    40    1
    17    44    33    1
    18    44    45   ar
    19    54    55    1
    20    55    56    1
    21    55    57    1
    22    34    33   ar
    23    34    30   ar
    24    11     3    1
    25    33    32   ar
    26     9     7    1
    27    45    50    1
    28    23    21    1
    29    42    40    1
    30    40    41    1
    31    40    39    1
    32    25    18    1
    33    30    19    1
    34    30    31   ar
    35    18    19   ar
    36    18    17   ar
    37    32    39    1
    38    32    31   ar
    39    19    20   ar
    40     8     7    1
    41     3     2   ar
    42     3     4   ar
    43    21    17    1
    44    21    22    1
    45    21    24    1
    46    17    16   ar
    47     7     2    1
    48     7    10    1
    49    31    35    1
    50    20    16   ar
    51    16     4    1
    52    50    52    1
    53    50    51    1
    54    50    53    1
    55    37    35    1
    56     2     1   ar
    57     4     5   ar
    58    35    36    1
    59    35    38    1
    60     1     5   ar
    61     1     6    1
