@<TRIPOS>MOLECULE
mol_data/opt/cam/geoms/mol2/5il5il-.out
 30 31 0 0 0
SMALL
GASTEIGER

@<TRIPOS>ATOM
      1 C          -2.2071   -1.9480    0.6029 C.ar    1  LIG1       -0.0172
      2 C          -0.8629   -2.1114    0.4824 C.ar    1  LIG1       -0.0011
      3 C          -0.2212   -0.8748    0.1452 C.ar    1  LIG1        0.1382
      4 C          -1.0727    0.1938    0.0301 C.ar    1  LIG1        0.0681
      5 S          -2.7101   -0.3215    0.3256 S.2     1  LIG1       -0.0921
      6 H          -2.9411   -2.7065    0.8361 H       1  LIG1        0.0697
      7 C          -0.1077   -3.3921    0.6598 C.3     1  LIG1       -0.0357
      8 H           0.6335   -3.3019    1.4587 H       1  LIG1        0.0279
      9 H           0.4375   -3.6591   -0.2502 H       1  LIG1        0.0279
     10 H          -0.7818   -4.2142    0.9071 H       1  LIG1        0.0279
     11 O           1.1357   -0.8316   -0.0214 O.3     1  LIG1       -0.4937
     12 C           1.5762   -0.5416   -1.3429 C.3     1  LIG1        0.0789
     13 H           2.6626   -0.6379   -1.3337 H       1  LIG1        0.0660
     14 H           1.1556   -1.2538   -2.0613 H       1  LIG1        0.0660
     15 H           1.3033    0.4742   -1.6432 H       1  LIG1        0.0660
     16 C          -0.7431    1.5856   -0.2450 C.ar    1  LIG1        0.0359
     17 C           0.2227    2.3517    0.3535 C.ar    1  LIG1        0.0066
     18 C           0.2405    3.6817   -0.1875 C.ar    1  LIG1        0.1306
     19 C          -0.6927    3.9039   -1.1513 C.ar    1  LIG1        0.0183
     20 S          -1.6253    2.4887   -1.4505 S.2     1  LIG1       -0.0920
     21 H          -0.8828    4.8290   -1.6744 H       1  LIG1        0.0730
     22 C           1.1144    1.9193    1.4754 C.3     1  LIG1       -0.0351
     23 H           1.4285    2.7906    2.0540 H       1  LIG1        0.0279
     24 H           2.0073    1.4016    1.1121 H       1  LIG1        0.0279
     25 H           0.5956    1.2216    2.1360 H       1  LIG1        0.0279
     26 O           1.0819    4.6546    0.2804 O.3     1  LIG1       -0.4943
     27 C           2.3891    4.6052   -0.2691 C.3     1  LIG1        0.0788
     28 H           2.9543    5.4180    0.1889 H       1  LIG1        0.0660
     29 H           2.8855    3.6533   -0.0470 H       1  LIG1        0.0660
     30 H           2.3650    4.7462   -1.3560 H       1  LIG1        0.0660
@<TRIPOS>BOND
     1    14    12    1
     2    21    19    1
     3    15    12    1
     4    20    19   ar
     5    20    16   ar
     6    30    27    1
     7    12    13    1
     8    12    11    1
     9    19    18   ar
    10    27    29    1
    11    27    28    1
    12    27    26    1
    13     9     7    1
    14    16     4    1
    15    16    17   ar
    16    18    26    1
    17    18    17   ar
    18    11     3    1
    19     4     3   ar
    20     4     5   ar
    21     3     2   ar
    22     5     1   ar
    23    17    22    1
    24     2     1   ar
    25     2     7    1
    26     1     6    1
    27     7    10    1
    28     7     8    1
    29    24    22    1
    30    22    23    1
    31    22    25    1
