@<TRIPOS>MOLECULE
mol_data/opt/cam/geoms/mol2/5il5il.out
 30 31 0 0 0
SMALL
GASTEIGER

@<TRIPOS>ATOM
      1 C          -2.3713   -1.8288    0.6038 C.ar    1  LIG1       -0.0172
      2 C          -1.0578   -2.1656    0.5135 C.ar    1  LIG1       -0.0011
      3 C          -0.2547   -1.0303    0.1626 C.ar    1  LIG1        0.1382
      4 C          -0.9601    0.1362    0.0096 C.ar    1  LIG1        0.0681
      5 S          -2.6565   -0.1590    0.2811 S.2     1  LIG1       -0.0921
      6 H          -3.2004   -2.4826    0.8354 H       1  LIG1        0.0697
      7 C          -0.4765   -3.5282    0.7296 C.3     1  LIG1       -0.0357
      8 H           0.2486   -3.5196    1.5482 H       1  LIG1        0.0279
      9 H           0.0553   -3.8752   -0.1609 H       1  LIG1        0.0279
     10 H          -1.2561   -4.2543    0.9681 H       1  LIG1        0.0279
     11 O           1.0956   -1.1834    0.0282 O.3     1  LIG1       -0.4937
     12 C           1.6413   -0.8474   -1.2423 C.3     1  LIG1        0.0789
     13 H           2.6819   -1.1738   -1.2237 H       1  LIG1        0.0660
     14 H           1.1108   -1.3701   -2.0454 H       1  LIG1        0.0660
     15 H           1.6015    0.2292   -1.4278 H       1  LIG1        0.0660
     16 C          -0.4605    1.4746   -0.2779 C.ar    1  LIG1        0.0359
     17 C           0.5733    2.1307    0.3330 C.ar    1  LIG1        0.0066
     18 C           0.7705    3.4357   -0.2331 C.ar    1  LIG1        0.1306
     19 C          -0.1031    3.7511   -1.2300 C.ar    1  LIG1        0.0183
     20 S          -1.1933    2.4435   -1.5297 S.2     1  LIG1       -0.0920
     21 H          -0.1774    4.6640   -1.7989 H       1  LIG1        0.0730
     22 C           1.4020    1.6135    1.4662 C.3     1  LIG1       -0.0351
     23 H           1.6800    2.4327    2.1325 H       1  LIG1        0.0279
     24 H           2.3271    1.1503    1.1090 H       1  LIG1        0.0279
     25 H           0.8577    0.8563    2.0321 H       1  LIG1        0.0279
     26 O           1.7618    4.2082    0.2751 O.3     1  LIG1       -0.4943
     27 C           1.8906    5.4995   -0.2794 C.3     1  LIG1        0.0788
     28 H           2.7175    5.9823    0.2407 H       1  LIG1        0.0660
     29 H           2.1148    5.4496   -1.3518 H       1  LIG1        0.0660
     30 H           0.9756    6.0861   -0.1339 H       1  LIG1        0.0660
@<TRIPOS>BOND
     1    14    12    1
     2    21    19    1
     3    20    19   ar
     4    20    16   ar
     5    15    12    1
     6    29    27    1
     7    12    13    1
     8    12    11    1
     9    19    18   ar
    10    27    30    1
    11    27    28    1
    12    27    26    1
    13    16     4    1
    14    16    17   ar
    15    18    26    1
    16    18    17   ar
    17     9     7    1
    18     4     3   ar
    19     4     5   ar
    20    11     3    1
    21     3     2   ar
    22     5     1   ar
    23    17    22    1
    24     2     1   ar
    25     2     7    1
    26     1     6    1
    27     7    10    1
    28     7     8    1
    29    24    22    1
    30    22    25    1
    31    22    23    1
