@<TRIPOS>MOLECULE
mol_data/opt/cam/geoms/mol2/5il5il5il-.out
 44 46 0 0 0
SMALL
GASTEIGER

@<TRIPOS>ATOM
      1 C          -1.9582   -2.0119    1.3468 C.ar    1  LIG1       -0.0172
      2 C          -0.7678   -2.1948    0.7163 C.ar    1  LIG1       -0.0011
      3 C          -0.2025   -0.9424    0.3089 C.ar    1  LIG1        0.1382
      4 C          -0.9538    0.1552    0.6429 C.ar    1  LIG1        0.0681
      5 S          -2.4039   -0.3500    1.4655 S.2     1  LIG1       -0.0921
      6 H          -2.6108   -2.7741    1.7489 H       1  LIG1        0.0697
      7 C          -0.0996   -3.5083    0.4510 C.3     1  LIG1       -0.0357
      8 H           0.8888   -3.5460    0.9173 H       1  LIG1        0.0279
      9 H           0.0488   -3.6673   -0.6211 H       1  LIG1        0.0279
     10 H          -0.6950   -4.3368    0.8389 H       1  LIG1        0.0279
     11 O           0.9971   -0.9123   -0.3473 O.3     1  LIG1       -0.4937
     12 C           0.9353   -0.4800   -1.7018 C.3     1  LIG1        0.0789
     13 H           1.9403   -0.5971   -2.1091 H       1  LIG1        0.0660
     14 H           0.2367   -1.0961   -2.2785 H       1  LIG1        0.0660
     15 H           0.6328    0.5688   -1.7751 H       1  LIG1        0.0660
     16 C          -0.6461    1.5613    0.4222 C.ar    1  LIG1        0.0365
     17 C           0.5254    2.2170    0.6987 C.ar    1  LIG1        0.0072
     18 C           0.4471    3.5988    0.3327 C.ar    1  LIG1        0.1388
     19 C          -0.7568    3.9908   -0.1906 C.ar    1  LIG1        0.0687
     20 S          -1.8388    2.6327   -0.2627 S.2     1  LIG1       -0.0831
     21 C           1.7402    1.6171    1.3349 C.3     1  LIG1       -0.0351
     22 H           2.3370    2.4011    1.8046 H       1  LIG1        0.0279
     23 H           2.3637    1.0937    0.6043 H       1  LIG1        0.0279
     24 H           1.4587    0.8801    2.0903 H       1  LIG1        0.0279
     25 O           1.4993    4.4540    0.5217 O.3     1  LIG1       -0.4937
     26 C           2.3610    4.5632   -0.6039 C.3     1  LIG1        0.0789
     27 H           3.1573    5.2540   -0.3239 H       1  LIG1        0.0660
     28 H           2.8003    3.5928   -0.8624 H       1  LIG1        0.0660
     29 H           1.8241    4.9575   -1.4732 H       1  LIG1        0.0660
     30 C          -1.1505    5.3214   -0.6319 C.ar    1  LIG1        0.0359
     31 C          -0.9968    6.5097    0.0324 C.ar    1  LIG1        0.0066
     32 C          -1.5195    7.6045   -0.7358 C.ar    1  LIG1        0.1306
     33 C          -2.0577    7.2418   -1.9307 C.ar    1  LIG1        0.0183
     34 S          -1.9367    5.5428   -2.1755 S.2     1  LIG1       -0.0920
     35 H          -2.5304    7.8867   -2.6560 H       1  LIG1        0.0730
     36 C          -0.4336    6.6833    1.4082 C.3     1  LIG1       -0.0351
     37 H          -0.8465    7.5852    1.8652 H       1  LIG1        0.0279
     38 H           0.6569    6.7640    1.3920 H       1  LIG1        0.0279
     39 H          -0.6740    5.8243    2.0382 H       1  LIG1        0.0279
     40 O          -1.5329    8.8911   -0.2691 O.3     1  LIG1       -0.4943
     41 C          -0.3038    9.5812   -0.4325 C.3     1  LIG1        0.0788
     42 H          -0.4458   10.5795   -0.0167 H       1  LIG1        0.0660
     43 H           0.5139    9.0831    0.1011 H       1  LIG1        0.0660
     44 H          -0.0364    9.6631   -1.4924 H       1  LIG1        0.0660
@<TRIPOS>BOND
     1    35    33    1
     2    14    12    1
     3    34    33   ar
     4    34    30   ar
     5    13    12    1
     6    33    32   ar
     7    15    12    1
     8    12    11    1
     9    44    41    1
    10    29    26    1
    11    28    26    1
    12    32    40    1
    13    32    31   ar
    14    30    19    1
    15    30    31   ar
    16     9     7    1
    17    26    27    1
    18    26    25    1
    19    41    40    1
    20    41    42    1
    21    41    43    1
    22    11     3    1
    23    20    19   ar
    24    20    16   ar
    25    19    18   ar
    26    31    36    1
    27     3     4   ar
    28     3     2   ar
    29    18    25    1
    30    18    17   ar
    31    16     4    1
    32    16    17   ar
    33     7     2    1
    34     7    10    1
    35     7     8    1
    36    23    21    1
    37     4     5   ar
    38    17    21    1
    39     2     1   ar
    40    21    22    1
    41    21    24    1
    42     1     5   ar
    43     1     6    1
    44    38    36    1
    45    36    37    1
    46    36    39    1
