@<TRIPOS>MOLECULE
mol_data/opt/cam/geoms/mol2/5il5il-5il-5il.out
 58 61 0 0 0
SMALL
GASTEIGER

@<TRIPOS>ATOM
      1 C          -1.2801   -1.9383    2.2627 C.ar    1  LIG1       -0.0172
      2 C          -0.5556   -2.1463    1.1313 C.ar    1  LIG1       -0.0011
      3 C          -0.1866   -0.9037    0.5198 C.ar    1  LIG1        0.1382
      4 C          -0.6182    0.2104    1.1932 C.ar    1  LIG1        0.0681
      5 S          -1.5169   -0.2652    2.6076 S.2     1  LIG1       -0.0921
      6 H          -1.7000   -2.6878    2.9188 H       1  LIG1        0.0697
      7 C          -0.1761   -3.4753    0.5552 C.3     1  LIG1       -0.0357
      8 H           0.9103   -3.5730    0.4791 H       1  LIG1        0.0279
      9 H          -0.5774   -3.5975   -0.4551 H       1  LIG1        0.0279
     10 H          -0.5530   -4.2927    1.1726 H       1  LIG1        0.0279
     11 O           0.5456   -0.8990   -0.6351 O.3     1  LIG1       -0.4937
     12 C          -0.1328   -0.3965   -1.7810 C.3     1  LIG1        0.0789
     13 H           0.5397   -0.5448   -2.6268 H       1  LIG1        0.0660
     14 H          -1.0637   -0.9462   -1.9574 H       1  LIG1        0.0660
     15 H          -0.3590    0.6688   -1.6782 H       1  LIG1        0.0660
     16 C          -0.3719    1.6098    0.8740 C.ar    1  LIG1        0.0365
     17 C           0.8251    2.1995    0.5603 C.ar    1  LIG1        0.0072
     18 C           0.6641    3.5978    0.3002 C.ar    1  LIG1        0.1388
     19 C          -0.6169    4.0661    0.4316 C.ar    1  LIG1        0.0687
     20 S          -1.6799    2.7622    0.8687 S.2     1  LIG1       -0.0831
     21 C           2.1573    1.5181    0.5209 C.3     1  LIG1       -0.0351
     22 H           2.9525    2.2518    0.6655 H       1  LIG1        0.0279
     23 H           2.3234    1.0066   -0.4317 H       1  LIG1        0.0279
     24 H           2.2263    0.7563    1.3004 H       1  LIG1        0.0279
     25 O           1.7255    4.3958   -0.0313 O.3     1  LIG1       -0.4937
     26 C           1.9597    4.4892   -1.4308 C.3     1  LIG1        0.0789
     27 H           2.8281    5.1362   -1.5613 H       1  LIG1        0.0660
     28 H           2.1752    3.5055   -1.8634 H       1  LIG1        0.0660
     29 H           1.0974    4.9265   -1.9451 H       1  LIG1        0.0660
     30 C          -1.0930    5.4307    0.2558 C.ar    1  LIG1        0.0365
     31 C          -0.5665    6.5815    0.7814 C.ar    1  LIG1        0.0072
     32 C          -1.3144    7.7302    0.3687 C.ar    1  LIG1        0.1388
     33 C          -2.3920    7.4622   -0.4337 C.ar    1  LIG1        0.0687
     34 S          -2.5034    5.7517   -0.7187 S.2     1  LIG1       -0.0831
     35 C           0.6077    6.6753    1.7045 C.3     1  LIG1       -0.0351
     36 H           0.5441    7.5934    2.2915 H       1  LIG1        0.0279
     37 H           1.5520    6.6740    1.1535 H       1  LIG1        0.0279
     38 H           0.6397    5.8191    2.3819 H       1  LIG1        0.0279
     39 O          -0.9766    8.9929    0.7759 O.3     1  LIG1       -0.4937
     40 C          -0.0921    9.6657   -0.1108 C.3     1  LIG1        0.0789
     41 H           0.1090   10.6435    0.3286 H       1  LIG1        0.0660
     42 H           0.8515    9.1189   -0.2205 H       1  LIG1        0.0660
     43 H          -0.5488    9.7956   -1.0976 H       1  LIG1        0.0660
     44 C          -3.3488    8.4068   -0.9928 C.ar    1  LIG1        0.0359
     45 C          -4.0175    9.4119   -0.3452 C.ar    1  LIG1        0.0066
     46 C          -4.8787   10.1257   -1.2456 C.ar    1  LIG1        0.1306
     47 C          -4.8616    9.6592   -2.5228 C.ar    1  LIG1        0.0183
     48 S          -3.7788    8.3314   -2.6838 S.2     1  LIG1       -0.0920
     49 H          -5.4444   10.0197   -3.3570 H       1  LIG1        0.0730
     50 C          -3.9482    9.7147    1.1189 C.3     1  LIG1       -0.0351
     51 H          -4.8743   10.1959    1.4409 H       1  LIG1        0.0279
     52 H          -3.1078   10.3728    1.3565 H       1  LIG1        0.0279
     53 H          -3.8028    8.8007    1.6985 H       1  LIG1        0.0279
     54 O          -5.6954   11.1432   -0.8320 O.3     1  LIG1       -0.4943
     55 C          -5.0458   12.3998   -0.7183 C.3     1  LIG1        0.0788
     56 H          -5.7965   13.1120   -0.3734 H       1  LIG1        0.0660
     57 H          -4.2235   12.3662    0.0057 H       1  LIG1        0.0660
     58 H          -4.6508   12.7277   -1.6869 H       1  LIG1        0.0660
@<TRIPOS>BOND
     1    49    47    1
     2    48    47   ar
     3    48    44   ar
     4    13    12    1
     5    47    46   ar
     6    14    12    1
     7    29    26    1
     8    28    26    1
     9    12    15    1
    10    12    11    1
    11    58    55    1
    12    27    26    1
    13    26    25    1
    14    46    54    1
    15    46    45   ar
    16    43    40    1
    17    44    33    1
    18    44    45   ar
    19    54    55    1
    20    34    33   ar
    21    34    30   ar
    22    55    56    1
    23    55    57    1
    24    11     3    1
    25     9     7    1
    26    33    32   ar
    27    23    21    1
    28    45    50    1
    29    42    40    1
    30    40    41    1
    31    40    39    1
    32    25    18    1
    33    30    19    1
    34    30    31   ar
    35    18    19   ar
    36    18    17   ar
    37    32    39    1
    38    32    31   ar
    39    19    20   ar
    40     8     7    1
    41     3     2   ar
    42     3     4   ar
    43    21    17    1
    44    21    22    1
    45    21    24    1
    46     7     2    1
    47     7    10    1
    48    17    16   ar
    49    31    35    1
    50    20    16   ar
    51    16     4    1
    52    50    52    1
    53    50    51    1
    54    50    53    1
    55     2     1   ar
    56    37    35    1
    57     4     5   ar
    58    35    36    1
    59    35    38    1
    60     1     5   ar
    61     1     6    1
