@<TRIPOS>MOLECULE
mol_data/opt/cam/geoms/mol2/5il5il-5il-5il-.out
 58 61 0 0 0
SMALL
GASTEIGER

@<TRIPOS>ATOM
      1 C          -1.2867   -1.9354    2.2653 C.ar    1  LIG1       -0.0172
      2 C          -0.5603   -2.1451    1.1354 C.ar    1  LIG1       -0.0011
      3 C          -0.1898   -0.9034    0.5230 C.ar    1  LIG1        0.1382
      4 C          -0.6221    0.2117    1.1942 C.ar    1  LIG1        0.0681
      5 S          -1.5234   -0.2618    2.6077 S.2     1  LIG1       -0.0921
      6 H          -1.7081   -2.6839    2.9216 H       1  LIG1        0.0697
      7 C          -0.1804   -3.4749    0.5616 C.3     1  LIG1       -0.0357
      8 H           0.9061   -3.5732    0.4876 H       1  LIG1        0.0279
      9 H          -0.5800   -3.5983   -0.4492 H       1  LIG1        0.0279
     10 H          -0.5587   -4.2915    1.1794 H       1  LIG1        0.0279
     11 O           0.5444   -0.9005   -0.6307 O.3     1  LIG1       -0.4937
     12 C          -0.1318   -0.3991   -1.7784 C.3     1  LIG1        0.0789
     13 H           0.5421   -0.5488   -2.6228 H       1  LIG1        0.0660
     14 H          -1.0626   -0.9486   -1.9557 H       1  LIG1        0.0660
     15 H          -0.3577    0.6664   -1.6773 H       1  LIG1        0.0660
     16 C          -0.3747    1.6106    0.8737 C.ar    1  LIG1        0.0365
     17 C           0.8231    2.1994    0.5613 C.ar    1  LIG1        0.0072
     18 C           0.6631    3.5974    0.2992 C.ar    1  LIG1        0.1388
     19 C          -0.6179    4.0664    0.4278 C.ar    1  LIG1        0.0687
     20 S          -1.6822    2.7635    0.8647 S.2     1  LIG1       -0.0831
     21 C           2.1550    1.5174    0.5250 C.3     1  LIG1       -0.0351
     22 H           2.9503    2.2509    0.6701 H       1  LIG1        0.0279
     23 H           2.3227    1.0046   -0.4266 H       1  LIG1        0.0279
     24 H           2.2225    0.7566    1.3057 H       1  LIG1        0.0279
     25 O           1.7254    4.3946   -0.0315 O.3     1  LIG1       -0.4937
     26 C           1.9621    4.4862   -1.4306 C.3     1  LIG1        0.0789
     27 H           2.8310    5.1326   -1.5604 H       1  LIG1        0.0660
     28 H           2.1780    3.5018   -1.8617 H       1  LIG1        0.0660
     29 H           1.1009    4.9232   -1.9470 H       1  LIG1        0.0660
     30 C          -1.0931    5.4310    0.2496 C.ar    1  LIG1        0.0365
     31 C          -0.5671    6.5822    0.7746 C.ar    1  LIG1        0.0072
     32 C          -1.3138    7.7308    0.3592 C.ar    1  LIG1        0.1388
     33 C          -2.3901    7.4622   -0.4447 C.ar    1  LIG1        0.0687
     34 S          -2.5017    5.7514   -0.7279 S.2     1  LIG1       -0.0831
     35 C           0.6055    6.6767    1.6997 C.3     1  LIG1       -0.0351
     36 H           0.5414    7.5958    2.2852 H       1  LIG1        0.0279
     37 H           1.5508    6.6740    1.1503 H       1  LIG1        0.0279
     38 H           0.6359    5.8215    2.3783 H       1  LIG1        0.0279
     39 O          -0.9762    8.9938    0.7654 O.3     1  LIG1       -0.4937
     40 C          -0.0899    9.6652   -0.1206 C.3     1  LIG1        0.0789
     41 H           0.1108   10.6435    0.3180 H       1  LIG1        0.0660
     42 H           0.8537    9.1179   -0.2281 H       1  LIG1        0.0660
     43 H          -0.5449    9.7940   -1.1084 H       1  LIG1        0.0660
     44 C          -3.3455    8.4065   -1.0067 C.ar    1  LIG1        0.0359
     45 C          -4.0150    9.4126   -0.3615 C.ar    1  LIG1        0.0066
     46 C          -4.8743   10.1257   -1.2643 C.ar    1  LIG1        0.1306
     47 C          -4.8552    9.6576   -2.5409 C.ar    1  LIG1        0.0183
     48 S          -3.7727    8.3292   -2.6983 S.2     1  LIG1       -0.0920
     49 H          -5.4364   10.0173   -3.3765 H       1  LIG1        0.0730
     50 C          -3.9481    9.7173    1.1023 C.3     1  LIG1       -0.0351
     51 H          -4.8745   10.1992    1.4221 H       1  LIG1        0.0279
     52 H          -3.1079   10.3753    1.3406 H       1  LIG1        0.0279
     53 H          -3.8041    8.8039    1.6833 H       1  LIG1        0.0279
     54 O          -5.6913   11.1441   -0.8534 O.3     1  LIG1       -0.4943
     55 C          -5.0414   12.4005   -0.7400 C.3     1  LIG1        0.0788
     56 H          -5.7924   13.1134   -0.3973 H       1  LIG1        0.0660
     57 H          -4.2204   12.3675   -0.0145 H       1  LIG1        0.0660
     58 H          -4.6446   12.7271   -1.7083 H       1  LIG1        0.0660
@<TRIPOS>BOND
     1    49    47    1
     2    48    47   ar
     3    48    44   ar
     4    13    12    1
     5    47    46   ar
     6    14    12    1
     7    29    26    1
     8    28    26    1
     9    12    15    1
    10    12    11    1
    11    58    55    1
    12    27    26    1
    13    26    25    1
    14    46    54    1
    15    46    45   ar
    16    43    40    1
    17    44    33    1
    18    44    45   ar
    19    54    55    1
    20    55    56    1
    21    55    57    1
    22    34    33   ar
    23    34    30   ar
    24    11     3    1
    25     9     7    1
    26    33    32   ar
    27    23    21    1
    28    45    50    1
    29    42    40    1
    30    40    41    1
    31    40    39    1
    32    25    18    1
    33    30    19    1
    34    30    31   ar
    35    18    19   ar
    36    18    17   ar
    37    32    39    1
    38    32    31   ar
    39    19    20   ar
    40     8     7    1
    41     3     2   ar
    42     3     4   ar
    43    21    17    1
    44    21    22    1
    45    21    24    1
    46    17    16   ar
    47     7     2    1
    48     7    10    1
    49    31    35    1
    50    20    16   ar
    51    16     4    1
    52    50    52    1
    53    50    51    1
    54    50    53    1
    55     2     1   ar
    56    37    35    1
    57     4     5   ar
    58    35    36    1
    59    35    38    1
    60     1     5   ar
    61     1     6    1
