@<TRIPOS>MOLECULE
mol_data/opt/cam/geoms/mol2/5il5il-5il-.out
 44 46 0 0 0
SMALL
GASTEIGER

@<TRIPOS>ATOM
      1 C          -1.9208   -2.0186    1.3803 C.ar    1  LIG1       -0.0172
      2 C          -0.7458   -2.1981    0.7204 C.ar    1  LIG1       -0.0011
      3 C          -0.1917   -0.9437    0.3039 C.ar    1  LIG1        0.1382
      4 C          -0.9356    0.1520    0.6600 C.ar    1  LIG1        0.0681
      5 S          -2.3649   -0.3576    1.5157 S.2     1  LIG1       -0.0921
      6 H          -2.5627   -2.7829    1.7953 H       1  LIG1        0.0697
      7 C          -0.0831   -3.5100    0.4342 C.3     1  LIG1       -0.0357
      8 H           0.9163   -3.5485    0.8762 H       1  LIG1        0.0279
      9 H           0.0393   -3.6650   -0.6418 H       1  LIG1        0.0279
     10 H          -0.6683   -4.3405    0.8334 H       1  LIG1        0.0279
     11 O           0.9916   -0.9101   -0.3812 O.3     1  LIG1       -0.4937
     12 C           0.8965   -0.4730   -1.7322 C.3     1  LIG1        0.0789
     13 H           1.8914   -0.5877   -2.1642 H       1  LIG1        0.0660
     14 H           0.1846   -1.0876   -2.2939 H       1  LIG1        0.0660
     15 H           0.5915    0.5758   -1.7942 H       1  LIG1        0.0660
     16 C          -0.6346    1.5592    0.4370 C.ar    1  LIG1        0.0365
     17 C           0.5427    2.2150    0.6873 C.ar    1  LIG1        0.0072
     18 C           0.4544    3.5980    0.3283 C.ar    1  LIG1        0.1388
     19 C          -0.7623    3.9907   -0.1641 C.ar    1  LIG1        0.0687
     20 S          -1.8445    2.6319   -0.2149 S.2     1  LIG1       -0.0831
     21 C           1.7732    1.6139    1.2916 C.3     1  LIG1       -0.0351
     22 H           2.3805    2.3968    1.7497 H       1  LIG1        0.0279
     23 H           2.3792    1.0939    0.5442 H       1  LIG1        0.0279
     24 H           1.5108    0.8739    2.0508 H       1  LIG1        0.0279
     25 O           1.5101    4.4536    0.4948 O.3     1  LIG1       -0.4937
     26 C           2.3441    4.5676   -0.6510 C.3     1  LIG1        0.0789
     27 H           3.1465    5.2581   -0.3880 H       1  LIG1        0.0660
     28 H           2.7779    3.5985   -0.9236 H       1  LIG1        0.0660
     29 H           1.7860    4.9644   -1.5055 H       1  LIG1        0.0660
     30 C          -1.1677    5.3225   -0.5908 C.ar    1  LIG1        0.0359
     31 C          -0.9989    6.5086    0.0738 C.ar    1  LIG1        0.0066
     32 C          -1.5411    7.6056   -0.6774 C.ar    1  LIG1        0.1306
     33 C          -2.1079    7.2467   -1.8603 C.ar    1  LIG1        0.0183
     34 S          -1.9914    5.5488   -2.1141 S.2     1  LIG1       -0.0920
     35 H          -2.5986    7.8938   -2.5715 H       1  LIG1        0.0730
     36 C          -0.4025    6.6778    1.4361 C.3     1  LIG1       -0.0351
     37 H          -0.8049    7.5777    1.9062 H       1  LIG1        0.0279
     38 H           0.6872    6.7595    1.3937 H       1  LIG1        0.0279
     39 H          -0.6268    5.8163    2.0686 H       1  LIG1        0.0279
     40 O          -1.5443    8.8906   -0.2059 O.3     1  LIG1       -0.4943
     41 C          -0.3201    9.5824   -0.3967 C.3     1  LIG1        0.0788
     42 H          -0.4527   10.5791    0.0261 H       1  LIG1        0.0660
     43 H           0.5109    9.0831    0.1151 H       1  LIG1        0.0660
     44 H          -0.0785    9.6683   -1.4625 H       1  LIG1        0.0660
@<TRIPOS>BOND
     1    35    33    1
     2    14    12    1
     3    13    12    1
     4    34    33   ar
     5    34    30   ar
     6    33    32   ar
     7    15    12    1
     8    12    11    1
     9    29    26    1
    10    44    41    1
    11    28    26    1
    12    32    40    1
    13    32    31   ar
    14    26    27    1
    15    26    25    1
    16     9     7    1
    17    30    19    1
    18    30    31   ar
    19    41    40    1
    20    41    42    1
    21    41    43    1
    22    11     3    1
    23    20    19   ar
    24    20    16   ar
    25    19    18   ar
    26    31    36    1
    27     3     4   ar
    28     3     2   ar
    29    18    25    1
    30    18    17   ar
    31     7     2    1
    32     7    10    1
    33     7     8    1
    34    16     4    1
    35    16    17   ar
    36    23    21    1
    37     4     5   ar
    38    17    21    1
    39     2     1   ar
    40    21    22    1
    41    21    24    1
    42     1     5   ar
    43     1     6    1
    44    38    36    1
    45    36    37    1
    46    36    39    1
