@<TRIPOS>MOLECULE
mol_data/opt/cam/geoms/mol2/5il5il-5il.out
 44 46 0 0 0
SMALL
GASTEIGER

@<TRIPOS>ATOM
      1 C          -1.9128   -2.0150    1.3968 C.ar    1  LIG1       -0.0172
      2 C          -0.7388   -2.1959    0.7355 C.ar    1  LIG1       -0.0011
      3 C          -0.1868   -0.9426    0.3130 C.ar    1  LIG1        0.1382
      4 C          -0.9313    0.1536    0.6660 C.ar    1  LIG1        0.0681
      5 S          -2.3585   -0.3540    1.5263 S.2     1  LIG1       -0.0921
      6 H          -2.5532   -2.7784    1.8160 H       1  LIG1        0.0697
      7 C          -0.0752   -3.5082    0.4535 C.3     1  LIG1       -0.0357
      8 H           0.9250   -3.5438    0.8939 H       1  LIG1        0.0279
      9 H           0.0455   -3.6675   -0.6221 H       1  LIG1        0.0279
     10 H          -0.6587   -4.3377    0.8572 H       1  LIG1        0.0279
     11 O           0.9952   -0.9106   -0.3743 O.3     1  LIG1       -0.4937
     12 C           0.8973   -0.4791   -1.7269 C.3     1  LIG1        0.0789
     13 H           1.8916   -0.5944   -2.1602 H       1  LIG1        0.0660
     14 H           0.1852   -1.0969   -2.2849 H       1  LIG1        0.0660
     15 H           0.5909    0.5690   -1.7928 H       1  LIG1        0.0660
     16 C          -0.6322    1.5603    0.4367 C.ar    1  LIG1        0.0365
     17 C           0.5448    2.2184    0.6823 C.ar    1  LIG1        0.0072
     18 C           0.4544    3.5999    0.3178 C.ar    1  LIG1        0.1388
     19 C          -0.7636    3.9892   -0.1741 C.ar    1  LIG1        0.0687
     20 S          -1.8444    2.6290   -0.2174 S.2     1  LIG1       -0.0831
     21 C           1.7770    1.6211    1.2869 C.3     1  LIG1       -0.0351
     22 H           2.3843    2.4065    1.7406 H       1  LIG1        0.0279
     23 H           2.3822    1.0986    0.5405 H       1  LIG1        0.0279
     24 H           1.5168    0.8840    2.0497 H       1  LIG1        0.0279
     25 O           1.5094    4.4572    0.4790 O.3     1  LIG1       -0.4937
     26 C           2.3413    4.5675   -0.6687 C.3     1  LIG1        0.0789
     27 H           3.1433    5.2600   -0.4099 H       1  LIG1        0.0660
     28 H           2.7756    3.5978   -0.9381 H       1  LIG1        0.0660
     29 H           1.7812    4.9603   -1.5239 H       1  LIG1        0.0660
     30 C          -1.1712    5.3188   -0.6055 C.ar    1  LIG1        0.0359
     31 C          -1.0026    6.5077    0.0540 C.ar    1  LIG1        0.0066
     32 C          -1.5472    7.6011   -0.7008 C.ar    1  LIG1        0.1306
     33 C          -2.1157    7.2368   -1.8811 C.ar    1  LIG1        0.0183
     34 S          -1.9978    5.5380   -2.1283 S.2     1  LIG1       -0.0920
     35 H          -2.6084    7.8804   -2.5942 H       1  LIG1        0.0730
     36 C          -0.4040    6.6832    1.4146 C.3     1  LIG1       -0.0351
     37 H          -0.8067    7.5845    1.8818 H       1  LIG1        0.0279
     38 H           0.6855    6.7660    1.3699 H       1  LIG1        0.0279
     39 H          -0.6262    5.8240    2.0510 H       1  LIG1        0.0279
     40 O          -1.5511    8.8880   -0.2345 O.3     1  LIG1       -0.4943
     41 C          -0.3280    9.5804   -0.4301 C.3     1  LIG1        0.0788
     42 H          -0.4610   10.5786   -0.0112 H       1  LIG1        0.0660
     43 H           0.5044    9.0841    0.0823 H       1  LIG1        0.0660
     44 H          -0.0883    9.6622   -1.4967 H       1  LIG1        0.0660
@<TRIPOS>BOND
     1    35    33    1
     2    14    12    1
     3    13    12    1
     4    34    33   ar
     5    34    30   ar
     6    33    32   ar
     7    15    12    1
     8    12    11    1
     9    29    26    1
    10    44    41    1
    11    28    26    1
    12    32    40    1
    13    32    31   ar
    14    26    27    1
    15    26    25    1
    16     9     7    1
    17    30    19    1
    18    30    31   ar
    19    41    40    1
    20    41    42    1
    21    41    43    1
    22    11     3    1
    23    20    19   ar
    24    20    16   ar
    25    19    18   ar
    26    31    36    1
    27     3     4   ar
    28     3     2   ar
    29    18    25    1
    30    18    17   ar
    31    16     4    1
    32    16    17   ar
    33     7     2    1
    34     7    10    1
    35     7     8    1
    36    23    21    1
    37     4     5   ar
    38    17    21    1
    39     2     1   ar
    40    21    22    1
    41    21    24    1
    42    38    36    1
    43     1     5   ar
    44     1     6    1
    45    36    37    1
    46    36    39    1
