@<TRIPOS>MOLECULE
mol_data/opt/cam/geoms/mol2/5il5il-5il5il-.out
 58 61 0 0 0
SMALL
GASTEIGER

@<TRIPOS>ATOM
      1 C          -1.2588   -1.9340    2.2757 C.ar    1  LIG1       -0.0172
      2 C          -0.5459   -2.1443    1.1374 C.ar    1  LIG1       -0.0011
      3 C          -0.1828   -0.9029    0.5198 C.ar    1  LIG1        0.1382
      4 C          -0.6073    0.2126    1.1954 C.ar    1  LIG1        0.0681
      5 S          -1.4916   -0.2601    2.6198 S.2     1  LIG1       -0.0921
      6 H          -1.6722   -2.6821    2.9374 H       1  LIG1        0.0697
      7 C          -0.1726   -3.4744    0.5600 C.3     1  LIG1       -0.0357
      8 H           0.9130   -3.5726    0.4731 H       1  LIG1        0.0279
      9 H          -0.5841   -3.5985   -0.4460 H       1  LIG1        0.0279
     10 H          -0.5434   -4.2906    1.1827 H       1  LIG1        0.0279
     11 O           0.5377   -0.9007   -0.6425 O.3     1  LIG1       -0.4937
     12 C          -0.1522   -0.4001   -1.7824 C.3     1  LIG1        0.0789
     13 H           0.5116   -0.5502   -2.6347 H       1  LIG1        0.0660
     14 H          -1.0850   -0.9498   -1.9483 H       1  LIG1        0.0660
     15 H          -0.3771    0.6654   -1.6793 H       1  LIG1        0.0660
     16 C          -0.3639    1.6112    0.8710 C.ar    1  LIG1        0.0365
     17 C           0.8300    2.2000    0.5441 C.ar    1  LIG1        0.0072
     18 C           0.6667    3.5979    0.2830 C.ar    1  LIG1        0.1388
     19 C          -0.6128    4.0668    0.4265 C.ar    1  LIG1        0.0687
     20 S          -1.6716    2.7640    0.8769 S.2     1  LIG1       -0.0831
     21 C           2.1615    1.5182    0.4924 C.3     1  LIG1       -0.0351
     22 H           2.9584    2.2520    0.6276 H       1  LIG1        0.0279
     23 H           2.3179    1.0049   -0.4608 H       1  LIG1        0.0279
     24 H           2.2383    0.7579    1.2727 H       1  LIG1        0.0279
     25 O           1.7249    4.3950   -0.0608 O.3     1  LIG1       -0.4937
     26 C           1.9450    4.4857   -1.4627 C.3     1  LIG1        0.0789
     27 H           2.8121    5.1321   -1.6033 H       1  LIG1        0.0660
     28 H           2.1559    3.5010   -1.8956 H       1  LIG1        0.0660
     29 H           1.0776    4.9221   -1.9692 H       1  LIG1        0.0660
     30 C          -1.0903    5.4312    0.2530 C.ar    1  LIG1        0.0365
     31 C          -0.5583    6.5828    0.7710 C.ar    1  LIG1        0.0072
     32 C          -1.3100    7.7310    0.3638 C.ar    1  LIG1        0.1388
     33 C          -2.3957    7.4617   -0.4271 C.ar    1  LIG1        0.0687
     34 S          -2.5105    5.7507   -0.7077 S.2     1  LIG1       -0.0831
     35 C           0.6253    6.6780    1.6820 C.3     1  LIG1       -0.0351
     36 H           0.5679    7.5974    2.2678 H       1  LIG1        0.0279
     37 H           1.5639    6.6754    1.1214 H       1  LIG1        0.0279
     38 H           0.6640    5.8232    2.3606 H       1  LIG1        0.0279
     39 O          -0.9678    8.9943    0.7651 O.3     1  LIG1       -0.4937
     40 C          -0.0921    9.6652   -0.1318 C.3     1  LIG1        0.0789
     41 H           0.1137   10.6438    0.3037 H       1  LIG1        0.0660
     42 H           0.8501    9.1180   -0.2501 H       1  LIG1        0.0660
     43 H          -0.5589    9.7934   -1.1142 H       1  LIG1        0.0660
     44 C          -3.3580    8.4055   -0.9782 C.ar    1  LIG1        0.0359
     45 C          -4.0198    9.4120   -0.3258 C.ar    1  LIG1        0.0066
     46 C          -4.8899   10.1243   -1.2188 C.ar    1  LIG1        0.1306
     47 C          -4.8860    9.6554   -2.4952 C.ar    1  LIG1        0.0183
     48 S          -3.8052    8.3270   -2.6647 S.2     1  LIG1       -0.0920
     49 H          -5.4772   10.0144   -3.3241 H       1  LIG1        0.0730
     50 C          -3.9356    9.7176    1.1369 C.3     1  LIG1       -0.0351
     51 H          -4.8582   10.1996    1.4674 H       1  LIG1        0.0279
     52 H          -3.0927   10.3759    1.3647 H       1  LIG1        0.0279
     53 H          -3.7845    8.8047    1.7167 H       1  LIG1        0.0279
     54 O          -5.7021   11.1429   -0.7989 O.3     1  LIG1       -0.4943
     55 C          -5.0511   12.3994   -0.6941 C.3     1  LIG1        0.0788
     56 H          -5.7980   13.1125   -0.3430 H       1  LIG1        0.0660
     57 H          -4.2215   12.3670    0.0217 H       1  LIG1        0.0660
     58 H          -4.6659   12.7254   -1.6672 H       1  LIG1        0.0660
@<TRIPOS>BOND
     1    49    47    1
     2    48    47   ar
     3    48    44   ar
     4    13    12    1
     5    47    46   ar
     6    29    26    1
     7    14    12    1
     8    28    26    1
     9    12    15    1
    10    12    11    1
    11    58    55    1
    12    27    26    1
    13    26    25    1
    14    46    54    1
    15    46    45   ar
    16    43    40    1
    17    44    33    1
    18    44    45   ar
    19    54    55    1
    20    34    33   ar
    21    34    30   ar
    22    55    56    1
    23    55    57    1
    24    11     3    1
    25    23    21    1
    26     9     7    1
    27    33    32   ar
    28    45    50    1
    29    42    40    1
    30    40    41    1
    31    40    39    1
    32    25    18    1
    33    30    19    1
    34    30    31   ar
    35    18    19   ar
    36    18    17   ar
    37    32    39    1
    38    32    31   ar
    39    19    20   ar
    40     8     7    1
    41    21    17    1
    42    21    22    1
    43    21    24    1
    44     3     2   ar
    45     3     4   ar
    46    17    16   ar
    47     7     2    1
    48     7    10    1
    49    31    35    1
    50    16    20   ar
    51    16     4    1
    52    37    35    1
    53    50    52    1
    54    50    51    1
    55    50    53    1
    56     2     1   ar
    57     4     5   ar
    58    35    36    1
    59    35    38    1
    60     1     5   ar
    61     1     6    1
