@<TRIPOS>MOLECULE
mol_data/opt/cam/geoms/mol2/5il5il5il5il-.out
 58 61 0 0 0
SMALL
GASTEIGER

@<TRIPOS>ATOM
      1 C          -1.2855   -1.9229    2.2874 C.ar    1  LIG1       -0.0172
      2 C          -0.5596   -2.1387    1.1584 C.ar    1  LIG1       -0.0011
      3 C          -0.1893   -0.9004    0.5390 C.ar    1  LIG1        0.1382
      4 C          -0.6214    0.2184    1.2043 C.ar    1  LIG1        0.0681
      5 S          -1.5222   -0.2474    2.6207 S.2     1  LIG1       -0.0921
      6 H          -1.7066   -2.6677    2.9480 H       1  LIG1        0.0697
      7 C          -0.1798   -3.4717    0.5918 C.3     1  LIG1       -0.0357
      8 H           0.9066   -3.5704    0.5179 H       1  LIG1        0.0279
      9 H          -0.5798   -3.6006   -0.4182 H       1  LIG1        0.0279
     10 H          -0.5579   -4.2848    1.2142 H       1  LIG1        0.0279
     11 O           0.5445   -0.9038   -0.6149 O.3     1  LIG1       -0.4937
     12 C          -0.1321   -0.4087   -1.7650 C.3     1  LIG1        0.0789
     13 H           0.5414   -0.5630   -2.6089 H       1  LIG1        0.0660
     14 H          -1.0631   -0.9591   -1.9390 H       1  LIG1        0.0660
     15 H          -0.3580    0.6573   -1.6697 H       1  LIG1        0.0660
     16 C          -0.3742    1.6154    0.8760 C.ar    1  LIG1        0.0365
     17 C           0.8235    2.2026    0.5600 C.ar    1  LIG1        0.0072
     18 C           0.6634    3.5991    0.2903 C.ar    1  LIG1        0.1388
     19 C          -0.6176    4.0688    0.4168 C.ar    1  LIG1        0.0687
     20 S          -1.6817    2.7683    0.8613 S.2     1  LIG1       -0.0831
     21 C           2.1554    1.5204    0.5269 C.3     1  LIG1       -0.0351
     22 H           2.9508    2.2548    0.6677 H       1  LIG1        0.0279
     23 H           2.3227    1.0024   -0.4219 H       1  LIG1        0.0279
     24 H           2.2232    0.7639    1.3117 H       1  LIG1        0.0279
     25 O           1.7255    4.3946   -0.0452 O.3     1  LIG1       -0.4937
     26 C           1.9618    4.4783   -1.4449 C.3     1  LIG1        0.0789
     27 H           2.8306    5.1240   -1.5786 H       1  LIG1        0.0660
     28 H           2.1776    3.4915   -1.8705 H       1  LIG1        0.0660
     29 H           1.1004    4.9123   -1.9634 H       1  LIG1        0.0660
     30 C          -1.0929    5.4323    0.2312 C.ar    1  LIG1        0.0365
     31 C          -0.5668    6.5865    0.7497 C.ar    1  LIG1        0.0072
     32 C          -1.3136    7.7327    0.3283 C.ar    1  LIG1        0.1388
     33 C          -2.3902    7.4597   -0.4736 C.ar    1  LIG1        0.0687
     34 S          -2.5020    5.7474   -0.7473 S.2     1  LIG1       -0.0831
     35 C           0.6063    6.6860    1.6738 C.3     1  LIG1       -0.0351
     36 H           0.5423    7.6083    2.2544 H       1  LIG1        0.0279
     37 H           1.5513    6.6805    1.1240 H       1  LIG1        0.0279
     38 H           0.6370    5.8345    2.3570 H       1  LIG1        0.0279
     39 O          -0.9759    8.9979    0.7275 O.3     1  LIG1       -0.4937
     40 C          -0.0899    9.6644   -0.1625 C.3     1  LIG1        0.0789
     41 H           0.1110   10.6451    0.2706 H       1  LIG1        0.0660
     42 H           0.8536    9.1165   -0.2673 H       1  LIG1        0.0660
     43 H          -0.5453    9.7878   -1.1508 H       1  LIG1        0.0660
     44 C          -3.3460    8.4008   -1.0404 C.ar    1  LIG1        0.0359
     45 C          -4.0152    9.4105   -0.4005 C.ar    1  LIG1        0.0066
     46 C          -4.8749   10.1185   -1.3069 C.ar    1  LIG1        0.1306
     47 C          -4.8563    9.6435   -2.5809 C.ar    1  LIG1        0.0183
     48 S          -3.7738    8.3142   -2.7314 S.2     1  LIG1       -0.0920
     49 H          -5.4379    9.9985   -3.4182 H       1  LIG1        0.0730
     50 C          -3.9477    9.7232    1.0616 C.3     1  LIG1       -0.0351
     51 H          -4.8740   10.2069    1.3791 H       1  LIG1        0.0279
     52 H          -3.1074   10.3825    1.2959 H       1  LIG1        0.0279
     53 H          -3.8035    8.8130    1.6475 H       1  LIG1        0.0279
     54 O          -5.6917   11.1392   -0.9012 O.3     1  LIG1       -0.4943
     55 C          -5.0418   12.3962   -0.7950 C.3     1  LIG1        0.0788
     56 H          -5.7926   13.1110   -0.4560 H       1  LIG1        0.0660
     57 H          -4.2205   12.3672   -0.0697 H       1  LIG1        0.0660
     58 H          -4.6454   12.7175   -1.7653 H       1  LIG1        0.0660
@<TRIPOS>BOND
     1    49    47    1
     2    48    47   ar
     3    48    44   ar
     4    13    12    1
     5    47    46   ar
     6    29    26    1
     7    14    12    1
     8    28    26    1
     9    58    55    1
    10    12    15    1
    11    12    11    1
    12    27    26    1
    13    26    25    1
    14    46    54    1
    15    46    45   ar
    16    43    40    1
    17    44    33    1
    18    44    45   ar
    19    54    55    1
    20    55    56    1
    21    55    57    1
    22    34    33   ar
    23    34    30   ar
    24    11     3    1
    25    33    32   ar
    26    23    21    1
    27     9     7    1
    28    45    50    1
    29    42    40    1
    30    40    41    1
    31    40    39    1
    32    25    18    1
    33    30    19    1
    34    30    31   ar
    35    18    19   ar
    36    18    17   ar
    37    32    39    1
    38    32    31   ar
    39    19    20   ar
    40     8     7    1
    41    21    17    1
    42    21    22    1
    43    21    24    1
    44     3     2   ar
    45     3     4   ar
    46    17    16   ar
    47     7     2    1
    48     7    10    1
    49    31    35    1
    50    20    16   ar
    51    16     4    1
    52    50    52    1
    53    50    51    1
    54    50    53    1
    55    37    35    1
    56     2     1   ar
    57     4     5   ar
    58    35    36    1
    59    35    38    1
    60     1     5   ar
    61     1     6    1
