@<TRIPOS>MOLECULE
mol_data/opt/cam/geoms/mol2/5il5il-5il5il.out
 58 61 0 0 0
SMALL
GASTEIGER

@<TRIPOS>ATOM
      1 C          -1.2538   -1.9339    2.2818 C.ar    1  LIG1       -0.0172
      2 C          -0.5413   -2.1439    1.1432 C.ar    1  LIG1       -0.0011
      3 C          -0.1792   -0.9024    0.5253 C.ar    1  LIG1        0.1382
      4 C          -0.6040    0.2129    1.2011 C.ar    1  LIG1        0.0681
      5 S          -1.4874   -0.2602    2.6259 S.2     1  LIG1       -0.0921
      6 H          -1.6665   -2.6822    2.9438 H       1  LIG1        0.0697
      7 C          -0.1676   -3.4739    0.5657 C.3     1  LIG1       -0.0357
      8 H           0.9179   -3.5714    0.4782 H       1  LIG1        0.0279
      9 H          -0.5797   -3.5983   -0.4400 H       1  LIG1        0.0279
     10 H          -0.5376   -4.2902    1.1887 H       1  LIG1        0.0279
     11 O           0.5406   -0.8998   -0.6373 O.3     1  LIG1       -0.4937
     12 C          -0.1502   -0.3999   -1.7769 C.3     1  LIG1        0.0789
     13 H           0.5133   -0.5495   -2.6296 H       1  LIG1        0.0660
     14 H          -1.0826   -0.9505   -1.9424 H       1  LIG1        0.0660
     15 H          -0.3760    0.6654   -1.6738 H       1  LIG1        0.0660
     16 C          -0.3616    1.6117    0.8765 C.ar    1  LIG1        0.0365
     17 C           0.8318    2.2011    0.5488 C.ar    1  LIG1        0.0072
     18 C           0.6676    3.5989    0.2877 C.ar    1  LIG1        0.1388
     19 C          -0.6121    4.0671    0.4319 C.ar    1  LIG1        0.0687
     20 S          -1.6699    2.7637    0.8829 S.2     1  LIG1       -0.0831
     21 C           2.1637    1.5201    0.4966 C.3     1  LIG1       -0.0351
     22 H           2.9602    2.2543    0.6314 H       1  LIG1        0.0279
     23 H           2.3199    1.0068   -0.4567 H       1  LIG1        0.0279
     24 H           2.2413    0.7599    1.2768 H       1  LIG1        0.0279
     25 O           1.7251    4.3966   -0.0567 O.3     1  LIG1       -0.4937
     26 C           1.9445    4.4872   -1.4587 C.3     1  LIG1        0.0789
     27 H           2.8112    5.1341   -1.5998 H       1  LIG1        0.0660
     28 H           2.1558    3.5026   -1.8916 H       1  LIG1        0.0660
     29 H           1.0766    4.9231   -1.9648 H       1  LIG1        0.0660
     30 C          -1.0905    5.4312    0.2585 C.ar    1  LIG1        0.0365
     31 C          -0.5588    6.5832    0.7761 C.ar    1  LIG1        0.0072
     32 C          -1.3114    7.7308    0.3692 C.ar    1  LIG1        0.1388
     33 C          -2.3974    7.4609   -0.4211 C.ar    1  LIG1        0.0687
     34 S          -2.5114    5.7498   -0.7015 S.2     1  LIG1       -0.0831
     35 C           0.6252    6.6792    1.6865 C.3     1  LIG1       -0.0351
     36 H           0.5676    7.5986    2.2721 H       1  LIG1        0.0279
     37 H           1.5635    6.6769    1.1253 H       1  LIG1        0.0279
     38 H           0.6646    5.8244    2.3652 H       1  LIG1        0.0279
     39 O          -0.9697    8.9944    0.7702 O.3     1  LIG1       -0.4937
     40 C          -0.0950    9.6658   -0.1273 C.3     1  LIG1        0.0789
     41 H           0.1104   10.6446    0.3080 H       1  LIG1        0.0660
     42 H           0.8475    9.1191   -0.2460 H       1  LIG1        0.0660
     43 H          -0.5624    9.7935   -1.1094 H       1  LIG1        0.0660
     44 C          -3.3605    8.4040   -0.9718 C.ar    1  LIG1        0.0359
     45 C          -4.0226    9.4102   -0.3191 C.ar    1  LIG1        0.0066
     46 C          -4.8936   10.1220   -1.2118 C.ar    1  LIG1        0.1306
     47 C          -4.8901    9.6529   -2.4881 C.ar    1  LIG1        0.0183
     48 S          -3.8086    8.3251   -2.6580 S.2     1  LIG1       -0.0920
     49 H          -5.4819   10.0115   -3.3167 H       1  LIG1        0.0730
     50 C          -3.9378    9.7161    1.1435 C.3     1  LIG1       -0.0351
     51 H          -4.8604   10.1977    1.4744 H       1  LIG1        0.0279
     52 H          -3.0950   10.3748    1.3708 H       1  LIG1        0.0279
     53 H          -3.7859    8.8032    1.7233 H       1  LIG1        0.0279
     54 O          -5.7062   11.1401   -0.7915 O.3     1  LIG1       -0.4943
     55 C          -5.0558   12.3970   -0.6871 C.3     1  LIG1        0.0788
     56 H          -5.8030   13.1097   -0.3356 H       1  LIG1        0.0660
     57 H          -4.2258   12.3651    0.0282 H       1  LIG1        0.0660
     58 H          -4.6713   12.7232   -1.6605 H       1  LIG1        0.0660
@<TRIPOS>BOND
     1    49    47    1
     2    48    47   ar
     3    48    44   ar
     4    13    12    1
     5    47    46   ar
     6    29    26    1
     7    14    12    1
     8    28    26    1
     9    12    15    1
    10    12    11    1
    11    58    55    1
    12    27    26    1
    13    26    25    1
    14    46    54    1
    15    46    45   ar
    16    43    40    1
    17    44    33    1
    18    44    45   ar
    19    54    55    1
    20    34    33   ar
    21    34    30   ar
    22    55    56    1
    23    55    57    1
    24    11     3    1
    25    23    21    1
    26     9     7    1
    27    33    32   ar
    28    45    50    1
    29    42    40    1
    30    40    41    1
    31    40    39    1
    32    25    18    1
    33    30    19    1
    34    30    31   ar
    35    18    19   ar
    36    18    17   ar
    37    32    39    1
    38    32    31   ar
    39    19    20   ar
    40     8     7    1
    41    21    17    1
    42    21    22    1
    43    21    24    1
    44     3     2   ar
    45     3     4   ar
    46    17    16   ar
    47     7     2    1
    48     7    10    1
    49    31    35    1
    50    16    20   ar
    51    16     4    1
    52    37    35    1
    53     2     1   ar
    54    50    52    1
    55    50    51    1
    56    50    53    1
    57     4     5   ar
    58    35    36    1
    59    35    38    1
    60     1     5   ar
    61     1     6    1
