@<TRIPOS>MOLECULE
mol_data/opt/cam/geoms/mol2/5il5il5il.out
 44 46 0 0 0
SMALL
GASTEIGER

@<TRIPOS>ATOM
      1 C          -1.9381   -2.0113    1.3707 C.ar    1  LIG1       -0.0172
      2 C          -0.7521   -2.1940    0.7316 C.ar    1  LIG1       -0.0011
      3 C          -0.1925   -0.9418    0.3158 C.ar    1  LIG1        0.1382
      4 C          -0.9433    0.1554    0.6521 C.ar    1  LIG1        0.0681
      5 S          -2.3861   -0.3499    1.4874 S.2     1  LIG1       -0.0921
      6 H          -2.5861   -2.7735    1.7801 H       1  LIG1        0.0697
      7 C          -0.0835   -3.5070    0.4653 C.3     1  LIG1       -0.0357
      8 H           0.9085   -3.5414    0.9241 H       1  LIG1        0.0279
      9 H           0.0570   -3.6692   -0.6074 H       1  LIG1        0.0279
     10 H          -0.6743   -4.3354    0.8605 H       1  LIG1        0.0279
     11 O           1.0020   -0.9116   -0.3497 O.3     1  LIG1       -0.4937
     12 C           0.9289   -0.4837   -1.7051 C.3     1  LIG1        0.0789
     13 H           1.9310   -0.6003   -2.1197 H       1  LIG1        0.0660
     14 H           0.2272   -1.1030   -2.2744 H       1  LIG1        0.0660
     15 H           0.6239    0.5642   -1.7793 H       1  LIG1        0.0660
     16 C          -0.6400    1.5614    0.4245 C.ar    1  LIG1        0.0365
     17 C           0.5323    2.2202    0.6898 C.ar    1  LIG1        0.0072
     18 C           0.4486    3.6007    0.3200 C.ar    1  LIG1        0.1388
     19 C          -0.7602    3.9887   -0.1952 C.ar    1  LIG1        0.0687
     20 S          -1.8400    2.6283   -0.2547 S.2     1  LIG1       -0.0831
     21 C           1.7531    1.6247    1.3186 C.3     1  LIG1       -0.0351
     22 H           2.3520    2.4113    1.7813 H       1  LIG1        0.0279
     23 H           2.3720    1.1002    0.5849 H       1  LIG1        0.0279
     24 H           1.4789    0.8895    2.0784 H       1  LIG1        0.0279
     25 O           1.5005    4.4585    0.4982 O.3     1  LIG1       -0.4937
     26 C           2.3532    4.5658   -0.6343 C.3     1  LIG1        0.0789
     27 H           3.1504    5.2589   -0.3627 H       1  LIG1        0.0660
     28 H           2.7924    3.5954   -0.8931 H       1  LIG1        0.0660
     29 H           1.8089    4.9562   -1.5007 H       1  LIG1        0.0660
     30 C          -1.1598    5.3171   -0.6377 C.ar    1  LIG1        0.0359
     31 C          -1.0033    6.5078    0.0216 C.ar    1  LIG1        0.0066
     32 C          -1.5340    7.5991   -0.7461 C.ar    1  LIG1        0.1306
     33 C          -2.0807    7.2315   -1.9356 C.ar    1  LIG1        0.0183
     34 S          -1.9583    5.5320   -2.1759 S.2     1  LIG1       -0.0920
     35 H          -2.5602    7.8732   -2.6594 H       1  LIG1        0.0730
     36 C          -0.4298    6.6869    1.3924 C.3     1  LIG1       -0.0351
     37 H          -0.8410    7.5895    1.8497 H       1  LIG1        0.0279
     38 H           0.6604    6.7697    1.3675 H       1  LIG1        0.0279
     39 H          -0.6636    5.8295    2.0269 H       1  LIG1        0.0279
     40 O          -1.5463    8.8872   -0.2834 O.3     1  LIG1       -0.4943
     41 C          -0.3198    9.5791   -0.4585 C.3     1  LIG1        0.0788
     42 H          -0.4605   10.5785   -0.0448 H       1  LIG1        0.0660
     43 H           0.5030    9.0842    0.0705 H       1  LIG1        0.0660
     44 H          -0.0607    9.6581   -1.5207 H       1  LIG1        0.0660
@<TRIPOS>BOND
     1    35    33    1
     2    14    12    1
     3    34    33   ar
     4    34    30   ar
     5    13    12    1
     6    33    32   ar
     7    15    12    1
     8    12    11    1
     9    44    41    1
    10    29    26    1
    11    28    26    1
    12    32    40    1
    13    32    31   ar
    14    30    19    1
    15    30    31   ar
    16    26    27    1
    17    26    25    1
    18     9     7    1
    19    41    40    1
    20    41    42    1
    21    41    43    1
    22    11     3    1
    23    20    19   ar
    24    20    16   ar
    25    19    18   ar
    26    31    36    1
    27     3     4   ar
    28     3     2   ar
    29    18    25    1
    30    18    17   ar
    31    16     4    1
    32    16    17   ar
    33     7     2    1
    34     7    10    1
    35     7     8    1
    36    23    21    1
    37     4     5   ar
    38    17    21    1
    39     2     1   ar
    40    21    22    1
    41    21    24    1
    42    38    36    1
    43     1     5   ar
    44     1     6    1
    45    36    37    1
    46    36    39    1
