@<TRIPOS>MOLECULE
mol_data/opt/cam/geoms/mol2/5la.out
 13 13 0 0 0
SMALL
GASTEIGER

@<TRIPOS>ATOM
      1 C          -2.1775   -1.6185    0.0000 C.ar    1  LIG1        0.0174
      2 C          -0.8136   -1.6683   -0.0002 C.ar    1  LIG1        0.1271
      3 C          -0.2026   -0.3742    0.0001 C.ar    1  LIG1       -0.0129
      4 C          -1.1202    0.6242    0.0004 C.ar    1  LIG1       -0.0208
      5 S          -2.7360    0.0202    0.0004 S.2     1  LIG1       -0.1013
      6 H          -2.8841   -2.4328   -0.0001 H       1  LIG1        0.0730
      7 H          -0.9393    1.6892    0.0006 H       1  LIG1        0.0694
      8 O          -0.0205   -2.7660   -0.0005 O.3     1  LIG1       -0.4946
      9 C          -0.6861   -4.0104   -0.0007 C.3     1  LIG1        0.0788
     10 H           0.0870   -4.7783   -0.0010 H       1  LIG1        0.0660
     11 H          -1.3129   -4.1253    0.8919 H       1  LIG1        0.0660
     12 H          -1.3131   -4.1249   -0.8932 H       1  LIG1        0.0660
     13 H           0.8703   -0.2333   -0.0000 H       1  LIG1        0.0659
@<TRIPOS>BOND
     1    12     9    1
     2    10     9    1
     3     9     8    1
     4     9    11    1
     5     8     2    1
     6     2     1   ar
     7     2     3   ar
     8     6     1    1
     9    13     3    1
    10     1     5   ar
    11     3     4   ar
    12     4     5   ar
    13     4     7    1
