@<TRIPOS>MOLECULE
mol_data/opt/cam/geoms/mol2/5la5la5la5la-.out
 46 49 0 0 0
SMALL
GASTEIGER

@<TRIPOS>ATOM
      1 C          -2.6959   -2.5980    0.2197 C.ar    1  LIG1        0.0180
      2 C          -1.3400   -2.7070    0.1211 C.ar    1  LIG1        0.1277
      3 C          -0.6663   -1.4516    0.0583 C.ar    1  LIG1       -0.0045
      4 C          -1.5239   -0.3876    0.1113 C.ar    1  LIG1        0.0330
      5 S          -3.1770   -0.9340    0.2487 S.2     1  LIG1       -0.0923
      6 H          -3.4396   -3.3759    0.2793 H       1  LIG1        0.0730
      7 O          -0.6025   -3.8440    0.0749 O.3     1  LIG1       -0.4946
      8 C          -1.3263   -5.0523    0.1363 C.3     1  LIG1        0.0788
      9 H          -0.5946   -5.8588    0.0892 H       1  LIG1        0.0660
     10 H          -1.8927   -5.1297    1.0726 H       1  LIG1        0.0660
     11 H          -2.0219   -5.1429   -0.7071 H       1  LIG1        0.0660
     12 H           0.4055   -1.3578   -0.0264 H       1  LIG1        0.0666
     13 C          -1.2037    1.0241    0.0746 C.ar    1  LIG1        0.0682
     14 C           0.0370    1.6174    0.1507 C.ar    1  LIG1        0.1359
     15 C           0.0070    3.0374    0.1027 C.ar    1  LIG1       -0.0039
     16 C          -1.2650    3.5386   -0.0149 C.ar    1  LIG1        0.0336
     17 S          -2.4311    2.2508   -0.0837 S.2     1  LIG1       -0.0833
     18 O           1.1551    0.8578    0.2669 O.3     1  LIG1       -0.4939
     19 C           2.3881    1.5353    0.3988 C.3     1  LIG1        0.0788
     20 H           3.1507    0.7633    0.4992 H       1  LIG1        0.0660
     21 H           2.6073    2.1454   -0.4846 H       1  LIG1        0.0660
     22 H           2.4017    2.1737    1.2892 H       1  LIG1        0.0660
     23 H           0.8732    3.6771    0.1561 H       1  LIG1        0.0666
     24 C          -1.6720    4.9231   -0.0910 C.ar    1  LIG1        0.0682
     25 C          -0.8744    6.0404   -0.2163 C.ar    1  LIG1        0.1359
     26 C          -1.5942    7.2636   -0.2800 C.ar    1  LIG1       -0.0039
     27 C          -2.9515    7.0861   -0.1995 C.ar    1  LIG1        0.0336
     28 S          -3.3459    5.4027   -0.0254 S.2     1  LIG1       -0.0833
     29 O           0.4765    5.9184   -0.2751 O.3     1  LIG1       -0.4939
     30 C           1.2250    7.1021   -0.4692 C.3     1  LIG1        0.0788
     31 H           2.2709    6.7987   -0.5101 H       1  LIG1        0.0660
     32 H           0.9561    7.5961   -1.4093 H       1  LIG1        0.0660
     33 H           1.0862    7.8047    0.3600 H       1  LIG1        0.0660
     34 H          -1.1484    8.2397   -0.3861 H       1  LIG1        0.0666
     35 C          -3.9855    8.0994   -0.2318 C.ar    1  LIG1        0.0676
     36 C          -3.8334    9.4669   -0.1451 C.ar    1  LIG1        0.1353
     37 C          -5.0664   10.1830   -0.1956 C.ar    1  LIG1       -0.0123
     38 C          -6.1362    9.3529   -0.3227 C.ar    1  LIG1       -0.0202
     39 S          -5.6729    7.7014   -0.3922 S.2     1  LIG1       -0.0924
     40 H          -7.1792    9.6260   -0.3859 H       1  LIG1        0.0695
     41 O          -2.5996   10.0195   -0.0226 O.3     1  LIG1       -0.4939
     42 C          -2.5320   11.4222    0.1426 C.3     1  LIG1        0.0788
     43 H          -1.4761   11.6662    0.2562 H       1  LIG1        0.0660
     44 H          -2.9294   11.9491   -0.7321 H       1  LIG1        0.0660
     45 H          -3.0739   11.7466    1.0378 H       1  LIG1        0.0660
     46 H          -5.1524   11.2591   -0.1394 H       1  LIG1        0.0660
@<TRIPOS>BOND
     1    32    30    1
     2    44    42    1
     3    11     8    1
     4    31    30    1
     5    21    19    1
     6    30    29    1
     7    30    33    1
     8    39    38   ar
     9    39    35   ar
    10    34    26    1
    11    40    38    1
    12    38    37   ar
    13    26    25   ar
    14    26    27   ar
    15    29    25    1
    16    35    27    1
    17    35    36   ar
    18    25    24   ar
    19    27    28   ar
    20    37    36   ar
    21    37    46    1
    22    36    41    1
    23    24    28   ar
    24    24    16    1
    25    17    16   ar
    26    17    13   ar
    27    12     3    1
    28    41    42    1
    29    16    15   ar
    30     3     4   ar
    31     3     2   ar
    32    13     4    1
    33    13    14   ar
    34     7     2    1
    35     7     8    1
    36     9     8    1
    37    15    14   ar
    38    15    23    1
    39     4     5   ar
    40     2     1   ar
    41     8    10    1
    42    42    43    1
    43    42    45    1
    44    14    18    1
    45     1     5   ar
    46     1     6    1
    47    18    19    1
    48    19    20    1
    49    19    22    1
