@<TRIPOS>MOLECULE
mol_data/opt/cam/geoms/mol2/5la5la5la-.out
 35 37 0 0 0
SMALL
GASTEIGER

@<TRIPOS>ATOM
      1 C          -2.7457   -2.3534   -0.2093 C.ar    1  LIG1        0.0180
      2 C          -1.3999   -2.4601   -0.0144 C.ar    1  LIG1        0.1277
      3 C          -0.7289   -1.2032    0.0523 C.ar    1  LIG1       -0.0045
      4 C          -1.5783   -0.1421   -0.0950 C.ar    1  LIG1        0.0330
      5 S          -3.2192   -0.6915   -0.3288 S.2     1  LIG1       -0.0923
      6 H          -3.4856   -3.1327   -0.2927 H       1  LIG1        0.0730
      7 O          -0.6708   -3.5948    0.1214 O.3     1  LIG1       -0.4946
      8 C          -1.3922   -4.8044    0.0510 C.3     1  LIG1        0.0788
      9 H          -0.6678   -5.6090    0.1757 H       1  LIG1        0.0660
     10 H          -2.1444   -4.8658    0.8472 H       1  LIG1        0.0660
     11 H          -1.8929   -4.9129   -0.9190 H       1  LIG1        0.0660
     12 H           0.3347   -1.1062    0.2081 H       1  LIG1        0.0666
     13 C          -1.2562    1.2702   -0.0835 C.ar    1  LIG1        0.0682
     14 C          -0.0128    1.8587   -0.1428 C.ar    1  LIG1        0.1359
     15 C          -0.0425    3.2803   -0.1322 C.ar    1  LIG1       -0.0039
     16 C          -1.3153    3.7841   -0.0601 C.ar    1  LIG1        0.0336
     17 S          -2.4847    2.5009    0.0165 S.2     1  LIG1       -0.0833
     18 O           1.1060    1.0947   -0.2111 O.3     1  LIG1       -0.4939
     19 C           2.3417    1.7659   -0.3517 C.3     1  LIG1        0.0788
     20 H           3.1041    0.9900   -0.4166 H       1  LIG1        0.0660
     21 H           2.3666    2.3732   -1.2633 H       1  LIG1        0.0660
     22 H           2.5518    2.4055    0.5129 H       1  LIG1        0.0660
     23 H           0.8260    3.9178   -0.1806 H       1  LIG1        0.0666
     24 C          -1.7229    5.1739   -0.0303 C.ar    1  LIG1        0.0676
     25 C          -0.9278    6.2864    0.1434 C.ar    1  LIG1        0.1353
     26 C          -1.6541    7.5147    0.1351 C.ar    1  LIG1       -0.0123
     27 C          -2.9877    7.3206   -0.0474 C.ar    1  LIG1       -0.0202
     28 S          -3.3842    5.6591   -0.2209 S.2     1  LIG1       -0.0924
     29 H          -3.7630    8.0709   -0.0957 H       1  LIG1        0.0695
     30 O           0.4143    6.1594    0.3033 O.3     1  LIG1       -0.4939
     31 C           1.1493    7.3384    0.5652 C.3     1  LIG1        0.0788
     32 H           2.1859    7.0297    0.6972 H       1  LIG1        0.0660
     33 H           1.0894    8.0434   -0.2717 H       1  LIG1        0.0660
     34 H           0.8022    7.8321    1.4796 H       1  LIG1        0.0660
     35 H          -1.2072    8.4912    0.2595 H       1  LIG1        0.0660
@<TRIPOS>BOND
     1    21    19    1
     2    11     8    1
     3    20    19    1
     4    19    18    1
     5    19    22    1
     6     5     1   ar
     7     5     4   ar
     8     6     1    1
     9    33    31    1
    10    28    27   ar
    11    28    24   ar
    12    18    14    1
    13     1     2   ar
    14    23    15    1
    15    14    15   ar
    16    14    13   ar
    17    15    16   ar
    18    29    27    1
    19     4    13    1
    20     4     3   ar
    21    13    17   ar
    22    16    24    1
    23    16    17   ar
    24    27    26   ar
    25    24    25   ar
    26     2     3   ar
    27     2     7    1
    28     8     7    1
    29     8     9    1
    30     8    10    1
    31     3    12    1
    32    26    25   ar
    33    26    35    1
    34    25    30    1
    35    30    31    1
    36    31    32    1
    37    31    34    1
