@<TRIPOS>MOLECULE
mol_data/opt/cam/geoms/mol2/5la5la5la-5la.out
 46 49 0 0 0
SMALL
GASTEIGER

@<TRIPOS>ATOM
      1 C          -2.6830   -2.5899    0.4285 C.ar    1  LIG1        0.0180
      2 C          -1.3390   -2.7041    0.2265 C.ar    1  LIG1        0.1277
      3 C          -0.6705   -1.4517    0.0906 C.ar    1  LIG1       -0.0045
      4 C          -1.5199   -0.3847    0.1924 C.ar    1  LIG1        0.0330
      5 S          -3.1581   -0.9244    0.4672 S.2     1  LIG1       -0.0923
      6 H          -3.4209   -3.3647    0.5587 H       1  LIG1        0.0730
      7 O          -0.6089   -3.8437    0.1419 O.3     1  LIG1       -0.4946
      8 C          -1.3274   -5.0489    0.2799 C.3     1  LIG1        0.0788
      9 H          -0.6027   -5.8579    0.1895 H       1  LIG1        0.0660
     10 H          -1.8193   -5.1091    1.2585 H       1  LIG1        0.0660
     11 H          -2.0867   -5.1517   -0.5053 H       1  LIG1        0.0660
     12 H           0.3916   -1.3622   -0.0788 H       1  LIG1        0.0666
     13 C          -1.2016    1.0254    0.1075 C.ar    1  LIG1        0.0682
     14 C           0.0420    1.6165    0.0771 C.ar    1  LIG1        0.1359
     15 C           0.0103    3.0355    0.0079 C.ar    1  LIG1       -0.0039
     16 C          -1.2663    3.5382   -0.0189 C.ar    1  LIG1        0.0336
     17 S          -2.4359    2.2525    0.0246 S.2     1  LIG1       -0.0833
     18 O           1.1647    0.8560    0.1187 O.3     1  LIG1       -0.4939
     19 C           2.4052    1.5322    0.1431 C.3     1  LIG1        0.0788
     20 H           2.4888    2.1852    1.0190 H       1  LIG1        0.0660
     21 H           3.1723    0.7600    0.1968 H       1  LIG1        0.0660
     22 H           2.5559    2.1271   -0.7647 H       1  LIG1        0.0660
     23 H           0.8789    3.6738   -0.0169 H       1  LIG1        0.0666
     24 C          -1.6760    4.9223   -0.0863 C.ar    1  LIG1        0.0682
     25 C          -0.8890    6.0353   -0.2915 C.ar    1  LIG1        0.1359
     26 C          -1.6099    7.2592   -0.3195 C.ar    1  LIG1       -0.0039
     27 C          -2.9572    7.0866   -0.1312 C.ar    1  LIG1        0.0336
     28 S          -3.3392    5.4074    0.1009 S.2     1  LIG1       -0.0833
     29 O           0.4531    5.9088   -0.4528 O.3     1  LIG1       -0.4939
     30 C           1.1859    7.0871   -0.7241 C.3     1  LIG1        0.0788
     31 H           2.2251    6.7803   -0.8410 H       1  LIG1        0.0660
     32 H           0.8455    7.5662   -1.6486 H       1  LIG1        0.0660
     33 H           1.1128    7.8036    0.1015 H       1  LIG1        0.0660
     34 H          -1.1724    8.2322   -0.4761 H       1  LIG1        0.0666
     35 C          -3.9891    8.1020   -0.1001 C.ar    1  LIG1        0.0676
     36 C          -3.8289    9.4703   -0.0480 C.ar    1  LIG1        0.1353
     37 C          -5.0611   10.1887   -0.0147 C.ar    1  LIG1       -0.0123
     38 C          -6.1387    9.3595   -0.0449 C.ar    1  LIG1       -0.0202
     39 S          -5.6844    7.7058   -0.1228 S.2     1  LIG1       -0.0924
     40 H          -7.1831    9.6343   -0.0316 H       1  LIG1        0.0695
     41 O          -2.5886   10.0216   -0.0306 O.3     1  LIG1       -0.4939
     42 C          -2.5065   11.4266    0.1057 C.3     1  LIG1        0.0788
     43 H          -1.4446   11.6697    0.1331 H       1  LIG1        0.0660
     44 H          -2.9697   11.9401   -0.7443 H       1  LIG1        0.0660
     45 H          -2.9770   11.7671    1.0347 H       1  LIG1        0.0660
     46 H          -5.1411   11.2659    0.0302 H       1  LIG1        0.0660
@<TRIPOS>BOND
     1    32    30    1
     2    31    30    1
     3    22    19    1
     4    44    42    1
     5    30    29    1
     6    30    33    1
     7    11     8    1
     8    34    26    1
     9    29    25    1
    10    26    25   ar
    11    26    27   ar
    12    25    24   ar
    13    27    35    1
    14    27    28   ar
    15    39    35   ar
    16    39    38   ar
    17    35    36   ar
    18    24    16    1
    19    24    28   ar
    20    12     3    1
    21    36    41    1
    22    36    37   ar
    23    38    40    1
    24    38    37   ar
    25    41    42    1
    26    16    15   ar
    27    16    17   ar
    28    23    15    1
    29    37    46    1
    30    15    14   ar
    31    17    13   ar
    32    14    13   ar
    33    14    18    1
    34     3     4   ar
    35     3     2   ar
    36    42    43    1
    37    42    45    1
    38    13     4    1
    39    18    19    1
    40     7     2    1
    41     7     8    1
    42    19    21    1
    43    19    20    1
    44     9     8    1
    45     4     5   ar
    46     2     1   ar
    47     8    10    1
    48     1     5   ar
    49     1     6    1
