@<TRIPOS>MOLECULE
mol_data/opt/cam/geoms/mol2/5la5la-5la-5la-.out
 46 49 0 0 0
SMALL
GASTEIGER

@<TRIPOS>ATOM
      1 C          -2.6417   -2.6117   -0.0921 C.ar    1  LIG1        0.0180
      2 C          -1.2895   -2.7071    0.0583 C.ar    1  LIG1        0.1277
      3 C          -0.6271   -1.4452    0.1097 C.ar    1  LIG1       -0.0045
      4 C          -1.4896   -0.3899   -0.0041 C.ar    1  LIG1        0.0330
      5 S          -3.1329   -0.9530   -0.1853 S.2     1  LIG1       -0.0923
      6 H          -3.3774   -3.3968   -0.1562 H       1  LIG1        0.0730
      7 O          -0.5463   -3.8365    0.1631 O.3     1  LIG1       -0.4946
      8 C          -1.2592   -5.0518    0.1100 C.3     1  LIG1        0.0788
      9 H          -0.5242   -5.8508    0.2063 H       1  LIG1        0.0660
     10 H          -1.9841   -5.1241    0.9301 H       1  LIG1        0.0660
     11 H          -1.7908   -5.1599   -0.8435 H       1  LIG1        0.0660
     12 H           0.4402   -1.3406    0.2302 H       1  LIG1        0.0666
     13 C          -1.1807    1.0248    0.0042 C.ar    1  LIG1        0.0682
     14 C           0.0578    1.6255   -0.0444 C.ar    1  LIG1        0.1359
     15 C           0.0163    3.0459   -0.0375 C.ar    1  LIG1       -0.0039
     16 C          -1.2625    3.5402    0.0204 C.ar    1  LIG1        0.0336
     17 S          -2.4214    2.2457    0.0839 S.2     1  LIG1       -0.0833
     18 O           1.1846    0.8718   -0.0991 O.3     1  LIG1       -0.4939
     19 C           2.4168    1.5550   -0.2060 C.3     1  LIG1        0.0788
     20 H           3.1879    0.7866   -0.2573 H       1  LIG1        0.0660
     21 H           2.4579    2.1684   -1.1130 H       1  LIG1        0.0660
     22 H           2.5999    2.1914    0.6671 H       1  LIG1        0.0660
     23 H           0.8795    3.6908   -0.0780 H       1  LIG1        0.0666
     24 C          -1.6815    4.9230    0.0429 C.ar    1  LIG1        0.0682
     25 C          -0.8965    6.0497    0.1648 C.ar    1  LIG1        0.1359
     26 C          -1.6266    7.2685    0.1682 C.ar    1  LIG1       -0.0039
     27 C          -2.9790    7.0781    0.0447 C.ar    1  LIG1        0.0336
     28 S          -3.3553    5.3874   -0.0956 S.2     1  LIG1       -0.0833
     29 O           0.4522    5.9401    0.2748 O.3     1  LIG1       -0.4939
     30 C           1.1851    7.1346    0.4620 C.3     1  LIG1        0.0788
     31 H           2.2309    6.8408    0.5487 H       1  LIG1        0.0660
     32 H           1.0711    7.8126   -0.3911 H       1  LIG1        0.0660
     33 H           0.8793    7.6526    1.3776 H       1  LIG1        0.0660
     34 H          -1.1917    8.2506    0.2625 H       1  LIG1        0.0666
     35 C          -4.0204    8.0837    0.0116 C.ar    1  LIG1        0.0676
     36 C          -3.8747    9.4494   -0.1084 C.ar    1  LIG1        0.1353
     37 C          -5.1137   10.1568   -0.1219 C.ar    1  LIG1       -0.0123
     38 C          -6.1816    9.3222   -0.0093 C.ar    1  LIG1       -0.0202
     39 S          -5.7096    7.6770    0.1234 S.2     1  LIG1       -0.0924
     40 H          -7.2280    9.5887    0.0091 H       1  LIG1        0.0695
     41 O          -2.6412   10.0080   -0.2027 O.3     1  LIG1       -0.4939
     42 C          -2.5774   11.4061   -0.4050 C.3     1  LIG1        0.0788
     43 H          -1.5199   11.6551   -0.4879 H       1  LIG1        0.0660
     44 H          -3.0893   11.7010   -1.3277 H       1  LIG1        0.0660
     45 H          -3.0094   11.9541    0.4399 H       1  LIG1        0.0660
     46 H          -5.2050   11.2303   -0.2116 H       1  LIG1        0.0660
@<TRIPOS>BOND
     1    44    42    1
     2    21    19    1
     3    11     8    1
     4    43    42    1
     5    42    41    1
     6    42    45    1
     7    32    30    1
     8    20    19    1
     9    46    37    1
    10    19    18    1
    11    19    22    1
    12    41    36    1
    13     5     1   ar
    14     5     4   ar
    15     6     1    1
    16    37    36   ar
    17    37    38   ar
    18    36    35   ar
    19    18    14    1
    20    28    24   ar
    21    28    27   ar
    22     1     2   ar
    23    23    15    1
    24    14    15   ar
    25    14    13   ar
    26    15    16   ar
    27    38    40    1
    28    38    39   ar
    29     4    13    1
    30     4     3   ar
    31    13    17   ar
    32    35    27    1
    33    35    39   ar
    34    16    24    1
    35    16    17   ar
    36    24    25   ar
    37    27    26   ar
    38     2     3   ar
    39     2     7    1
    40     3    12    1
    41     8     7    1
    42     8     9    1
    43     8    10    1
    44    25    26   ar
    45    25    29    1
    46    26    34    1
    47    29    30    1
    48    30    31    1
    49    30    33    1
