@<TRIPOS>MOLECULE
mol_data/opt/cam/geoms/mol2/5la5la5la5la.out
 46 49 0 0 0
SMALL
GASTEIGER

@<TRIPOS>ATOM
      1 C          -2.6407   -2.6118    0.0855 C.ar    1  LIG1        0.0180
      2 C          -1.2836   -2.7045    0.1846 C.ar    1  LIG1        0.1277
      3 C          -0.6205   -1.4419    0.1832 C.ar    1  LIG1       -0.0045
      4 C          -1.4873   -0.3890    0.0811 C.ar    1  LIG1        0.0330
      5 S          -3.1361   -0.9553   -0.0235 S.2     1  LIG1       -0.0923
      6 H          -3.3780   -3.3979    0.0670 H       1  LIG1        0.0730
      7 O          -0.5363   -3.8316    0.2840 O.3     1  LIG1       -0.4946
      8 C          -1.2500   -5.0475    0.2844 C.3     1  LIG1        0.0788
      9 H          -0.5114   -5.8445    0.3685 H       1  LIG1        0.0660
     10 H          -1.9421   -5.1025    1.1338 H       1  LIG1        0.0660
     11 H          -1.8187   -5.1755   -0.6449 H       1  LIG1        0.0660
     12 H           0.4507   -1.3351    0.2594 H       1  LIG1        0.0666
     13 C          -1.1791    1.0255    0.0472 C.ar    1  LIG1        0.0682
     14 C           0.0562    1.6247   -0.0626 C.ar    1  LIG1        0.1359
     15 C           0.0143    3.0449   -0.0843 C.ar    1  LIG1       -0.0039
     16 C          -1.2616    3.5407    0.0133 C.ar    1  LIG1        0.0336
     17 S          -2.4164    2.2481    0.1496 S.2     1  LIG1       -0.0833
     18 O           1.1804    0.8696   -0.1456 O.3     1  LIG1       -0.4939
     19 C           2.4071    1.5501   -0.3152 C.3     1  LIG1        0.0788
     20 H           3.1760    0.7805   -0.3804 H       1  LIG1        0.0660
     21 H           2.4123    2.1441   -1.2359 H       1  LIG1        0.0660
     22 H           2.6240    2.2047    0.5364 H       1  LIG1        0.0660
     23 H           0.8748    3.6885   -0.1723 H       1  LIG1        0.0666
     24 C          -1.6801    4.9238    0.0229 C.ar    1  LIG1        0.0682
     25 C          -0.8916    6.0526    0.0900 C.ar    1  LIG1        0.1359
     26 C          -1.6216    7.2713    0.0963 C.ar    1  LIG1       -0.0039
     27 C          -2.9777    7.0788    0.0299 C.ar    1  LIG1        0.0336
     28 S          -3.3583    5.3856   -0.0597 S.2     1  LIG1       -0.0833
     29 O           0.4604    5.9450    0.1494 O.3     1  LIG1       -0.4939
     30 C           1.1995    7.1430    0.2823 C.3     1  LIG1        0.0788
     31 H           2.2481    6.8507    0.3340 H       1  LIG1        0.0660
     32 H           1.0517    7.8027   -0.5798 H       1  LIG1        0.0660
     33 H           0.9296    7.6803    1.1980 H       1  LIG1        0.0660
     34 H          -1.1839    8.2551    0.1525 H       1  LIG1        0.0666
     35 C          -4.0202    8.0837    0.0164 C.ar    1  LIG1        0.0676
     36 C          -3.8801    9.4465   -0.1381 C.ar    1  LIG1        0.1353
     37 C          -5.1190   10.1539   -0.1180 C.ar    1  LIG1       -0.0123
     38 C          -6.1812    9.3221    0.0541 C.ar    1  LIG1       -0.0202
     39 S          -5.7035    7.6799    0.2029 S.2     1  LIG1       -0.0924
     40 H          -7.2263    9.5893    0.1078 H       1  LIG1        0.0695
     41 O          -2.6515   10.0027   -0.2925 O.3     1  LIG1       -0.4939
     42 C          -2.5965   11.3961   -0.5267 C.3     1  LIG1        0.0788
     43 H          -1.5431   11.6431   -0.6562 H       1  LIG1        0.0660
     44 H          -3.1443   11.6716   -1.4346 H       1  LIG1        0.0660
     45 H          -2.9953   11.9620    0.3227 H       1  LIG1        0.0660
     46 H          -5.2144   11.2252   -0.2267 H       1  LIG1        0.0660
@<TRIPOS>BOND
     1    44    42    1
     2    21    19    1
     3    43    42    1
     4    11     8    1
     5    32    30    1
     6    42    41    1
     7    42    45    1
     8    20    19    1
     9    19    18    1
    10    19    22    1
    11    41    36    1
    12    46    37    1
    13    23    15    1
    14    18    14    1
    15    36    37   ar
    16    36    35   ar
    17    37    38   ar
    18    15    14   ar
    19    15    16   ar
    20    14    13   ar
    21    28    24   ar
    22    28    27   ar
    23     5     4   ar
    24     5     1   ar
    25    16    24    1
    26    16    17   ar
    27    35    27    1
    28    35    39   ar
    29    24    25   ar
    30    27    26   ar
    31    13     4    1
    32    13    17   ar
    33    38    40    1
    34    38    39   ar
    35     6     1    1
    36     4     3   ar
    37     1     2   ar
    38    25    26   ar
    39    25    29    1
    40    26    34    1
    41    29    30    1
    42     3     2   ar
    43     3    12    1
    44     2     7    1
    45    30    31    1
    46    30    33    1
    47     7     8    1
    48     8     9    1
    49     8    10    1
