@<TRIPOS>MOLECULE
mol_data/opt/cam/geoms/mol2/5la5la5la.out
 35 37 0 0 0
SMALL
GASTEIGER

@<TRIPOS>ATOM
      1 C          -2.6413   -2.4054   -0.0582 C.ar    1  LIG1        0.0180
      2 C          -1.2843   -2.4744   -0.1772 C.ar    1  LIG1        0.1277
      3 C          -0.6422   -1.2008   -0.1631 C.ar    1  LIG1       -0.0045
      4 C          -1.5249   -0.1652   -0.0311 C.ar    1  LIG1        0.0330
      5 S          -3.1623   -0.7599    0.0879 S.2     1  LIG1       -0.0923
      6 H          -3.3652   -3.2040   -0.0441 H       1  LIG1        0.0730
      7 O          -0.5205   -3.5867   -0.3072 O.3     1  LIG1       -0.4946
      8 C          -1.2143   -4.8143   -0.3191 C.3     1  LIG1        0.0788
      9 H          -0.4640   -5.5973   -0.4274 H       1  LIG1        0.0660
     10 H          -1.7674   -4.9674    0.6158 H       1  LIG1        0.0660
     11 H          -1.9174   -4.8656   -1.1596 H       1  LIG1        0.0660
     12 H           0.4259   -1.0741   -0.2529 H       1  LIG1        0.0666
     13 C          -1.2381    1.2537    0.0229 C.ar    1  LIG1        0.0682
     14 C          -0.0153    1.8683    0.1742 C.ar    1  LIG1        0.1359
     15 C          -0.0798    3.2884    0.2087 C.ar    1  LIG1       -0.0039
     16 C          -1.3585    3.7649    0.0788 C.ar    1  LIG1        0.0336
     17 S          -2.4891    2.4585   -0.1084 S.2     1  LIG1       -0.0833
     18 O           1.1164    1.1283    0.2828 O.3     1  LIG1       -0.4939
     19 C           2.3248    1.8225    0.5177 C.3     1  LIG1        0.0788
     20 H           3.1013    1.0626    0.6016 H       1  LIG1        0.0660
     21 H           2.5685    2.4961   -0.3116 H       1  LIG1        0.0660
     22 H           2.2818    2.3987    1.4486 H       1  LIG1        0.0660
     23 H           0.7682    3.9437    0.3288 H       1  LIG1        0.0666
     24 C          -1.7983    5.1452    0.0709 C.ar    1  LIG1        0.0676
     25 C          -1.0225    6.2809   -0.0193 C.ar    1  LIG1        0.1353
     26 C          -1.7785    7.4912   -0.0131 C.ar    1  LIG1       -0.0123
     27 C          -3.1151    7.2603    0.0845 C.ar    1  LIG1       -0.0202
     28 S          -3.4794    5.5851    0.1796 S.2     1  LIG1       -0.0924
     29 H          -3.9105    7.9904    0.1119 H       1  LIG1        0.0695
     30 O           0.3294    6.1905   -0.1043 O.3     1  LIG1       -0.4939
     31 C           1.0486    7.3944   -0.2837 C.3     1  LIG1        0.0788
     32 H           2.0985    7.1143   -0.3648 H       1  LIG1        0.0660
     33 H           0.7427    7.9110   -1.2002 H       1  LIG1        0.0660
     34 H           0.9228    8.0686    0.5710 H       1  LIG1        0.0660
     35 H          -1.3497    8.4814   -0.0789 H       1  LIG1        0.0660
@<TRIPOS>BOND
     1    33    31    1
     2    11     8    1
     3     9     8    1
     4    32    31    1
     5     8     7    1
     6     8    10    1
     7    21    19    1
     8     7     2    1
     9    31    30    1
    10    31    34    1
    11    12     3    1
    12     2     3   ar
    13     2     1   ar
    14     3     4   ar
    15    17    13   ar
    16    17    16   ar
    17    30    25    1
    18    35    26    1
    19     1     6    1
    20     1     5   ar
    21     4    13    1
    22     4     5   ar
    23    25    26   ar
    24    25    24   ar
    25    26    27   ar
    26    13    14   ar
    27    24    16    1
    28    24    28   ar
    29    16    15   ar
    30    27    29    1
    31    27    28   ar
    32    14    15   ar
    33    14    18    1
    34    15    23    1
    35    18    19    1
    36    19    20    1
    37    19    22    1
