@<TRIPOS>MOLECULE
mol_data/opt/cam/geoms/mol2/5la5la.out
 24 25 0 0 0
SMALL
GASTEIGER

@<TRIPOS>ATOM
      1 C          -2.6122   -2.0491   -0.0476 C.ar    1  LIG1        0.0180
      2 C          -1.2613   -2.1324   -0.2148 C.ar    1  LIG1        0.1277
      3 C          -0.6045   -0.8657   -0.2067 C.ar    1  LIG1       -0.0045
      4 C          -1.4697    0.1768   -0.0310 C.ar    1  LIG1        0.0330
      5 S          -3.1083   -0.4000    0.1376 S.2     1  LIG1       -0.0923
      6 H          -3.3447   -2.8394   -0.0178 H       1  LIG1        0.0730
      7 O          -0.5149   -3.2504   -0.3848 O.3     1  LIG1       -0.4946
      8 C          -1.2217   -4.4710   -0.3880 C.3     1  LIG1        0.0788
      9 H          -0.4837   -5.2597   -0.5330 H       1  LIG1        0.0660
     10 H          -1.7427   -4.6310    0.5638 H       1  LIG1        0.0660
     11 H          -1.9542   -4.5041   -1.2038 H       1  LIG1        0.0660
     12 H           0.4614   -0.7504   -0.3315 H       1  LIG1        0.0666
     13 C          -1.1635    1.5945    0.0303 C.ar    1  LIG1        0.0676
     14 C           0.0736    2.1867    0.1535 C.ar    1  LIG1        0.1353
     15 C           0.0226    3.6130    0.1977 C.ar    1  LIG1       -0.0123
     16 C          -1.2497    4.0835    0.1043 C.ar    1  LIG1       -0.0202
     17 S          -2.3998    2.8172   -0.0468 S.2     1  LIG1       -0.0924
     18 H          -1.5745    5.1135    0.1100 H       1  LIG1        0.0695
     19 O           1.1976    1.4307    0.2228 O.3     1  LIG1       -0.4939
     20 C           2.4228    2.1062    0.4226 C.3     1  LIG1        0.0788
     21 H           3.1905    1.3350    0.4796 H       1  LIG1        0.0660
     22 H           2.6516    2.7789   -0.4118 H       1  LIG1        0.0660
     23 H           2.4180    2.6783    1.3572 H       1  LIG1        0.0660
     24 H           0.8882    4.2534    0.2947 H       1  LIG1        0.0660
@<TRIPOS>BOND
     1    11     8    1
     2     9     8    1
     3    22    20    1
     4     8     7    1
     5     8    10    1
     6     7     2    1
     7    12     3    1
     8     2     3   ar
     9     2     1   ar
    10     3     4   ar
    11     1     6    1
    12     1     5   ar
    13    17    13   ar
    14    17    16   ar
    15     4    13    1
    16     4     5   ar
    17    13    14   ar
    18    16    18    1
    19    16    15   ar
    20    14    15   ar
    21    14    19    1
    22    15    24    1
    23    19    20    1
    24    20    21    1
    25    20    23    1
