@<TRIPOS>MOLECULE
mol_data/opt/cam/geoms/mol2/5la5la-5la-5la.out
 46 49 0 0 0
SMALL
GASTEIGER

@<TRIPOS>ATOM
      1 C          -2.6642   -2.6082    0.0189 C.ar    1  LIG1        0.0180
      2 C          -1.3070   -2.7069    0.1114 C.ar    1  LIG1        0.1277
      3 C          -0.6393   -1.4468    0.1238 C.ar    1  LIG1       -0.0045
      4 C          -1.5028   -0.3896    0.0388 C.ar    1  LIG1        0.0330
      5 S          -3.1540   -0.9486   -0.0666 S.2     1  LIG1       -0.0923
      6 H          -3.4043   -3.3913   -0.0070 H       1  LIG1        0.0730
      7 O          -0.5634   -3.8379    0.1932 O.3     1  LIG1       -0.4946
      8 C          -1.2815   -5.0512    0.1808 C.3     1  LIG1        0.0788
      9 H          -0.5454   -5.8518    0.2516 H       1  LIG1        0.0660
     10 H          -1.9705   -5.1146    1.0320 H       1  LIG1        0.0660
     11 H          -1.8542   -5.1651   -0.7479 H       1  LIG1        0.0660
     12 H           0.4325   -1.3448    0.1971 H       1  LIG1        0.0666
     13 C          -1.1895    1.0241    0.0220 C.ar    1  LIG1        0.0682
     14 C           0.0475    1.6202   -0.0848 C.ar    1  LIG1        0.1359
     15 C           0.0106    3.0408   -0.0879 C.ar    1  LIG1       -0.0039
     16 C          -1.2631    3.5398    0.0212 C.ar    1  LIG1        0.0336
     17 S          -2.4220    2.2497    0.1452 S.2     1  LIG1       -0.0833
     18 O           1.1686    0.8623   -0.1820 O.3     1  LIG1       -0.4939
     19 C           2.3971    1.5406   -0.3476 C.3     1  LIG1        0.0788
     20 H           3.1629    0.7692   -0.4258 H       1  LIG1        0.0660
     21 H           2.4008    2.1465   -1.2606 H       1  LIG1        0.0660
     22 H           2.6197    2.1833    0.5115 H       1  LIG1        0.0660
     23 H           0.8731    3.6824   -0.1708 H       1  LIG1        0.0666
     24 C          -1.6765    4.9241    0.0503 C.ar    1  LIG1        0.0682
     25 C          -0.8837    6.0491    0.1290 C.ar    1  LIG1        0.1359
     26 C          -1.6093    7.2703    0.1540 C.ar    1  LIG1       -0.0039
     27 C          -2.9663    7.0835    0.0905 C.ar    1  LIG1        0.0336
     28 S          -3.3534    5.3929   -0.0196 S.2     1  LIG1       -0.0833
     29 O           0.4681    5.9359    0.1818 O.3     1  LIG1       -0.4939
     30 C           1.2120    7.1295    0.3273 C.3     1  LIG1        0.0788
     31 H           2.2597    6.8328    0.3711 H       1  LIG1        0.0660
     32 H           1.0633    7.8009   -0.5257 H       1  LIG1        0.0660
     33 H           0.9476    7.6558    1.2509 H       1  LIG1        0.0660
     34 H          -1.1678    8.2517    0.2213 H       1  LIG1        0.0666
     35 C          -4.0052    8.0922    0.0941 C.ar    1  LIG1        0.0676
     36 C          -3.8608    9.4564   -0.0433 C.ar    1  LIG1        0.1353
     37 C          -5.0970   10.1678   -0.0091 C.ar    1  LIG1       -0.0123
     38 C          -6.1616    9.3377    0.1563 C.ar    1  LIG1       -0.0202
     39 S          -5.6893    7.6920    0.2819 S.2     1  LIG1       -0.0924
     40 H          -7.2055    9.6079    0.2176 H       1  LIG1        0.0695
     41 O          -2.6308   10.0102   -0.1952 O.3     1  LIG1       -0.4939
     42 C          -2.5716   11.4063   -0.4115 C.3     1  LIG1        0.0788
     43 H          -1.5179   11.6512   -0.5419 H       1  LIG1        0.0660
     44 H          -3.1220   11.6955   -1.3136 H       1  LIG1        0.0660
     45 H          -2.9652   11.9625    0.4468 H       1  LIG1        0.0660
     46 H          -5.1890   11.2408   -0.1035 H       1  LIG1        0.0660
@<TRIPOS>BOND
     1    44    42    1
     2    21    19    1
     3    11     8    1
     4    43    42    1
     5    32    30    1
     6    20    19    1
     7    42    41    1
     8    42    45    1
     9    19    18    1
    10    19    22    1
    11    41    36    1
    12    18    14    1
    13    23    15    1
    14    46    37    1
    15    15    14   ar
    16    15    16   ar
    17    14    13   ar
    18     5     1   ar
    19     5     4   ar
    20    36    37   ar
    21    36    35   ar
    22    28    24   ar
    23    28    27   ar
    24    37    38   ar
    25     6     1    1
    26     1     2   ar
    27    16    24    1
    28    16    17   ar
    29    13     4    1
    30    13    17   ar
    31     4     3   ar
    32    24    25   ar
    33    27    35    1
    34    27    26   ar
    35    35    39   ar
    36     2     3   ar
    37     2     7    1
    38     3    12    1
    39    25    26   ar
    40    25    29    1
    41    26    34    1
    42    38    40    1
    43    38    39   ar
    44     8     7    1
    45     8     9    1
    46     8    10    1
    47    29    30    1
    48    30    31    1
    49    30    33    1
