@<TRIPOS>MOLECULE
mol_data/opt/cam/geoms/mol2/5la5la-5la.out
 35 37 0 0 0
SMALL
GASTEIGER

@<TRIPOS>ATOM
      1 C          -2.7318   -2.3641   -0.0856 C.ar    1  LIG1        0.0180
      2 C          -1.3808   -2.4564   -0.2490 C.ar    1  LIG1        0.1277
      3 C          -0.7135   -1.1960   -0.2291 C.ar    1  LIG1       -0.0045
      4 C          -1.5710   -0.1467   -0.0479 C.ar    1  LIG1        0.0330
      5 S          -3.2154   -0.7124    0.1107 S.2     1  LIG1       -0.0923
      6 H          -3.4705   -3.1488   -0.0650 H       1  LIG1        0.0730
      7 O          -0.6436   -3.5801   -0.4261 O.3     1  LIG1       -0.4946
      8 C          -1.3616   -4.7937   -0.4410 C.3     1  LIG1        0.0788
      9 H          -0.6306   -5.5884   -0.5891 H       1  LIG1        0.0660
     10 H          -1.8880   -4.9560    0.5076 H       1  LIG1        0.0660
     11 H          -2.0914   -4.8139   -1.2597 H       1  LIG1        0.0660
     12 H           0.3535   -1.0878   -0.3502 H       1  LIG1        0.0666
     13 C          -1.2547    1.2650    0.0262 C.ar    1  LIG1        0.0682
     14 C          -0.0158    1.8527    0.1513 C.ar    1  LIG1        0.1359
     15 C          -0.0512    3.2728    0.2170 C.ar    1  LIG1       -0.0039
     16 C          -1.3236    3.7763    0.1374 C.ar    1  LIG1        0.0336
     17 S          -2.4851    2.4960   -0.0408 S.2     1  LIG1       -0.0833
     18 O           1.1038    1.0892    0.2088 O.3     1  LIG1       -0.4939
     19 C           2.3325    1.7551    0.4196 C.3     1  LIG1        0.0788
     20 H           3.0960    0.9788    0.4633 H       1  LIG1        0.0660
     21 H           2.5635    2.4413   -0.4029 H       1  LIG1        0.0660
     22 H           2.3298    2.3121    1.3632 H       1  LIG1        0.0660
     23 H           0.8130    3.9091    0.3237 H       1  LIG1        0.0666
     24 C          -1.7361    5.1646    0.1718 C.ar    1  LIG1        0.0676
     25 C          -0.9412    6.2869    0.0805 C.ar    1  LIG1        0.1353
     26 C          -1.6726    7.5111    0.1355 C.ar    1  LIG1       -0.0123
     27 C          -3.0098    7.3038    0.2705 C.ar    1  LIG1       -0.0202
     28 S          -3.4039    5.6342    0.3426 S.2     1  LIG1       -0.0924
     29 H          -3.7893    8.0482    0.3380 H       1  LIG1        0.0695
     30 O           0.4053    6.1725   -0.0490 O.3     1  LIG1       -0.4939
     31 C           1.1422    7.3660   -0.2263 C.3     1  LIG1        0.0788
     32 H           2.1834    7.0676   -0.3464 H       1  LIG1        0.0660
     33 H           0.8181    7.9076   -1.1219 H       1  LIG1        0.0660
     34 H           1.0565    8.0242    0.6456 H       1  LIG1        0.0660
     35 H          -1.2265    8.4941    0.0765 H       1  LIG1        0.0660
@<TRIPOS>BOND
     1    11     8    1
     2    33    31    1
     3     9     8    1
     4     8     7    1
     5     8    10    1
     6     7     2    1
     7    21    19    1
     8    12     3    1
     9    32    31    1
    10     2     3   ar
    11     2     1   ar
    12     3     4   ar
    13    31    30    1
    14    31    34    1
    15     1     6    1
    16     1     5   ar
    17    30    25    1
    18     4    13    1
    19     4     5   ar
    20    17    13   ar
    21    17    16   ar
    22    13    14   ar
    23    35    26    1
    24    25    26   ar
    25    25    24   ar
    26    26    27   ar
    27    16    24    1
    28    16    15   ar
    29    14    18    1
    30    14    15   ar
    31    24    28   ar
    32    18    19    1
    33    15    23    1
    34    27    29    1
    35    27    28   ar
    36    19    20    1
    37    19    22    1
