@<TRIPOS>MOLECULE
mol_data/opt/cam/geoms/mol2/5la5la-5la5la-.out
 46 49 0 0 0
SMALL
GASTEIGER

@<TRIPOS>ATOM
      1 C          -2.6810   -2.6010    0.2319 C.ar    1  LIG1        0.0180
      2 C          -1.3309   -2.7079    0.0710 C.ar    1  LIG1        0.1277
      3 C          -0.6613   -1.4513   -0.0106 C.ar    1  LIG1       -0.0045
      4 C          -1.5162   -0.3886    0.0909 C.ar    1  LIG1        0.0330
      5 S          -3.1611   -0.9377    0.2980 S.2     1  LIG1       -0.0923
      6 H          -3.4209   -3.3801    0.3178 H       1  LIG1        0.0730
      7 O          -0.5957   -3.8437   -0.0190 O.3     1  LIG1       -0.4946
      8 C          -1.3154   -5.0532    0.0638 C.3     1  LIG1        0.0788
      9 H          -0.5863   -5.8585   -0.0239 H       1  LIG1        0.0660
     10 H          -1.8388   -5.1398    1.0240 H       1  LIG1        0.0660
     11 H          -2.0484   -5.1366   -0.7481 H       1  LIG1        0.0660
     12 H           0.4055   -1.3558   -0.1429 H       1  LIG1        0.0666
     13 C          -1.1986    1.0237    0.0528 C.ar    1  LIG1        0.0682
     14 C           0.0439    1.6174    0.0784 C.ar    1  LIG1        0.1359
     15 C           0.0111    3.0377    0.0449 C.ar    1  LIG1       -0.0039
     16 C          -1.2652    3.5388   -0.0107 C.ar    1  LIG1        0.0336
     17 S          -2.4325    2.2506   -0.0387 S.2     1  LIG1       -0.0833
     18 O           1.1665    0.8577    0.1371 O.3     1  LIG1       -0.4939
     19 C           2.4038    1.5351    0.2196 C.3     1  LIG1        0.0788
     20 H           3.1706    0.7629    0.2784 H       1  LIG1        0.0660
     21 H           2.5827    2.1535   -0.6671 H       1  LIG1        0.0660
     22 H           2.4572    2.1653    1.1143 H       1  LIG1        0.0660
     23 H           0.8785    3.6777    0.0651 H       1  LIG1        0.0666
     24 C          -1.6758    4.9236   -0.0556 C.ar    1  LIG1        0.0682
     25 C          -0.8852    6.0427   -0.2063 C.ar    1  LIG1        0.1359
     26 C          -1.6078    7.2658   -0.2262 C.ar    1  LIG1       -0.0039
     27 C          -2.9601    7.0864   -0.0866 C.ar    1  LIG1        0.0336
     28 S          -3.3454    5.4010    0.0894 S.2     1  LIG1       -0.0833
     29 O           0.4617    5.9226   -0.3267 O.3     1  LIG1       -0.4939
     30 C           1.2002    7.1086   -0.5434 C.3     1  LIG1        0.0788
     31 H           2.2433    6.8066   -0.6340 H       1  LIG1        0.0660
     32 H           0.8890    7.6110   -1.4658 H       1  LIG1        0.0660
     33 H           1.0984    7.8034    0.2976 H       1  LIG1        0.0660
     34 H          -1.1677    8.2432   -0.3432 H       1  LIG1        0.0666
     35 C          -3.9949    8.0989   -0.0631 C.ar    1  LIG1        0.0676
     36 C          -3.8398    9.4657    0.0295 C.ar    1  LIG1        0.1353
     37 C          -5.0742   10.1811    0.0409 C.ar    1  LIG1       -0.0123
     38 C          -6.1482    9.3513   -0.0459 C.ar    1  LIG1       -0.0202
     39 S          -5.6876    7.7008   -0.1515 S.2     1  LIG1       -0.0924
     40 H          -7.1931    9.6240   -0.0597 H       1  LIG1        0.0695
     41 O          -2.6020   10.0183    0.1017 O.3     1  LIG1       -0.4939
     42 C          -2.5278   11.4195    0.2767 C.3     1  LIG1        0.0788
     43 H          -1.4680   11.6634    0.3450 H       1  LIG1        0.0660
     44 H          -2.9643   11.9540   -0.5745 H       1  LIG1        0.0660
     45 H          -3.0292   11.7351    1.1982 H       1  LIG1        0.0660
     46 H          -5.1581   11.2566    0.1109 H       1  LIG1        0.0660
@<TRIPOS>BOND
     1    32    30    1
     2    11     8    1
     3    21    19    1
     4    31    30    1
     5    44    42    1
     6    30    29    1
     7    30    33    1
     8    34    26    1
     9    29    25    1
    10    26    25   ar
    11    26    27   ar
    12    25    24   ar
    13    39    35   ar
    14    39    38   ar
    15    12     3    1
    16    27    35    1
    17    27    28   ar
    18    35    36   ar
    19    40    38    1
    20    24    16    1
    21    24    28   ar
    22    38    37   ar
    23    17    16   ar
    24    17    13   ar
    25     9     8    1
    26     7     8    1
    27     7     2    1
    28    16    15   ar
    29     3     2   ar
    30     3     4   ar
    31    36    37   ar
    32    36    41    1
    33    37    46    1
    34    15    23    1
    35    15    14   ar
    36    13    14   ar
    37    13     4    1
    38     8    10    1
    39     2     1   ar
    40    14    18    1
    41     4     5   ar
    42    41    42    1
    43    18    19    1
    44    19    20    1
    45    19    22    1
    46     1     5   ar
    47     1     6    1
    48    42    43    1
    49    42    45    1
