@<TRIPOS>MOLECULE
mol_data/opt/cam/geoms/mol2/5la5la-.out
 24 25 0 0 0
SMALL
GASTEIGER

@<TRIPOS>ATOM
      1 C          -2.6163   -2.0436    0.0989 C.ar    1  LIG1        0.0180
      2 C          -1.2764   -2.1340   -0.1386 C.ar    1  LIG1        0.1277
      3 C          -0.6177   -0.8693   -0.1901 C.ar    1  LIG1       -0.0045
      4 C          -1.4703    0.1789    0.0113 C.ar    1  LIG1        0.0330
      5 S          -3.0987   -0.3898    0.2783 S.2     1  LIG1       -0.0923
      6 H          -3.3476   -2.8310    0.1830 H       1  LIG1        0.0730
      7 O          -0.5423   -3.2573   -0.3265 O.3     1  LIG1       -0.4946
      8 C          -1.2505   -4.4757   -0.2684 C.3     1  LIG1        0.0788
      9 H          -0.5228   -5.2691   -0.4373 H       1  LIG1        0.0660
     10 H          -1.7202   -4.6158    0.7129 H       1  LIG1        0.0660
     11 H          -2.0256   -4.5222   -1.0431 H       1  LIG1        0.0660
     12 H           0.4402   -0.7596   -0.3739 H       1  LIG1        0.0666
     13 C          -1.1586    1.5966    0.0286 C.ar    1  LIG1        0.0676
     14 C           0.0845    2.1875    0.0740 C.ar    1  LIG1        0.1353
     15 C           0.0385    3.6144    0.0932 C.ar    1  LIG1       -0.0123
     16 C          -1.2360    4.0868    0.0590 C.ar    1  LIG1       -0.0202
     17 S          -2.3949    2.8212   -0.0060 S.2     1  LIG1       -0.0924
     18 H          -1.5581    5.1177    0.0620 H       1  LIG1        0.0695
     19 O           1.2092    1.4297    0.0978 O.3     1  LIG1       -0.4939
     20 C           2.4445    2.1052    0.2187 C.3     1  LIG1        0.0788
     21 H           3.2127    1.3331    0.2495 H       1  LIG1        0.0660
     22 H           2.6297    2.7611   -0.6396 H       1  LIG1        0.0660
     23 H           2.4908    2.6953    1.1410 H       1  LIG1        0.0660
     24 H           0.9093    4.2541    0.1314 H       1  LIG1        0.0660
@<TRIPOS>BOND
     1    11     8    1
     2    22    20    1
     3     9     8    1
     4    12     3    1
     5     7     8    1
     6     7     2    1
     7     8    10    1
     8     3     2   ar
     9     3     4   ar
    10     2     1   ar
    11    17    13   ar
    12    17    16   ar
    13     4    13    1
    14     4     5   ar
    15    13    14   ar
    16    16    18    1
    17    16    15   ar
    18    14    15   ar
    19    14    19    1
    20    15    24    1
    21    19    20    1
    22     1     6    1
    23     1     5   ar
    24    20    21    1
    25    20    23    1
