@<TRIPOS>MOLECULE
mol_data/opt/cam/geoms/mol2/5la5la-5la-.out
 35 37 0 0 0
SMALL
GASTEIGER

@<TRIPOS>ATOM
      1 C          -2.6668   -2.3929    0.1317 C.ar    1  LIG1        0.0180
      2 C          -1.3205   -2.4718   -0.0731 C.ar    1  LIG1        0.1277
      3 C          -0.6716   -1.2023   -0.1146 C.ar    1  LIG1       -0.0045
      4 C          -1.5382   -0.1597    0.0618 C.ar    1  LIG1        0.0330
      5 S          -3.1680   -0.7426    0.2920 S.2     1  LIG1       -0.0923
      6 H          -3.3927   -3.1866    0.2013 H       1  LIG1        0.0730
      7 O          -0.5729   -3.5903   -0.2389 O.3     1  LIG1       -0.4946
      8 C          -1.2730   -4.8136   -0.1923 C.3     1  LIG1        0.0788
      9 H          -0.5356   -5.6025   -0.3395 H       1  LIG1        0.0660
     10 H          -1.7660   -4.9528    0.7777 H       1  LIG1        0.0660
     11 H          -2.0287   -4.8697   -0.9855 H       1  LIG1        0.0660
     12 H           0.3892   -1.0834   -0.2740 H       1  LIG1        0.0666
     13 C          -1.2405    1.2578    0.0810 C.ar    1  LIG1        0.0682
     14 C          -0.0070    1.8662    0.1469 C.ar    1  LIG1        0.1359
     15 C          -0.0612    3.2870    0.1691 C.ar    1  LIG1       -0.0039
     16 C          -1.3428    3.7702    0.1157 C.ar    1  LIG1        0.0336
     17 S          -2.4904    2.4691    0.0161 S.2     1  LIG1       -0.0833
     18 O           1.1251    1.1203    0.1914 O.3     1  LIG1       -0.4939
     19 C           2.3499    1.8094    0.3407 C.3     1  LIG1        0.0788
     20 H           3.1259    1.0455    0.3836 H       1  LIG1        0.0660
     21 H           2.5440    2.4722   -0.5101 H       1  LIG1        0.0660
     22 H           2.3697    2.3961    1.2659 H       1  LIG1        0.0660
     23 H           0.7965    3.9382    0.2274 H       1  LIG1        0.0666
     24 C          -1.7744    5.1531    0.1201 C.ar    1  LIG1        0.0676
     25 C          -0.9996    6.2828   -0.0324 C.ar    1  LIG1        0.1353
     26 C          -1.7467    7.4979    0.0081 C.ar    1  LIG1       -0.0123
     27 C          -3.0757    7.2767    0.1936 C.ar    1  LIG1       -0.0202
     28 S          -3.4426    5.6050    0.3309 S.2     1  LIG1       -0.0924
     29 H          -3.8635    8.0121    0.2633 H       1  LIG1        0.0695
     30 O           0.3436    6.1828   -0.2026 O.3     1  LIG1       -0.4939
     31 C           1.0567    7.3800   -0.4414 C.3     1  LIG1        0.0788
     32 H           2.0976    7.0923   -0.5863 H       1  LIG1        0.0660
     33 H           0.6957    7.8884   -1.3424 H       1  LIG1        0.0660
     34 H           0.9896    8.0645    0.4117 H       1  LIG1        0.0660
     35 H          -1.3174    8.4846   -0.0963 H       1  LIG1        0.0660
@<TRIPOS>BOND
     1    33    31    1
     2    11     8    1
     3    32    31    1
     4    21    19    1
     5    31    30    1
     6    31    34    1
     7     9     8    1
     8    12     3    1
     9     7     8    1
    10     7     2    1
    11    30    25    1
    12     8    10    1
    13     3     2   ar
    14     3     4   ar
    15    35    26    1
    16     2     1   ar
    17    25    26   ar
    18    25    24   ar
    19    26    27   ar
    20    17    13   ar
    21    17    16   ar
    22     4    13    1
    23     4     5   ar
    24    13    14   ar
    25    16    24    1
    26    16    15   ar
    27    24    28   ar
    28     1     6    1
    29     1     5   ar
    30    14    15   ar
    31    14    18    1
    32    15    23    1
    33    18    19    1
    34    27    29    1
    35    27    28   ar
    36    19    20    1
    37    19    22    1
