@<TRIPOS>MOLECULE
mol_data/opt/cam/geoms/mol2/5ld.out
 14 14 0 0 0
SMALL
GASTEIGER

@<TRIPOS>ATOM
      1 C          -2.2142   -1.6251    0.0001 C.ar    1  LIG1        0.0187
      2 C          -0.8519   -1.6752   -0.0002 C.ar    1  LIG1        0.1444
      3 C          -0.2530   -0.3663   -0.0002 C.ar    1  LIG1        0.1003
      4 C          -1.1878    0.6298    0.0003 C.ar    1  LIG1       -0.0033
      5 S          -2.7822    0.0097    0.0007 S.2     1  LIG1       -0.1000
      6 H          -2.9164   -2.4432    0.0002 H       1  LIG1        0.0730
      7 H          -1.0023    1.6937    0.0004 H       1  LIG1        0.0707
      8 O          -0.0497   -2.7542   -0.0007 O.3     1  LIG1       -0.4933
      9 C          -0.6927   -4.0148   -0.0008 C.3     1  LIG1        0.0789
     10 H           0.0982   -4.7631   -0.0011 H       1  LIG1        0.0660
     11 H          -1.3142   -4.1385    0.8934 H       1  LIG1        0.0660
     12 H          -1.3147   -4.1381   -0.8947 H       1  LIG1        0.0660
     13 N           2.2965    0.0470   -0.0008 N.1     1  LIG1       -0.1907
     14 C           1.1558   -0.1439   -0.0005 C.1     1  LIG1        0.1034
@<TRIPOS>BOND
     1    12     9    1
     2    10     9    1
     3    13    14    3
     4     9     8    1
     5     9    11    1
     6     8     2    1
     7    14     3    1
     8     2     3   ar
     9     2     1   ar
    10     3     4   ar
    11     1     6    1
    12     1     5   ar
    13     4     7    1
    14     4     5   ar
