@<TRIPOS>MOLECULE
mol_data/opt/cam/geoms/mol2/5le.out
 15 15 0 0 0
SMALL
GASTEIGER

@<TRIPOS>ATOM
      1 C          -2.2149   -1.6326    0.0002 C.ar    1  LIG1        0.0186
      2 C          -0.8526   -1.6644   -0.0003 C.ar    1  LIG1        0.1424
      3 C          -0.2562   -0.3510   -0.0003 C.ar    1  LIG1        0.0732
      4 C          -1.2075    0.6293    0.0003 C.ar    1  LIG1       -0.0053
      5 S          -2.8024   -0.0041    0.0008 S.2     1  LIG1       -0.1001
      6 H          -2.9067   -2.4592    0.0003 H       1  LIG1        0.0730
      7 H          -1.0349    1.6952    0.0004 H       1  LIG1        0.0707
      8 O          -0.0445   -2.7439   -0.0008 O.3     1  LIG1       -0.4934
      9 C          -0.6867   -4.0016   -0.0008 C.3     1  LIG1        0.0789
     10 H           0.1022   -4.7528   -0.0012 H       1  LIG1        0.0660
     11 H          -1.3101   -4.1272    0.8926 H       1  LIG1        0.0660
     12 H          -1.3107   -4.1269   -0.8937 H       1  LIG1        0.0660
     13 C           1.1489   -0.1209   -0.0008 C.1     1  LIG1       -0.0655
     14 C           2.3356    0.0794   -0.0012 C.1     1  LIG1       -0.1138
     15 H           3.3869    0.2517   -0.0015 H       1  LIG1        0.1232
@<TRIPOS>BOND
     1    12     9    1
     2    15    14    1
     3    10     9    1
     4    14    13    3
     5     8     9    1
     6     8     2    1
     7     9    11    1
     8    13     3    1
     9     2     3   ar
    10     2     1   ar
    11     3     4   ar
    12     1     6    1
    13     1     5   ar
    14     4     7    1
    15     4     5   ar
