@<TRIPOS>MOLECULE
mol_data/opt/cam/geoms/mol2/5lf.out
 14 14 0 0 0
SMALL
GASTEIGER

@<TRIPOS>ATOM
      1 C          -2.2128   -1.6197    0.0001 C.ar    1  LIG1        0.0211
      2 C          -0.8527   -1.6595   -0.0002 C.ar    1  LIG1        0.1683
      3 C          -0.2610   -0.3477   -0.0001 C.ar    1  LIG1        0.1656
      4 C          -1.1891    0.6430    0.0003 C.ar    1  LIG1        0.0209
      5 S          -2.8018    0.0093    0.0005 S.2     1  LIG1       -0.0976
      6 H          -2.9056   -2.4459    0.0001 H       1  LIG1        0.0731
      7 H          -1.0175    1.7097    0.0004 H       1  LIG1        0.0731
      8 O          -0.0357   -2.7349   -0.0006 O.3     1  LIG1       -0.4909
      9 C          -0.6767   -3.9921   -0.0007 C.3     1  LIG1        0.0790
     10 H           0.1122   -4.7436   -0.0011 H       1  LIG1        0.0660
     11 H          -1.3009   -4.1190    0.8922 H       1  LIG1        0.0660
     12 H          -1.3013   -4.1187   -0.8934 H       1  LIG1        0.0660
     13 O           1.0912   -0.2381   -0.0004 O.3     1  LIG1       -0.5029
     14 H           1.3319    0.6954   -0.0004 H       1  LIG1        0.2923
@<TRIPOS>BOND
     1    12     9    1
     2    10     9    1
     3     9     8    1
     4     9    11    1
     5     8     2    1
     6    13    14    1
     7    13     3    1
     8     2     3   ar
     9     2     1   ar
    10     3     4   ar
    11     1     6    1
    12     1     5   ar
    13     4     7    1
    14     4     5   ar
