@<TRIPOS>MOLECULE
mol_data/opt/cam/geoms/mol2/5lg.out
 14 14 0 0 0
SMALL
GASTEIGER

@<TRIPOS>ATOM
      1 C          -2.2595   -1.6383    0.0002 C.ar    1  LIG1        0.0185
      2 C          -0.8978   -1.6640   -0.0002 C.ar    1  LIG1        0.1402
      3 C          -0.3066   -0.3546   -0.0002 C.ar    1  LIG1        0.0535
      4 C          -1.2465    0.6255    0.0003 C.ar    1  LIG1       -0.0075
      5 S          -2.8517   -0.0134    0.0006 S.2     1  LIG1       -0.1002
      6 H          -2.9458   -2.4699    0.0002 H       1  LIG1        0.0730
      7 H          -1.0883    1.6940    0.0004 H       1  LIG1        0.0705
      8 O          -0.0738   -2.7347   -0.0007 O.3     1  LIG1       -0.4935
      9 C          -0.6958   -4.0028   -0.0007 C.3     1  LIG1        0.0789
     10 H           0.1045   -4.7416   -0.0011 H       1  LIG1        0.0660
     11 H          -1.3168   -4.1366    0.8928 H       1  LIG1        0.0660
     12 H          -1.3173   -4.1363   -0.8939 H       1  LIG1        0.0660
     13 S           1.4556   -0.1928   -0.0007 S.3     1  LIG1       -0.1386
     14 H           1.4679    1.1502   -0.0004 H       1  LIG1        0.1072
@<TRIPOS>BOND
     1    12     9    1
     2    10     9    1
     3     9     8    1
     4     9    11    1
     5     8     2    1
     6    13    14    1
     7    13     3    1
     8     2     3   ar
     9     2     1   ar
    10     3     4   ar
    11     1     6    1
    12     1     5   ar
    13     4     7    1
    14     4     5   ar
