@<TRIPOS>MOLECULE
mol_data/opt/cam/geoms/mol2/5lg5lg-.out
 26 27 0 0 0
SMALL
GASTEIGER

@<TRIPOS>ATOM
      1 C          -2.0533   -1.8984    0.8533 C.ar    1  LIG1        0.0191
      2 C          -1.0877   -1.9995   -0.1003 C.ar    1  LIG1        0.1408
      3 C          -0.5840   -0.7297   -0.5511 C.ar    1  LIG1        0.0619
      4 C          -1.1976    0.3200    0.0831 C.ar    1  LIG1        0.0462
      5 S          -2.3682   -0.2480    1.2497 S.2     1  LIG1       -0.0912
      6 H          -2.5897   -2.6906    1.3506 H       1  LIG1        0.0731
      7 O          -0.5843   -3.1196   -0.6600 O.3     1  LIG1       -0.4935
      8 C          -1.1281   -4.3433   -0.2116 C.3     1  LIG1        0.0789
      9 H          -0.6177   -5.1304   -0.7650 H       1  LIG1        0.0660
     10 H          -0.9559   -4.4816    0.8624 H       1  LIG1        0.0660
     11 H          -2.2048   -4.3939   -0.4121 H       1  LIG1        0.0660
     12 S           0.6255   -0.7027   -1.8379 S.3     1  LIG1       -0.1380
     13 H           1.1343    0.5057   -1.5334 H       1  LIG1        0.1072
     14 C          -1.0343    1.7546   -0.1141 C.ar    1  LIG1        0.0698
     15 C           0.1104    2.4988   -0.2290 C.ar    1  LIG1        0.1484
     16 C          -0.1197    3.8959   -0.4346 C.ar    1  LIG1        0.0542
     17 C          -1.4446    4.1967   -0.4589 C.ar    1  LIG1       -0.0069
     18 S          -2.4261    2.7933   -0.2468 S.2     1  LIG1       -0.0912
     19 H          -1.9064    5.1646   -0.5874 H       1  LIG1        0.0706
     20 O           1.3900    2.0188   -0.1965 O.3     1  LIG1       -0.4928
     21 C           1.8274    1.5156    1.0688 C.3     1  LIG1        0.0789
     22 H           2.8727    1.2371    0.9394 H       1  LIG1        0.0660
     23 H           1.7446    2.2913    1.8353 H       1  LIG1        0.0660
     24 H           1.2471    0.6379    1.3645 H       1  LIG1        0.0660
     25 S           1.2672    4.9809   -0.6033 S.3     1  LIG1       -0.1386
     26 H           0.5493    6.1150   -0.6489 H       1  LIG1        0.1072
@<TRIPOS>BOND
     1    12    13    1
     2    12     3    1
     3     9     8    1
     4     7     8    1
     5     7     2    1
     6    26    25    1
     7    25    16    1
     8    19    17    1
     9     3     2   ar
    10     3     4   ar
    11    17    16   ar
    12    17    18   ar
    13    16    15   ar
    14    11     8    1
    15    18    14   ar
    16    15    20    1
    17    15    14   ar
    18     8    10    1
    19    20    21    1
    20    14     4    1
    21     2     1   ar
    22     4     5   ar
    23     1     5   ar
    24     1     6    1
    25    22    21    1
    26    21    24    1
    27    21    23    1
