@<TRIPOS>MOLECULE
mol_data/opt/cam/geoms/mol2/5lg5lg-5lg-5lg-.out
 50 53 0 0 0
SMALL
GASTEIGER

@<TRIPOS>ATOM
      1 C          -1.3442   -2.1663    0.7810 C.ar    1  LIG1        0.0191
      2 C          -0.0450   -1.9666    0.4277 C.ar    1  LIG1        0.1408
      3 C           0.2409   -0.6199    0.0125 C.ar    1  LIG1        0.0619
      4 C          -0.8709    0.1822    0.0680 C.ar    1  LIG1        0.0462
      5 S          -2.2692   -0.7207    0.6019 S.2     1  LIG1       -0.0912
      6 H          -1.8126   -3.0743    1.1256 H       1  LIG1        0.0731
      7 O           0.9683   -2.8581    0.4421 O.3     1  LIG1       -0.4935
      8 C           0.6507   -4.1608    0.8856 C.3     1  LIG1        0.0789
      9 H           1.5731   -4.7380    0.8370 H       1  LIG1        0.0660
     10 H           0.2812   -4.1474    1.9177 H       1  LIG1        0.0660
     11 H          -0.1044   -4.6243    0.2397 H       1  LIG1        0.0660
     12 S           1.9043   -0.1955   -0.4040 S.3     1  LIG1       -0.1380
     13 H           1.5918    0.8565   -1.1821 H       1  LIG1        0.1072
     14 C          -1.0153    1.6073   -0.1994 C.ar    1  LIG1        0.0704
     15 C          -0.5412    2.3533   -1.2431 C.ar    1  LIG1        0.1491
     16 C          -0.8613    3.7461   -1.1661 C.ar    1  LIG1        0.0626
     17 C          -1.6088    4.0523   -0.0545 C.ar    1  LIG1        0.0468
     18 S          -1.8948    2.6195    0.9065 S.2     1  LIG1       -0.0822
     19 O           0.2130    1.8714   -2.2807 O.3     1  LIG1       -0.4928
     20 C          -0.4903    1.0314   -3.2026 C.3     1  LIG1        0.0789
     21 H          -0.8514    0.1271   -2.7072 H       1  LIG1        0.0660
     22 H          -1.3313    1.5733   -3.6447 H       1  LIG1        0.0660
     23 H           0.2263    0.7627   -3.9785 H       1  LIG1        0.0660
     24 S          -0.3157    4.8800   -2.4086 S.3     1  LIG1       -0.1380
     25 H           0.4566    3.9643   -3.0187 H       1  LIG1        0.1072
     26 C          -2.1752    5.3228    0.3620 C.ar    1  LIG1        0.0704
     27 C          -2.5718    5.6764    1.6269 C.ar    1  LIG1        0.1491
     28 C          -3.1267    6.9860    1.7256 C.ar    1  LIG1        0.0626
     29 C          -3.1548    7.6380    0.5175 C.ar    1  LIG1        0.0468
     30 S          -2.4892    6.6275   -0.7411 S.2     1  LIG1       -0.0822
     31 O          -2.4950    4.8472    2.7079 O.3     1  LIG1       -0.4928
     32 C          -1.2708    4.9399    3.4420 C.3     1  LIG1        0.0789
     33 H          -0.4196    4.6658    2.8119 H       1  LIG1        0.0660
     34 H          -1.1324    5.9506    3.8363 H       1  LIG1        0.0660
     35 H          -1.3551    4.2334    4.2672 H       1  LIG1        0.0660
     36 S          -3.6726    7.5331    3.3174 S.3     1  LIG1       -0.1380
     37 H          -3.7377    8.8397    3.0148 H       1  LIG1        0.1072
     38 C          -3.6654    8.9548    0.1654 C.ar    1  LIG1        0.0698
     39 C          -3.1618    9.8129   -0.7789 C.ar    1  LIG1        0.1484
     40 C          -3.9354   11.0026   -0.9588 C.ar    1  LIG1        0.0542
     41 C          -5.0261   11.0297   -0.1491 C.ar    1  LIG1       -0.0069
     42 S          -5.1347    9.6151    0.8350 S.2     1  LIG1       -0.0912
     43 H          -5.7776   11.8009   -0.0643 H       1  LIG1        0.0706
     44 O          -2.0572    9.5702   -1.5393 O.3     1  LIG1       -0.4928
     45 C          -0.8151    9.8716   -0.9025 C.3     1  LIG1        0.0789
     46 H          -0.0356    9.6459   -1.6295 H       1  LIG1        0.0660
     47 H          -0.7675   10.9302   -0.6286 H       1  LIG1        0.0660
     48 H          -0.6728    9.2521   -0.0120 H       1  LIG1        0.0660
     49 S          -3.4077   12.2021   -2.1466 S.3     1  LIG1       -0.1386
     50 H          -4.3038   13.1416   -1.8037 H       1  LIG1        0.1072
@<TRIPOS>BOND
     1    23    20    1
     2    22    20    1
     3    20    21    1
     4    20    19    1
     5    25    24    1
     6    24    16    1
     7    19    15    1
     8    49    50    1
     9    49    40    1
    10    46    45    1
    11    44    45    1
    12    44    39    1
    13    15    16   ar
    14    15    14   ar
    15    13    12    1
    16    16    17   ar
    17    40    39   ar
    18    40    41   ar
    19    45    47    1
    20    45    48    1
    21    39    38   ar
    22    30    26   ar
    23    30    29   ar
    24    12     3    1
    25    14     4    1
    26    14    18   ar
    27    41    43    1
    28    41    42   ar
    29    17    26    1
    30    17    18   ar
    31     3     4   ar
    32     3     2   ar
    33     4     5   ar
    34    38    29    1
    35    38    42   ar
    36    11     8    1
    37    26    27   ar
    38     2     7    1
    39     2     1   ar
    40     7     8    1
    41    29    28   ar
    42     5     1   ar
    43     1     6    1
    44     9     8    1
    45     8    10    1
    46    27    28   ar
    47    27    31    1
    48    28    36    1
    49    31    32    1
    50    33    32    1
    51    37    36    1
    52    32    34    1
    53    32    35    1
