@<TRIPOS>MOLECULE
mol_data/opt/cam/geoms/mol2/5lg5lg5lg5lg-.out
 50 53 0 0 0
SMALL
GASTEIGER

@<TRIPOS>ATOM
      1 C          -1.3972   -2.1874   -1.1926 C.ar    1  LIG1        0.0191
      2 C          -0.1120   -2.0813   -0.7569 C.ar    1  LIG1        0.1408
      3 C           0.2016   -0.7987   -0.1868 C.ar    1  LIG1        0.0619
      4 C          -0.8758    0.0505   -0.2109 C.ar    1  LIG1        0.0462
      5 S          -2.2763   -0.7305   -0.9058 S.2     1  LIG1       -0.0912
      6 H          -1.8802   -3.0339   -1.6540 H       1  LIG1        0.0731
      7 O           0.8662   -3.0092   -0.8173 O.3     1  LIG1       -0.4935
      8 C           0.5237   -4.2427   -1.4135 C.3     1  LIG1        0.0789
      9 H           1.4202   -4.8605   -1.3839 H       1  LIG1        0.0660
     10 H          -0.2805   -4.7396   -0.8580 H       1  LIG1        0.0660
     11 H           0.2086   -4.1041   -2.4544 H       1  LIG1        0.0660
     12 S           1.8543   -0.4888    0.3534 S.3     1  LIG1       -0.1380
     13 H           1.5380    0.4786    1.2348 H       1  LIG1        0.1072
     14 C          -0.9783    1.4445    0.1995 C.ar    1  LIG1        0.0704
     15 C          -0.5201    2.0568    1.3342 C.ar    1  LIG1        0.1491
     16 C          -0.7748    3.4612    1.3919 C.ar    1  LIG1        0.0626
     17 C          -1.4620    3.9161    0.2939 C.ar    1  LIG1        0.0468
     18 S          -1.7550    2.6098   -0.8293 S.2     1  LIG1       -0.0822
     19 O           0.1657    1.4497    2.3500 O.3     1  LIG1       -0.4928
     20 C          -0.6068    0.5609    3.1618 C.3     1  LIG1        0.0789
     21 H           0.0639    0.2007    3.9413 H       1  LIG1        0.0660
     22 H          -1.4467    1.0945    3.6158 H       1  LIG1        0.0660
     23 H          -0.9767   -0.2839    2.5751 H       1  LIG1        0.0660
     24 S          -0.1611    4.3313    2.8040 S.3     1  LIG1       -0.1380
     25 H          -0.5399    5.5561    2.4054 H       1  LIG1        0.1072
     26 C          -1.9705    5.2443   -0.0176 C.ar    1  LIG1        0.0704
     27 C          -2.0399    5.8344   -1.2516 C.ar    1  LIG1        0.1491
     28 C          -2.6554    7.1279   -1.2634 C.ar    1  LIG1        0.0626
     29 C          -3.0727    7.5144   -0.0152 C.ar    1  LIG1        0.0468
     30 S          -2.6936    6.2894    1.1731 S.2     1  LIG1       -0.0822
     31 O          -1.6352    5.2273   -2.4006 O.3     1  LIG1       -0.4928
     32 C          -0.2663    5.4478   -2.7426 C.3     1  LIG1        0.0789
     33 H          -0.0721    6.5145   -2.8883 H       1  LIG1        0.0660
     34 H           0.3959    5.0494   -1.9677 H       1  LIG1        0.0660
     35 H          -0.0946    4.9150   -3.6773 H       1  LIG1        0.0660
     36 S          -2.8612    7.9537   -2.8110 S.3     1  LIG1       -0.1380
     37 H          -2.8603    9.2027   -2.3070 H       1  LIG1        0.1072
     38 C          -3.7825    8.7123    0.4097 C.ar    1  LIG1        0.0698
     39 C          -3.5527   10.0221    0.0796 C.ar    1  LIG1        0.1484
     40 C          -4.4652   10.9449    0.6806 C.ar    1  LIG1        0.0542
     41 C          -5.3725   10.3184    1.4757 C.ar    1  LIG1       -0.0069
     42 S          -5.1424    8.6084    1.4920 S.2     1  LIG1       -0.0912
     43 H          -6.1703   10.7606    2.0541 H       1  LIG1        0.0706
     44 O          -2.5735   10.4677   -0.7648 O.3     1  LIG1       -0.4928
     45 C          -1.2531   10.4659   -0.2152 C.3     1  LIG1        0.0789
     46 H          -0.5996   10.8681   -0.9889 H       1  LIG1        0.0660
     47 H          -1.2091   11.1043    0.6716 H       1  LIG1        0.0660
     48 H          -0.9389    9.4505    0.0417 H       1  LIG1        0.0660
     49 S          -4.2952   12.6721    0.3386 S.3     1  LIG1       -0.1386
     50 H          -5.2245   13.0795    1.2182 H       1  LIG1        0.1072
@<TRIPOS>BOND
     1    35    32    1
     2    33    32    1
     3    36    37    1
     4    36    28    1
     5    32    31    1
     6    32    34    1
     7    11     8    1
     8    31    27    1
     9     6     1    1
    10     8     9    1
    11     8    10    1
    12     8     7    1
    13    28    27   ar
    14    28    29   ar
    15    27    26   ar
    16     1     5   ar
    17     1     2   ar
    18    46    45    1
    19     5     4   ar
    20    18    14   ar
    21    18    17   ar
    22     7     2    1
    23    44    45    1
    24    44    39    1
    25     2     3   ar
    26    45    48    1
    27    45    47    1
    28     4     3   ar
    29     4    14    1
    30     3    12    1
    31    26    17    1
    32    26    30   ar
    33    29    38    1
    34    29    30   ar
    35    39    38   ar
    36    39    40   ar
    37    14    15   ar
    38    17    16   ar
    39    49    40    1
    40    49    50    1
    41    12    13    1
    42    38    42   ar
    43    40    41   ar
    44    15    16   ar
    45    15    19    1
    46    16    24    1
    47    41    42   ar
    48    41    43    1
    49    19    20    1
    50    25    24    1
    51    23    20    1
    52    20    22    1
    53    20    21    1
