@<TRIPOS>MOLECULE
mol_data/opt/cam/geoms/mol2/5lg5lg.out
 26 27 0 0 0
SMALL
GASTEIGER

@<TRIPOS>ATOM
      1 C          -2.1042   -1.8800    0.8092 C.ar    1  LIG1        0.0191
      2 C          -1.1153   -1.9896   -0.1194 C.ar    1  LIG1        0.1408
      3 C          -0.5838   -0.7245   -0.5511 C.ar    1  LIG1        0.0619
      4 C          -1.2004    0.3303    0.0715 C.ar    1  LIG1        0.0462
      5 S          -2.4083   -0.2274    1.2047 S.2     1  LIG1       -0.0912
      6 H          -2.6634   -2.6674    1.2887 H       1  LIG1        0.0731
      7 O          -0.6118   -3.1137   -0.6708 O.3     1  LIG1       -0.4935
      8 C          -1.1826   -4.3322   -0.2422 C.3     1  LIG1        0.0789
      9 H          -0.6679   -5.1235   -0.7855 H       1  LIG1        0.0660
     10 H          -1.0403   -4.4771    0.8354 H       1  LIG1        0.0660
     11 H          -2.2543   -4.3682   -0.4709 H       1  LIG1        0.0660
     12 S           0.6590   -0.7077   -1.8058 S.3     1  LIG1       -0.1380
     13 H           1.1751    0.4928   -1.4827 H       1  LIG1        0.1072
     14 C          -1.0137    1.7636   -0.1149 C.ar    1  LIG1        0.0698
     15 C           0.1429    2.4935   -0.1965 C.ar    1  LIG1        0.1484
     16 C          -0.0639    3.8942   -0.4017 C.ar    1  LIG1        0.0542
     17 C          -1.3838    4.2121   -0.4592 C.ar    1  LIG1       -0.0069
     18 S          -2.3882    2.8206   -0.2791 S.2     1  LIG1       -0.0912
     19 H          -1.8297    5.1864   -0.5954 H       1  LIG1        0.0706
     20 O           1.4150    1.9969   -0.1327 O.3     1  LIG1       -0.4928
     21 C           1.8127    1.4829    1.1412 C.3     1  LIG1        0.0789
     22 H           2.8575    1.1915    1.0379 H       1  LIG1        0.0660
     23 H           1.7198    2.2563    1.9088 H       1  LIG1        0.0660
     24 H           1.2138    0.6114    1.4177 H       1  LIG1        0.0660
     25 S           1.3407    4.9620   -0.5293 S.3     1  LIG1       -0.1386
     26 H           0.6387    6.1054   -0.5885 H       1  LIG1        0.1072
@<TRIPOS>BOND
     1    12    13    1
     2    12     3    1
     3     9     8    1
     4     7     8    1
     5     7     2    1
     6    19    17    1
     7    26    25    1
     8     3     2   ar
     9     3     4   ar
    10    25    16    1
    11    11     8    1
    12    17    16   ar
    13    17    18   ar
    14    16    15   ar
    15    18    14   ar
    16     8    10    1
    17    15    20    1
    18    15    14   ar
    19    20    21    1
    20     2     1   ar
    21    14     4    1
    22     4     5   ar
    23     1     5   ar
    24     1     6    1
    25    22    21    1
    26    21    24    1
    27    21    23    1
