@<TRIPOS>MOLECULE
mol_data/opt/cam/geoms/mol2/5lg5lg5lg5lg.out
 50 53 0 0 0
SMALL
GASTEIGER

@<TRIPOS>ATOM
      1 C          -1.4339   -2.1690   -1.2848 C.ar    1  LIG1        0.0191
      2 C          -0.1373   -2.0698   -0.8826 C.ar    1  LIG1        0.1408
      3 C           0.1926   -0.7961   -0.3019 C.ar    1  LIG1        0.0619
      4 C          -0.8844    0.0537   -0.2841 C.ar    1  LIG1        0.0462
      5 S          -2.3038   -0.7163   -0.9525 S.2     1  LIG1       -0.0912
      6 H          -1.9298   -3.0082   -1.7456 H       1  LIG1        0.0731
      7 O           0.8383   -2.9971   -0.9833 O.3     1  LIG1       -0.4935
      8 C           0.4788   -4.2213   -1.5885 C.3     1  LIG1        0.0789
      9 H           1.3753   -4.8399   -1.5925 H       1  LIG1        0.0660
     10 H          -0.3104   -4.7263   -1.0190 H       1  LIG1        0.0660
     11 H           0.1358   -4.0670   -2.6183 H       1  LIG1        0.0660
     12 S           1.8595   -0.4949    0.1980 S.3     1  LIG1       -0.1380
     13 H           1.5679    0.4593    1.1021 H       1  LIG1        0.1072
     14 C          -0.9748    1.4414    0.1499 C.ar    1  LIG1        0.0704
     15 C          -0.4857    2.0364    1.2808 C.ar    1  LIG1        0.1491
     16 C          -0.7376    3.4399    1.3666 C.ar    1  LIG1        0.0626
     17 C          -1.4539    3.9115    0.2945 C.ar    1  LIG1        0.0468
     18 S          -1.7782    2.6224   -0.8398 S.2     1  LIG1       -0.0822
     19 O           0.2270    1.4139    2.2685 O.3     1  LIG1       -0.4928
     20 C          -0.5240    0.5132    3.0875 C.3     1  LIG1        0.0789
     21 H           0.1673    0.1410    3.8430 H       1  LIG1        0.0660
     22 H          -1.3509    1.0402    3.5720 H       1  LIG1        0.0660
     23 H          -0.9102   -0.3226    2.4984 H       1  LIG1        0.0660
     24 S          -0.0853    4.2885    2.7745 S.3     1  LIG1       -0.1380
     25 H          -0.4739    5.5192    2.4047 H       1  LIG1        0.1072
     26 C          -1.9697    5.2444    0.0169 C.ar    1  LIG1        0.0704
     27 C          -2.0720    5.8530   -1.2058 C.ar    1  LIG1        0.1491
     28 C          -2.6866    7.1468   -1.1814 C.ar    1  LIG1        0.0626
     29 C          -3.0697    7.5145    0.0833 C.ar    1  LIG1        0.0468
     30 S          -2.6596    6.2717    1.2423 S.2     1  LIG1       -0.0822
     31 O          -1.6990    5.2631   -2.3742 O.3     1  LIG1       -0.4928
     32 C          -0.3397    5.4884   -2.7499 C.3     1  LIG1        0.0789
     33 H          -0.1937    4.9696   -3.6967 H       1  LIG1        0.0660
     34 H          -0.1487    6.5571   -2.8846 H       1  LIG1        0.0660
     35 H           0.3429    5.0781   -1.9992 H       1  LIG1        0.0660
     36 S          -2.9336    7.9959   -2.7103 S.3     1  LIG1       -0.1380
     37 H          -2.9181    9.2371   -2.1877 H       1  LIG1        0.1072
     38 C          -3.7669    8.7061    0.5452 C.ar    1  LIG1        0.0698
     39 C          -3.5452   10.0208    0.2288 C.ar    1  LIG1        0.1484
     40 C          -4.4404   10.9346    0.8681 C.ar    1  LIG1        0.0542
     41 C          -5.3263   10.2965    1.6779 C.ar    1  LIG1       -0.0069
     42 S          -5.0972    8.5865    1.6622 S.2     1  LIG1       -0.0912
     43 H          -6.1079   10.7303    2.2843 H       1  LIG1        0.0706
     44 O          -2.5888   10.4787   -0.6350 O.3     1  LIG1       -0.4928
     45 C          -1.2540   10.4681   -0.1215 C.3     1  LIG1        0.0789
     46 H          -0.6214   10.8817   -0.9064 H       1  LIG1        0.0660
     47 H          -1.1856   11.0931    0.7734 H       1  LIG1        0.0660
     48 H          -0.9338    9.4489    0.1115 H       1  LIG1        0.0660
     49 S          -4.2785   12.6667    0.5477 S.3     1  LIG1       -0.1386
     50 H          -5.1833   13.0612    1.4581 H       1  LIG1        0.1072
@<TRIPOS>BOND
     1    33    32    1
     2    34    32    1
     3    32    31    1
     4    32    35    1
     5    36    37    1
     6    36    28    1
     7    11     8    1
     8    31    27    1
     9     6     1    1
    10     9     8    1
    11     8    10    1
    12     8     7    1
    13     1     5   ar
    14     1     2   ar
    15    27    28   ar
    16    27    26   ar
    17    28    29   ar
    18     7     2    1
    19     5     4   ar
    20    46    45    1
    21     2     3   ar
    22    18    14   ar
    23    18    17   ar
    24    44    45    1
    25    44    39    1
    26     3     4   ar
    27     3    12    1
    28     4    14    1
    29    45    48    1
    30    45    47    1
    31    26    17    1
    32    26    30   ar
    33    29    38    1
    34    29    30   ar
    35    14    15   ar
    36    12    13    1
    37    39    38   ar
    38    39    40   ar
    39    17    16   ar
    40    38    42   ar
    41    49    40    1
    42    49    50    1
    43    40    41   ar
    44    15    16   ar
    45    15    19    1
    46    16    24    1
    47    42    41   ar
    48    41    43    1
    49    19    20    1
    50    25    24    1
    51    23    20    1
    52    20    22    1
    53    20    21    1
