@<TRIPOS>MOLECULE
mol_data/opt/cam/geoms/mol2/5lg5lg-5lg-.out
 38 40 0 0 0
SMALL
GASTEIGER

@<TRIPOS>ATOM
      1 C          -1.8151   -1.9113    1.2871 C.ar    1  LIG1        0.0191
      2 C          -1.2358   -2.1356    0.0762 C.ar    1  LIG1        0.1408
      3 C          -0.7931   -0.9374   -0.5861 C.ar    1  LIG1        0.0619
      4 C          -1.0606    0.1852    0.1549 C.ar    1  LIG1        0.0462
      5 S          -1.8253   -0.2288    1.6717 S.2     1  LIG1       -0.0912
      6 H          -2.2256   -2.6307    1.9774 H       1  LIG1        0.0731
      7 O          -1.0559   -3.3158   -0.5527 O.3     1  LIG1       -0.4935
      8 C          -1.5338   -4.4627    0.1182 C.3     1  LIG1        0.0789
      9 H          -1.3139   -5.3127   -0.5264 H       1  LIG1        0.0660
     10 H          -1.0283   -4.5954    1.0822 H       1  LIG1        0.0660
     11 H          -2.6156   -4.4003    0.2856 H       1  LIG1        0.0660
     12 S          -0.0889   -1.0663   -2.2002 S.3     1  LIG1       -0.1380
     13 H           0.6444    0.0600   -2.1215 H       1  LIG1        0.1072
     14 C          -0.8433    1.5915   -0.1594 C.ar    1  LIG1        0.0704
     15 C           0.2657    2.2114   -0.6672 C.ar    1  LIG1        0.1491
     16 C           0.1350    3.6271   -0.8380 C.ar    1  LIG1        0.0626
     17 C          -1.0986    4.0825   -0.4464 C.ar    1  LIG1        0.0468
     18 S          -2.0868    2.7684    0.1426 S.2     1  LIG1       -0.0822
     19 O           1.4090    1.5623   -1.0389 O.3     1  LIG1       -0.4928
     20 C           2.3165    1.2836    0.0291 C.3     1  LIG1        0.0789
     21 H           3.1614    0.7584   -0.4155 H       1  LIG1        0.0660
     22 H           2.6631    2.2151    0.4856 H       1  LIG1        0.0660
     23 H           1.8433    0.6487    0.7836 H       1  LIG1        0.0660
     24 S           1.4821    4.5229   -1.5481 S.3     1  LIG1       -0.1380
     25 H           1.1926    5.7022   -0.9652 H       1  LIG1        0.1072
     26 C          -1.6625    5.4243   -0.5006 C.ar    1  LIG1        0.0698
     27 C          -1.1054    6.6176   -0.1228 C.ar    1  LIG1        0.1484
     28 C          -1.9536    7.7502   -0.3304 C.ar    1  LIG1        0.0542
     29 C          -3.1567    7.3956   -0.8540 C.ar    1  LIG1       -0.0069
     30 S          -3.2695    5.6936   -1.1137 S.2     1  LIG1       -0.0912
     31 H          -3.9889    8.0361   -1.1068 H       1  LIG1        0.0706
     32 O           0.1534    6.7824    0.3868 O.3     1  LIG1       -0.4928
     33 C           0.3230    6.3428    1.7372 C.3     1  LIG1        0.0789
     34 H          -0.3559    6.8842    2.4020 H       1  LIG1        0.0660
     35 H           0.1468    5.2671    1.8228 H       1  LIG1        0.0660
     36 H           1.3550    6.5689    2.0042 H       1  LIG1        0.0660
     37 S          -1.3645    9.3600    0.1064 S.3     1  LIG1       -0.1386
     38 H          -2.5234    9.9986   -0.1223 H       1  LIG1        0.1072
@<TRIPOS>BOND
     1    12    13    1
     2    12     3    1
     3    24    25    1
     4    24    16    1
     5    30    29   ar
     6    30    26   ar
     7    31    29    1
     8    19    15    1
     9    19    20    1
    10    29    28   ar
    11    16    15   ar
    12    16    17   ar
    13    15    14   ar
    14     3     2   ar
    15     3     4   ar
    16     7     2    1
    17     7     8    1
    18     9     8    1
    19    26    17    1
    20    26    27   ar
    21    17    18   ar
    22    21    20    1
    23    28    27   ar
    24    28    37    1
    25    14    18   ar
    26    14     4    1
    27    27    32    1
    28    38    37    1
    29    20    22    1
    30    20    23    1
    31     2     1   ar
    32     8    11    1
    33     8    10    1
    34     4     5   ar
    35    32    33    1
    36     1     5   ar
    37     1     6    1
    38    33    35    1
    39    33    36    1
    40    33    34    1
