@<TRIPOS>MOLECULE
mol_data/opt/cam/geoms/mol2/5lg5lg5lg.out
 38 40 0 0 0
SMALL
GASTEIGER

@<TRIPOS>ATOM
      1 C          -1.9329   -1.8241   -1.4447 C.ar    1  LIG1        0.0191
      2 C          -1.3602   -2.1106   -0.2438 C.ar    1  LIG1        0.1408
      3 C          -0.8850   -0.9514    0.4637 C.ar    1  LIG1        0.0619
      4 C          -1.1216    0.2059   -0.2333 C.ar    1  LIG1        0.0462
      5 S          -1.8971   -0.1284   -1.7642 S.2     1  LIG1       -0.0912
      6 H          -2.3628   -2.5049   -2.1618 H       1  LIG1        0.0731
      7 O          -1.2127   -3.3186    0.3390 O.3     1  LIG1       -0.4935
      8 C          -1.7216   -4.4254   -0.3752 C.3     1  LIG1        0.0789
      9 H          -1.5252   -5.3052    0.2360 H       1  LIG1        0.0660
     10 H          -2.8013   -4.3271   -0.5391 H       1  LIG1        0.0660
     11 H          -1.2198   -4.5346   -1.3440 H       1  LIG1        0.0660
     12 S          -0.1849   -1.1615    2.0710 S.3     1  LIG1       -0.1380
     13 H           0.5789   -0.0535    2.0351 H       1  LIG1        0.1072
     14 C          -0.8661    1.5925    0.1348 C.ar    1  LIG1        0.0704
     15 C           0.2594    2.1619    0.6651 C.ar    1  LIG1        0.1491
     16 C           0.1674    3.5730    0.8904 C.ar    1  LIG1        0.0626
     17 C          -1.0533    4.0767    0.5177 C.ar    1  LIG1        0.0468
     18 S          -2.0769    2.8137   -0.1206 S.2     1  LIG1       -0.0822
     19 O           1.3844    1.4680    1.0105 O.3     1  LIG1       -0.4928
     20 C           2.2842    1.2060   -0.0682 C.3     1  LIG1        0.0789
     21 H           3.1143    0.6411    0.3551 H       1  LIG1        0.0660
     22 H           1.7939    0.6138   -0.8463 H       1  LIG1        0.0660
     23 H           2.6561    2.1446   -0.4888 H       1  LIG1        0.0660
     24 S           1.5383    4.4037    1.6332 S.3     1  LIG1       -0.1380
     25 H           1.2812    5.6120    1.0964 H       1  LIG1        0.1072
     26 C          -1.5803    5.4303    0.6240 C.ar    1  LIG1        0.0698
     27 C          -0.9907    6.6216    0.2919 C.ar    1  LIG1        0.1484
     28 C          -1.8077    7.7681    0.5438 C.ar    1  LIG1        0.0542
     29 C          -3.0202    7.4265    1.0544 C.ar    1  LIG1       -0.0069
     30 S          -3.1795    5.7195    1.2484 S.2     1  LIG1       -0.0912
     31 H          -3.8347    8.0793    1.3323 H       1  LIG1        0.0706
     32 O           0.2721    6.7715   -0.2121 O.3     1  LIG1       -0.4928
     33 C           0.4299    6.3797   -1.5786 C.3     1  LIG1        0.0789
     34 H          -0.2338    6.9647   -2.2214 H       1  LIG1        0.0660
     35 H           1.4678    6.5877   -1.8376 H       1  LIG1        0.0660
     36 H           0.2243    5.3134   -1.7054 H       1  LIG1        0.0660
     37 S          -1.1748    9.3768    0.1687 S.3     1  LIG1       -0.1386
     38 H          -2.3159   10.0375    0.4228 H       1  LIG1        0.1072
@<TRIPOS>BOND
     1    34    33    1
     2     6     1    1
     3    35    33    1
     4     5     1   ar
     5     5     4   ar
     6    36    33    1
     7    33    32    1
     8     1     2   ar
     9    11     8    1
    10    22    20    1
    11    10     8    1
    12    23    20    1
    13     8     9    1
    14     8     7    1
    15     2     7    1
    16     2     3   ar
    17     4    14    1
    18     4     3   ar
    19    32    27    1
    20    18    14   ar
    21    18    17   ar
    22    20    21    1
    23    20    19    1
    24    14    15   ar
    25    37    38    1
    26    37    28    1
    27    27    28   ar
    28    27    26   ar
    29     3    12    1
    30    17    26    1
    31    17    16   ar
    32    28    29   ar
    33    26    30   ar
    34    15    16   ar
    35    15    19    1
    36    16    24    1
    37    29    30   ar
    38    29    31    1
    39    25    24    1
    40    13    12    1
