@<TRIPOS>MOLECULE
mol_data/opt/cam/geoms/mol2/5lg5lg-5lg-5lg.out
 50 53 0 0 0
SMALL
GASTEIGER

@<TRIPOS>ATOM
      1 C          -0.2279   -1.7953    2.0548 C.ar    1  LIG1        0.0191
      2 C          -0.6137   -2.1869    0.8098 C.ar    1  LIG1        0.1408
      3 C          -0.8498   -1.0937   -0.0948 C.ar    1  LIG1        0.0619
      4 C          -0.6372    0.1221    0.5040 C.ar    1  LIG1        0.0462
      5 S          -0.1223   -0.0759    2.1632 S.2     1  LIG1       -0.0912
      6 H           0.0073   -2.4111    2.9081 H       1  LIG1        0.0731
      7 O          -0.8086   -3.4427    0.3560 O.3     1  LIG1       -0.4935
      8 C          -0.6026   -4.4847    1.2865 C.3     1  LIG1        0.0789
      9 H          -0.8097   -5.4155    0.7601 H       1  LIG1        0.0660
     10 H           0.4327   -4.4924    1.6478 H       1  LIG1        0.0660
     11 H          -1.2810   -4.3894    2.1425 H       1  LIG1        0.0660
     12 S          -1.4285   -1.4503   -1.7247 S.3     1  LIG1       -0.1380
     13 H          -0.9770   -0.3138   -2.2874 H       1  LIG1        0.1072
     14 C          -0.8207    1.4688   -0.0200 C.ar    1  LIG1        0.0704
     15 C          -0.4337    1.9989   -1.2201 C.ar    1  LIG1        0.1491
     16 C          -0.7663    3.3770   -1.3914 C.ar    1  LIG1        0.0626
     17 C          -1.4171    3.9030   -0.3018 C.ar    1  LIG1        0.0468
     18 S          -1.6006    2.6872    0.9425 S.2     1  LIG1       -0.0822
     19 O           0.1996    1.3176   -2.2227 O.3     1  LIG1       -0.4928
     20 C           1.5799    1.0306   -1.9837 C.3     1  LIG1        0.0789
     21 H           1.9396    0.5049   -2.8678 H       1  LIG1        0.0660
     22 H           2.1430    1.9591   -1.8532 H       1  LIG1        0.0660
     23 H           1.6993    0.3940   -1.1030 H       1  LIG1        0.0660
     24 S          -0.2695    4.1402   -2.9087 S.3     1  LIG1       -0.1380
     25 H          -0.3971    5.4106   -2.4930 H       1  LIG1        0.1072
     26 C          -1.9693    5.2305   -0.0813 C.ar    1  LIG1        0.0704
     27 C          -2.1461    5.8629    1.1224 C.ar    1  LIG1        0.1491
     28 C          -2.7910    7.1381    1.0425 C.ar    1  LIG1        0.0626
     29 C          -3.1191    7.4712   -0.2470 C.ar    1  LIG1        0.0468
     30 S          -2.6167    6.2211   -1.3599 S.2     1  LIG1       -0.0822
     31 O          -1.8183    5.3028    2.3201 O.3     1  LIG1       -0.4928
     32 C          -0.5006    5.6048    2.7792 C.3     1  LIG1        0.0789
     33 H          -0.3948    5.1190    3.7488 H       1  LIG1        0.0660
     34 H           0.2498    5.2082    2.0879 H       1  LIG1        0.0660
     35 H          -0.3694    6.6845    2.8947 H       1  LIG1        0.0660
     36 S          -3.1436    8.0070    2.5396 S.3     1  LIG1       -0.1380
     37 H          -3.1267    9.2390    1.9953 H       1  LIG1        0.1072
     38 C          -3.8272    8.6320   -0.7665 C.ar    1  LIG1        0.0698
     39 C          -3.6624    9.9582   -0.4637 C.ar    1  LIG1        0.1484
     40 C          -4.5512   10.8325   -1.1642 C.ar    1  LIG1        0.0542
     41 C          -5.3743   10.1530   -2.0060 C.ar    1  LIG1       -0.0069
     42 S          -5.0941    8.4516   -1.9470 S.2     1  LIG1       -0.0912
     43 H          -6.1368   10.5515   -2.6591 H       1  LIG1        0.0706
     44 O          -2.7637   10.4588    0.4382 O.3     1  LIG1       -0.4928
     45 C          -1.4095   10.4999   -0.0193 C.3     1  LIG1        0.0789
     46 H          -0.8258   10.9353    0.7912 H       1  LIG1        0.0660
     47 H          -1.0422    9.4937   -0.2397 H       1  LIG1        0.0660
     48 H          -1.3277   11.1289   -0.9102 H       1  LIG1        0.0660
     49 S          -4.4598   12.5741   -0.8679 S.3     1  LIG1       -0.1386
     50 H          -5.3317   12.9243   -1.8272 H       1  LIG1        0.1072
@<TRIPOS>BOND
     1    24    25    1
     2    24    16    1
     3    21    20    1
     4    43    41    1
     5    13    12    1
     6    19    20    1
     7    19    15    1
     8    41    42   ar
     9    41    40   ar
    10    20    22    1
    11    20    23    1
    12    42    38   ar
    13    50    49    1
    14    12     3    1
    15    16    15   ar
    16    16    17   ar
    17    30    29   ar
    18    30    26   ar
    19    15    14   ar
    20    40    49    1
    21    40    39   ar
    22    48    45    1
    23    38    39   ar
    24    38    29    1
    25    39    44    1
    26    17    26    1
    27    17    18   ar
    28    29    28   ar
    29    47    45    1
    30     3     4   ar
    31     3     2   ar
    32    26    27   ar
    33    14     4    1
    34    14    18   ar
    35    45    44    1
    36    45    46    1
    37     7     2    1
    38     7     8    1
    39     4     5   ar
    40     9     8    1
    41     2     1   ar
    42    28    27   ar
    43    28    36    1
    44    27    31    1
    45     8    10    1
    46     8    11    1
    47    37    36    1
    48     1     5   ar
    49     1     6    1
    50    34    32    1
    51    31    32    1
    52    32    35    1
    53    32    33    1
