@<TRIPOS>MOLECULE
mol_data/opt/cam/geoms/mol2/5lh.out
 15 15 0 0 0
SMALL
GASTEIGER

@<TRIPOS>ATOM
      1 C          -2.2379   -1.6184    0.0291 C.ar    1  LIG1        0.0193
      2 C          -0.8795   -1.6412   -0.0090 C.ar    1  LIG1        0.1476
      3 C          -0.2762   -0.3342   -0.0384 C.ar    1  LIG1        0.0739
      4 C          -1.2184    0.6470   -0.0279 C.ar    1  LIG1        0.0000
      5 S          -2.8299    0.0078    0.0285 S.2     1  LIG1       -0.0995
      6 H          -2.9228   -2.4510    0.0505 H       1  LIG1        0.0731
      7 H          -1.0563    1.7147   -0.0326 H       1  LIG1        0.0713
      8 O          -0.0435   -2.7113   -0.0398 O.3     1  LIG1       -0.4927
      9 C          -0.6611   -3.9802   -0.0224 C.3     1  LIG1        0.0789
     10 H           0.1384   -4.7202   -0.0510 H       1  LIG1        0.0660
     11 H          -1.2521   -4.1173    0.8907 H       1  LIG1        0.0660
     12 H          -1.3139   -4.1134   -0.8935 H       1  LIG1        0.0660
     13 N           1.1090   -0.1975   -0.0205 N.pl3   1  LIG1       -0.3547
     14 H           1.5861   -1.0231   -0.3559 H       1  LIG1        0.1424
     15 H           1.4556    0.6451   -0.4549 H       1  LIG1        0.1424
@<TRIPOS>BOND
     1    12     9    1
     2    15    13    1
     3    14    13    1
     4    10     9    1
     5     8     9    1
     6     8     2    1
     7     3     4   ar
     8     3    13    1
     9     3     2   ar
    10     7     4    1
    11     4     5   ar
    12     9    11    1
    13     2     1   ar
    14     5     1   ar
    15     1     6    1
