@<TRIPOS>MOLECULE
mol_data/opt/cam/geoms/mol2/5lh5lh-5lh-.out
 41 43 0 0 0
SMALL
GASTEIGER

@<TRIPOS>ATOM
      1 C          -2.1032   -2.0041    0.9725 C.ar    1  LIG1        0.0199
      2 C          -1.0701   -2.1618    0.1077 C.ar    1  LIG1        0.1482
      3 C          -0.4758   -0.9258   -0.3340 C.ar    1  LIG1        0.0824
      4 C          -1.1025    0.1669    0.2209 C.ar    1  LIG1        0.0538
      5 S          -2.3872   -0.3322    1.3114 S.2     1  LIG1       -0.0904
      6 H          -2.7039   -2.7650    1.4450 H       1  LIG1        0.0731
      7 O          -0.5526   -3.3081   -0.4033 O.3     1  LIG1       -0.4927
      8 C          -1.1760   -4.5058    0.0096 C.3     1  LIG1        0.0789
      9 H          -0.6552   -5.3205   -0.4927 H       1  LIG1        0.0660
     10 H          -1.0961   -4.6368    1.0952 H       1  LIG1        0.0660
     11 H          -2.2349   -4.5174   -0.2747 H       1  LIG1        0.0660
     12 N           0.5976   -0.9600   -1.1871 N.pl3   1  LIG1       -0.3542
     13 H           0.6741   -1.7766   -1.7712 H       1  LIG1        0.1425
     14 H           0.9549   -0.0841   -1.5356 H       1  LIG1        0.1425
     15 C          -0.8764    1.5780   -0.0298 C.ar    1  LIG1        0.0718
     16 C           0.2680    2.2359   -0.3877 C.ar    1  LIG1        0.1565
     17 C           0.1318    3.6523   -0.5626 C.ar    1  LIG1        0.0831
     18 C          -1.1556    4.0800   -0.3333 C.ar    1  LIG1        0.0544
     19 S          -2.1813    2.7255    0.1131 S.2     1  LIG1       -0.0814
     20 O           1.4944    1.6528   -0.6149 O.3     1  LIG1       -0.4921
     21 C           2.2184    1.3443    0.5772 C.3     1  LIG1        0.0789
     22 H           3.1732    0.9227    0.2617 H       1  LIG1        0.0660
     23 H           2.3893    2.2524    1.1635 H       1  LIG1        0.0660
     24 H           1.6774    0.6095    1.1794 H       1  LIG1        0.0660
     25 N           1.2435    4.4009   -0.8761 N.pl3   1  LIG1       -0.3542
     26 H           1.9437    3.9157   -1.4153 H       1  LIG1        0.1425
     27 H           1.1013    5.3804   -1.0714 H       1  LIG1        0.1425
     28 C          -1.7303    5.4046   -0.4748 C.ar    1  LIG1        0.0713
     29 C          -1.1473    6.6366   -0.3339 C.ar    1  LIG1        0.1559
     30 C          -2.0205    7.7485   -0.5733 C.ar    1  LIG1        0.0746
     31 C          -3.2771    7.3408   -0.8992 C.ar    1  LIG1        0.0006
     32 S          -3.4026    5.6111   -0.9290 S.2     1  LIG1       -0.0905
     33 H          -4.1446    7.9507   -1.1023 H       1  LIG1        0.0713
     34 O           0.1709    6.8754   -0.0128 O.3     1  LIG1       -0.4921
     35 C           0.4696    6.7069    1.3741 C.3     1  LIG1        0.0789
     36 H           1.5243    6.9549    1.4980 H       1  LIG1        0.0660
     37 H          -0.1441    7.3803    1.9803 H       1  LIG1        0.0660
     38 H           0.2997    5.6724    1.6839 H       1  LIG1        0.0660
     39 N          -1.5559    9.0490   -0.3930 N.pl3   1  LIG1       -0.3547
     40 H          -0.5547    9.1149   -0.5208 H       1  LIG1        0.1424
     41 H          -2.0525    9.7509   -0.9222 H       1  LIG1        0.1424
@<TRIPOS>BOND
     1    13    12    1
     2    14    12    1
     3    26    25    1
     4    12     3    1
     5    33    31    1
     6    27    25    1
     7    32    31   ar
     8    32    28   ar
     9    41    39    1
    10    31    30   ar
    11    25    17    1
    12    20    16    1
    13    20    21    1
    14    30    39    1
    15    30    29   ar
    16    17    16   ar
    17    17    18   ar
    18    40    39    1
    19     9     8    1
    20    28    29   ar
    21    28    18    1
    22     7     8    1
    23     7     2    1
    24    16    15   ar
    25     3     2   ar
    26     3     4   ar
    27    29    34    1
    28    18    19   ar
    29    11     8    1
    30    15    19   ar
    31    15     4    1
    32    34    35    1
    33     8    10    1
    34     2     1   ar
    35     4     5   ar
    36    22    21    1
    37    21    23    1
    38    21    24    1
    39     1     5   ar
    40     1     6    1
    41    35    36    1
    42    35    38    1
    43    35    37    1
