@<TRIPOS>MOLECULE
mol_data/opt/cam/geoms/mol2/5lh5lh5lh-.out
 41 43 0 0 0
SMALL
GASTEIGER

@<TRIPOS>ATOM
      1 C          -2.1133   -1.9879    1.0228 C.ar    1  LIG1        0.0199
      2 C          -1.1069   -2.1560    0.1290 C.ar    1  LIG1        0.1482
      3 C          -0.5145   -0.9260   -0.3316 C.ar    1  LIG1        0.0824
      4 C          -1.1151    0.1731    0.2393 C.ar    1  LIG1        0.0538
      5 S          -2.3725   -0.3130    1.3671 S.2     1  LIG1       -0.0904
      6 H          -2.7070   -2.7427    1.5135 H       1  LIG1        0.0731
      7 O          -0.6145   -3.3076   -0.3949 O.3     1  LIG1       -0.4927
      8 C          -1.2365   -4.4990    0.0375 C.3     1  LIG1        0.0789
      9 H          -0.7377   -5.3191   -0.4781 H       1  LIG1        0.0660
     10 H          -1.1267   -4.6293    1.1206 H       1  LIG1        0.0660
     11 H          -2.3032   -4.5015   -0.2162 H       1  LIG1        0.0660
     12 N           0.5336   -0.9709   -1.2151 N.pl3   1  LIG1       -0.3542
     13 H           0.5861   -1.7889   -1.7999 H       1  LIG1        0.1425
     14 H           0.8887   -0.0987   -1.5751 H       1  LIG1        0.1425
     15 C          -0.8838    1.5817   -0.0200 C.ar    1  LIG1        0.0718
     16 C           0.2558    2.2289   -0.4116 C.ar    1  LIG1        0.1565
     17 C           0.1273    3.6462   -0.5847 C.ar    1  LIG1        0.0831
     18 C          -1.1491    4.0858   -0.3193 C.ar    1  LIG1        0.0544
     19 S          -2.1737    2.7412    0.1585 S.2     1  LIG1       -0.0814
     20 O           1.4699    1.6345   -0.6729 O.3     1  LIG1       -0.4921
     21 C           2.2250    1.3210    0.4983 C.3     1  LIG1        0.0789
     22 H           3.1666    0.8904    0.1562 H       1  LIG1        0.0660
     23 H           2.4208    2.2283    1.0780 H       1  LIG1        0.0660
     24 H           1.6950    0.5919    1.1169 H       1  LIG1        0.0660
     25 N           1.2362    4.3844   -0.9312 N.pl3   1  LIG1       -0.3542
     26 H           1.9162    3.8922   -1.4895 H       1  LIG1        0.1425
     27 H           1.0973    5.3649   -1.1239 H       1  LIG1        0.1425
     28 C          -1.7158    5.4153   -0.4463 C.ar    1  LIG1        0.0713
     29 C          -1.1179    6.6421   -0.3242 C.ar    1  LIG1        0.1559
     30 C          -1.9877    7.7616   -0.5401 C.ar    1  LIG1        0.0746
     31 C          -3.2567    7.3648   -0.8292 C.ar    1  LIG1        0.0006
     32 S          -3.3985    5.6362   -0.8526 S.2     1  LIG1       -0.0905
     33 H          -4.1242    7.9822   -1.0083 H       1  LIG1        0.0713
     34 O           0.2110    6.8696   -0.0414 O.3     1  LIG1       -0.4921
     35 C           0.5479    6.7002    1.3367 C.3     1  LIG1        0.0789
     36 H           1.6079    6.9388    1.4298 H       1  LIG1        0.0660
     37 H          -0.0421    7.3799    1.9592 H       1  LIG1        0.0660
     38 H           0.3777    5.6676    1.6528 H       1  LIG1        0.0660
     39 N          -1.5065    9.0581   -0.3753 N.pl3   1  LIG1       -0.3547
     40 H          -0.5088    9.1149   -0.5319 H       1  LIG1        0.1424
     41 H          -2.0117    9.7637   -0.8911 H       1  LIG1        0.1424
@<TRIPOS>BOND
     1    13    12    1
     2    14    12    1
     3    26    25    1
     4    12     3    1
     5    27    25    1
     6    33    31    1
     7    25    17    1
     8    41    39    1
     9    32    31   ar
    10    32    28   ar
    11    31    30   ar
    12    20    16    1
    13    20    21    1
    14    17    16   ar
    15    17    18   ar
    16    30    39    1
    17    30    29   ar
    18    40    39    1
    19     9     8    1
    20    28    29   ar
    21    28    18    1
    22    16    15   ar
    23     7     8    1
    24     7     2    1
    25     3     2   ar
    26     3     4   ar
    27    29    34    1
    28    18    19   ar
    29    11     8    1
    30    34    35    1
    31    15    19   ar
    32    15     4    1
    33     8    10    1
    34     2     1   ar
    35    22    21    1
    36     4     5   ar
    37    21    23    1
    38    21    24    1
    39     1     5   ar
    40     1     6    1
    41    35    36    1
    42    35    38    1
    43    35    37    1
