@<TRIPOS>MOLECULE
mol_data/opt/cam/geoms/mol2/5lh5lh-5lh-5lh.out
 54 57 0 0 0
SMALL
GASTEIGER

@<TRIPOS>ATOM
      1 C          -0.2653   -1.3755    2.7958 C.ar    1  LIG1        0.0199
      2 C          -0.5277   -1.9100    1.5770 C.ar    1  LIG1        0.1482
      3 C          -0.6374   -0.9397    0.5176 C.ar    1  LIG1        0.0824
      4 C          -0.4560    0.3436    0.9819 C.ar    1  LIG1        0.0538
      5 S          -0.1142    0.3451    2.7063 S.2     1  LIG1       -0.0904
      6 H          -0.1342   -1.8857    3.7369 H       1  LIG1        0.0731
      7 O          -0.7210   -3.2105    1.2393 O.3     1  LIG1       -0.4927
      8 C          -0.6520   -4.1415    2.2985 C.3     1  LIG1        0.0789
      9 H          -0.8365   -5.1242    1.8656 H       1  LIG1        0.0660
     10 H           0.3387   -4.1306    2.7681 H       1  LIG1        0.0660
     11 H          -1.4109   -3.9287    3.0608 H       1  LIG1        0.0660
     12 N          -0.8724   -1.3643   -0.7646 N.pl3   1  LIG1       -0.3542
     13 H          -1.3368   -2.2523   -0.8617 H       1  LIG1        0.1425
     14 H          -1.0082   -0.6674   -1.4803 H       1  LIG1        0.1425
     15 C          -0.5781    1.6012    0.2689 C.ar    1  LIG1        0.0718
     16 C          -0.3552    1.8867   -1.0510 C.ar    1  LIG1        0.1565
     17 C          -0.5723    3.2520   -1.4193 C.ar    1  LIG1        0.0831
     18 C          -0.9791    4.0199   -0.3540 C.ar    1  LIG1        0.0544
     19 S          -1.0813    3.0466    1.1041 S.2     1  LIG1       -0.0814
     20 O           0.0403    0.9906   -2.0188 O.3     1  LIG1       -0.4921
     21 C           1.4347    0.6786   -1.9852 C.3     1  LIG1        0.0789
     22 H           1.6206   -0.0047   -2.8144 H       1  LIG1        0.0660
     23 H           2.0303    1.5877   -2.1122 H       1  LIG1        0.0660
     24 H           1.6989    0.1892   -1.0441 H       1  LIG1        0.0660
     25 N          -0.2855    3.6556   -2.7092 N.pl3   1  LIG1       -0.3542
     26 H          -0.3931    2.9284   -3.4008 H       1  LIG1        0.1425
     27 H          -0.6141    4.5645   -2.9949 H       1  LIG1        0.1425
     28 C          -1.3363    5.4228   -0.3331 C.ar    1  LIG1        0.0719
     29 C          -1.2417    6.3074    0.7034 C.ar    1  LIG1        0.1565
     30 C          -1.7115    7.6329    0.4216 C.ar    1  LIG1        0.0831
     31 C          -2.1866    7.7509   -0.8632 C.ar    1  LIG1        0.0544
     32 S          -2.0839    6.2108   -1.7014 S.2     1  LIG1       -0.0814
     33 O          -0.7559    6.0059    1.9494 O.3     1  LIG1       -0.4921
     34 C           0.6655    6.0958    2.0501 C.3     1  LIG1        0.0789
     35 H           0.9185    5.8742    3.0875 H       1  LIG1        0.0660
     36 H           1.1480    5.3646    1.3952 H       1  LIG1        0.0660
     37 H           1.0089    7.1032    1.7925 H       1  LIG1        0.0660
     38 N          -1.5797    8.6255    1.3695 N.pl3   1  LIG1       -0.3542
     39 H          -1.4759    8.2518    2.3032 H       1  LIG1        0.1425
     40 H          -2.2556    9.3770    1.2927 H       1  LIG1        0.1425
     41 C          -2.6795    8.9295   -1.5459 C.ar    1  LIG1        0.0713
     42 C          -3.3959    9.9778   -1.0361 C.ar    1  LIG1        0.1559
     43 C          -3.7106   11.0102   -1.9794 C.ar    1  LIG1        0.0746
     44 C          -3.2263   10.7217   -3.2181 C.ar    1  LIG1        0.0006
     45 S          -2.3724    9.2103   -3.2390 S.2     1  LIG1       -0.0905
     46 H          -3.3342   11.2958   -4.1262 H       1  LIG1        0.0713
     47 O          -3.8092   10.0925    0.2739 O.3     1  LIG1       -0.4921
     48 C          -5.0434    9.4213    0.5413 C.3     1  LIG1        0.0789
     49 H          -5.2730    9.5949    1.5934 H       1  LIG1        0.0660
     50 H          -5.8426    9.8319   -0.0830 H       1  LIG1        0.0660
     51 H          -4.9462    8.3476    0.3572 H       1  LIG1        0.0660
     52 N          -4.4919   12.0959   -1.5887 N.pl3   1  LIG1       -0.3547
     53 H          -4.3800   12.3093   -0.6060 H       1  LIG1        0.1424
     54 H          -4.3834   12.9185   -2.1644 H       1  LIG1        0.1424
@<TRIPOS>BOND
     1    46    44    1
     2    26    25    1
     3    45    44   ar
     4    45    41   ar
     5    44    43   ar
     6    27    25    1
     7    22    21    1
     8    25    17    1
     9    54    52    1
    10    23    21    1
    11    20    21    1
    12    20    16    1
    13    21    24    1
    14    43    52    1
    15    43    42   ar
    16    32    31   ar
    17    32    28   ar
    18    52    53    1
    19    41    42   ar
    20    41    31    1
    21    14    12    1
    22    17    16   ar
    23    17    18   ar
    24    16    15   ar
    25    42    47    1
    26    31    30   ar
    27    13    12    1
    28    12     3    1
    29    18    28    1
    30    18    19   ar
    31    28    29   ar
    32    50    48    1
    33    15     4    1
    34    15    19   ar
    35    47    48    1
    36    51    48    1
    37    30    29   ar
    38    30    38    1
    39     3     4   ar
    40     3     2   ar
    41    48    49    1
    42    29    33    1
    43     4     5   ar
    44     7     2    1
    45     7     8    1
    46    40    38    1
    47    38    39    1
    48    36    34    1
    49     2     1   ar
    50    37    34    1
    51     9     8    1
    52    33    34    1
    53    34    35    1
    54     8    10    1
    55     8    11    1
    56     5     1   ar
    57     1     6    1
