@<TRIPOS>MOLECULE
mol_data/opt/cam/geoms/mol2/5lh5lh-.out
 28 29 0 0 0
SMALL
GASTEIGER

@<TRIPOS>ATOM
      1 C          -1.1059   -1.9473   -1.1971 C.ar    1  LIG1        0.0199
      2 C          -1.0476   -2.1003    0.1500 C.ar    1  LIG1        0.1482
      3 C          -0.7761   -0.8829    0.8613 C.ar    1  LIG1        0.0824
      4 C          -0.6338    0.1895    0.0161 C.ar    1  LIG1        0.0537
      5 S          -0.8237   -0.3035   -1.6585 S.2     1  LIG1       -0.0904
      6 H          -1.2782   -2.7006   -1.9497 H       1  LIG1        0.0731
      7 O          -1.1921   -3.2290    0.8926 O.3     1  LIG1       -0.4927
      8 C          -1.4548   -4.4145    0.1726 C.3     1  LIG1        0.0789
      9 H          -1.5486   -5.2142    0.9068 H       1  LIG1        0.0660
     10 H          -2.3880   -4.3299   -0.3964 H       1  LIG1        0.0660
     11 H          -0.6352   -4.6467   -0.5179 H       1  LIG1        0.0660
     12 N          -0.7319   -0.8796    2.2486 N.pl3   1  LIG1       -0.3542
     13 H          -0.6587   -1.8104    2.6361 H       1  LIG1        0.1425
     14 H          -0.0752   -0.2305    2.6603 H       1  LIG1        0.1425
     15 C          -0.3907    1.5748    0.3654 C.ar    1  LIG1        0.0712
     16 C           0.0496    2.5826   -0.4485 C.ar    1  LIG1        0.1559
     17 C           0.1642    3.8629    0.1855 C.ar    1  LIG1        0.0746
     18 C          -0.1916    3.8084    1.4975 C.ar    1  LIG1        0.0006
     19 S          -0.6907    2.2135    1.9642 S.2     1  LIG1       -0.0905
     20 H          -0.1945    4.6080    2.2232 H       1  LIG1        0.0713
     21 O           0.3263    2.4359   -1.7841 O.3     1  LIG1       -0.4921
     22 C           1.7071    2.1957   -2.0573 C.3     1  LIG1        0.0789
     23 H           1.8057    2.1443   -3.1423 H       1  LIG1        0.0660
     24 H           2.3261    3.0102   -1.6675 H       1  LIG1        0.0660
     25 H           2.0282    1.2461   -1.6187 H       1  LIG1        0.0660
     26 N           0.6449    4.9541   -0.5364 N.pl3   1  LIG1       -0.3547
     27 H           0.4104    4.8842   -1.5188 H       1  LIG1        0.1424
     28 H           0.3819    5.8525   -0.1567 H       1  LIG1        0.1424
@<TRIPOS>BOND
     1    23    22    1
     2    22    21    1
     3    22    24    1
     4    22    25    1
     5     6     1    1
     6    21    16    1
     7     5     1   ar
     8     5     4   ar
     9    27    26    1
    10     1     2   ar
    11    26    28    1
    12    26    17    1
    13    11     8    1
    14    16    17   ar
    15    16    15   ar
    16    10     8    1
    17     4    15    1
    18     4     3   ar
    19     2     3   ar
    20     2     7    1
    21     8     7    1
    22     8     9    1
    23    17    18   ar
    24    15    19   ar
    25     3    12    1
    26    18    19   ar
    27    18    20    1
    28    12    13    1
    29    12    14    1
