@<TRIPOS>MOLECULE
mol_data/opt/cam/geoms/mol2/5lh5lh-5lh5lh-.out
 54 57 0 0 0
SMALL
GASTEIGER

@<TRIPOS>ATOM
      1 C           0.9983   -2.0044    1.1379 C.ar    1  LIG1        0.0199
      2 C          -0.1941   -1.7164    1.7181 C.ar    1  LIG1        0.1482
      3 C          -0.7324   -0.4376    1.3403 C.ar    1  LIG1        0.0824
      4 C           0.0974    0.2318    0.4729 C.ar    1  LIG1        0.0538
      5 S           1.5197   -0.7276    0.0941 S.2     1  LIG1       -0.0904
      6 H           1.5957   -2.8960    1.2469 H       1  LIG1        0.0731
      7 O          -0.9220   -2.4569    2.5935 O.3     1  LIG1       -0.4927
      8 C          -0.3685   -3.7032    2.9584 C.3     1  LIG1        0.0789
      9 H          -1.0645   -4.1631    3.6595 H       1  LIG1        0.0660
     10 H          -0.2505   -4.3527    2.0831 H       1  LIG1        0.0660
     11 H           0.6072   -3.5752    3.4423 H       1  LIG1        0.0660
     12 N          -1.9784   -0.0647    1.7991 N.pl3   1  LIG1       -0.3542
     13 H          -2.2610   -0.5008    2.6631 H       1  LIG1        0.1425
     14 H          -2.2509    0.8991    1.6923 H       1  LIG1        0.1425
     15 C          -0.0699    1.5602   -0.0837 C.ar    1  LIG1        0.0718
     16 C           0.3941    2.0406   -1.2745 C.ar    1  LIG1        0.1565
     17 C           0.1053    3.4201   -1.5218 C.ar    1  LIG1        0.0831
     18 C          -0.5998    4.0026   -0.4952 C.ar    1  LIG1        0.0544
     19 S          -0.8606    2.8423    0.8000 S.2     1  LIG1       -0.0814
     20 O           1.1236    1.3222   -2.1864 O.3     1  LIG1       -0.4921
     21 C           0.3223    0.5688   -3.0973 C.3     1  LIG1        0.0789
     22 H           1.0115    0.0770   -3.7844 H       1  LIG1        0.0660
     23 H          -0.2622   -0.1874   -2.5655 H       1  LIG1        0.0660
     24 H          -0.3508    1.2267   -3.6571 H       1  LIG1        0.0660
     25 N           0.4942    3.9936   -2.7205 N.pl3   1  LIG1       -0.3542
     26 H           1.2431    3.4749   -3.1612 H       1  LIG1        0.1425
     27 H           0.6650    4.9898   -2.6966 H       1  LIG1        0.1425
     28 C          -1.1168    5.3482   -0.4047 C.ar    1  LIG1        0.0719
     29 C          -1.5281    6.0210    0.7130 C.ar    1  LIG1        0.1565
     30 C          -2.0157    7.3475    0.4842 C.ar    1  LIG1        0.0831
     31 C          -1.9723    7.6891   -0.8474 C.ar    1  LIG1        0.0544
     32 S          -1.3680    6.3526   -1.8117 S.2     1  LIG1       -0.0814
     33 O          -1.5038    5.4985    1.9821 O.3     1  LIG1       -0.4921
     34 C          -0.3041    5.8010    2.6980 C.3     1  LIG1        0.0789
     35 H          -0.4202    5.3746    3.6949 H       1  LIG1        0.0660
     36 H           0.5631    5.3481    2.2086 H       1  LIG1        0.0660
     37 H          -0.1608    6.8837    2.7721 H       1  LIG1        0.0660
     38 N          -2.3872    8.1421    1.5511 N.pl3   1  LIG1       -0.3542
     39 H          -2.6353    7.5945    2.3644 H       1  LIG1        0.1425
     40 H          -3.0653    8.8600    1.3204 H       1  LIG1        0.1425
     41 C          -2.3103    8.9513   -1.4739 C.ar    1  LIG1        0.0713
     42 C          -3.2916    9.8426   -1.1351 C.ar    1  LIG1        0.1559
     43 C          -3.3457   11.0208   -1.9495 C.ar    1  LIG1        0.0746
     44 C          -2.3911   11.0036   -2.9194 C.ar    1  LIG1        0.0006
     45 S          -1.4143    9.5714   -2.8350 S.2     1  LIG1       -0.0905
     46 H          -2.2125   11.7366   -3.6919 H       1  LIG1        0.0713
     47 O          -4.1867    9.6792   -0.0993 O.3     1  LIG1       -0.4921
     48 C          -5.3448    8.9240   -0.4647 C.3     1  LIG1        0.0789
     49 H          -5.9802    8.8763    0.4207 H       1  LIG1        0.0660
     50 H          -5.8822    9.4214   -1.2775 H       1  LIG1        0.0660
     51 H          -5.0644    7.9127   -0.7728 H       1  LIG1        0.0660
     52 N          -4.3458   11.9682   -1.7383 N.pl3   1  LIG1       -0.3547
     53 H          -4.6415   11.9981   -0.7711 H       1  LIG1        0.1424
     54 H          -4.1301   12.8895   -2.0911 H       1  LIG1        0.1424
@<TRIPOS>BOND
     1    22    21    1
     2    46    44    1
     3    24    21    1
     4    26    25    1
     5    21    23    1
     6    21    20    1
     7    44    45   ar
     8    44    43   ar
     9    45    41   ar
    10    25    27    1
    11    25    17    1
    12    20    16    1
    13    54    52    1
    14    43    52    1
    15    43    42   ar
    16    32    31   ar
    17    32    28   ar
    18    52    53    1
    19    17    16   ar
    20    17    18   ar
    21    41    42   ar
    22    41    31    1
    23    50    48    1
    24    16    15   ar
    25    42    47    1
    26    31    30   ar
    27    51    48    1
    28    18    28    1
    29    18    19   ar
    30    48    47    1
    31    48    49    1
    32    28    29   ar
    33    15     4    1
    34    15    19   ar
    35     5     4   ar
    36     5     1   ar
    37     4     3   ar
    38    30    29   ar
    39    30    38    1
    40    29    33    1
    41     1     6    1
    42     1     2   ar
    43    40    38    1
    44     3     2   ar
    45     3    12    1
    46    38    39    1
    47    14    12    1
    48     2     7    1
    49    12    13    1
    50    33    34    1
    51    10     8    1
    52    36    34    1
    53     7     8    1
    54    34    37    1
    55    34    35    1
    56     8    11    1
    57     8     9    1
