@<TRIPOS>MOLECULE
mol_data/opt/cam/geoms/mol2/5lh5lh-5lh5lh.out
 54 57 0 0 0
SMALL
GASTEIGER

@<TRIPOS>ATOM
      1 C          -0.2757   -1.3969    2.7595 C.ar    1  LIG1        0.0199
      2 C          -0.5567   -1.9238    1.5416 C.ar    1  LIG1        0.1482
      3 C          -0.6715   -0.9479    0.4879 C.ar    1  LIG1        0.0824
      4 C          -0.4747    0.3319    0.9556 C.ar    1  LIG1        0.0538
      5 S          -0.1124    0.3229    2.6758 S.2     1  LIG1       -0.0904
      6 H          -0.1374   -1.9123    3.6967 H       1  LIG1        0.0731
      7 O          -0.7641   -3.2213    1.2005 O.3     1  LIG1       -0.4927
      8 C          -0.6897   -4.1575    2.2547 C.3     1  LIG1        0.0789
      9 H          -0.8870   -5.1368    1.8196 H       1  LIG1        0.0660
     10 H           0.3065   -4.1564    2.7125 H       1  LIG1        0.0660
     11 H          -1.4379   -3.9423    3.0269 H       1  LIG1        0.0660
     12 N          -0.9251   -1.3649   -0.7933 N.pl3   1  LIG1       -0.3542
     13 H          -1.3975   -2.2488   -0.8887 H       1  LIG1        0.1425
     14 H          -1.0639   -0.6637   -1.5042 H       1  LIG1        0.1425
     15 C          -0.5955    1.5935    0.2497 C.ar    1  LIG1        0.0718
     16 C          -0.3861    1.8832   -1.0715 C.ar    1  LIG1        0.1565
     17 C          -0.5969    3.2519   -1.4311 C.ar    1  LIG1        0.0831
     18 C          -0.9851    4.0181   -0.3577 C.ar    1  LIG1        0.0544
     19 S          -1.0775    3.0390    1.0972 S.2     1  LIG1       -0.0814
     20 O          -0.0091    0.9885   -2.0479 O.3     1  LIG1       -0.4921
     21 C           1.3831    0.6656   -2.0323 C.3     1  LIG1        0.0789
     22 H           1.5539   -0.0153   -2.8666 H       1  LIG1        0.0660
     23 H           1.9842    1.5706   -2.1624 H       1  LIG1        0.0660
     24 H           1.6548    0.1699   -1.0966 H       1  LIG1        0.0660
     25 N          -0.3225    3.6590   -2.7226 N.pl3   1  LIG1       -0.3542
     26 H          -0.4438    2.9358   -3.4161 H       1  LIG1        0.1425
     27 H          -0.6473    4.5717   -3.0004 H       1  LIG1        0.1425
     28 C          -1.3312    5.4235   -0.3263 C.ar    1  LIG1        0.0719
     29 C          -1.2173    6.3027    0.7128 C.ar    1  LIG1        0.1565
     30 C          -1.6802    7.6331    0.4425 C.ar    1  LIG1        0.0831
     31 C          -2.1696    7.7604   -0.8360 C.ar    1  LIG1        0.0544
     32 S          -2.0888    6.2234   -1.6822 S.2     1  LIG1       -0.0814
     33 O          -0.7190    5.9918    1.9516 O.3     1  LIG1       -0.4921
     34 C           0.7041    6.0704    2.0357 C.3     1  LIG1        0.0789
     35 H           0.9677    5.8422    3.0690 H       1  LIG1        0.0660
     36 H           1.1731    5.3384    1.3719 H       1  LIG1        0.0660
     37 H           1.0522    7.0762    1.7784 H       1  LIG1        0.0660
     38 N          -1.5294    8.6203    1.3932 N.pl3   1  LIG1       -0.3542
     39 H          -1.4173    8.2417    2.3239 H       1  LIG1        0.1425
     40 H          -2.2003    9.3774    1.3277 H       1  LIG1        0.1425
     41 C          -2.6615    8.9459   -1.5075 C.ar    1  LIG1        0.0713
     42 C          -3.3636    9.9974   -0.9846 C.ar    1  LIG1        0.1559
     43 C          -3.6815   11.0364   -1.9195 C.ar    1  LIG1        0.0746
     44 C          -3.2142   10.7498   -3.1652 C.ar    1  LIG1        0.0006
     45 S          -2.3724    9.2320   -3.2029 S.2     1  LIG1       -0.0905
     46 H          -3.3285   11.3287   -4.0694 H       1  LIG1        0.0713
     47 O          -3.7604   10.1094    0.3308 O.3     1  LIG1       -0.4921
     48 C          -4.9964    9.4465    0.6099 C.3     1  LIG1        0.0789
     49 H          -5.2121    9.6171    1.6655 H       1  LIG1        0.0660
     50 H          -5.7998    9.8660   -0.0029 H       1  LIG1        0.0660
     51 H          -4.9098    8.3729    0.4199 H       1  LIG1        0.0660
     52 N          -4.4497   12.1263   -1.5147 N.pl3   1  LIG1       -0.3547
     53 H          -4.3244   12.3344   -0.5325 H       1  LIG1        0.1424
     54 H          -4.3416   12.9506   -2.0880 H       1  LIG1        0.1424
@<TRIPOS>BOND
     1    46    44    1
     2    26    25    1
     3    45    44   ar
     4    45    41   ar
     5    44    43   ar
     6    27    25    1
     7    22    21    1
     8    25    17    1
     9    23    21    1
    10    54    52    1
    11    20    21    1
    12    20    16    1
    13    21    24    1
    14    43    52    1
    15    43    42   ar
    16    32    31   ar
    17    32    28   ar
    18    52    53    1
    19    41    42   ar
    20    41    31    1
    21    14    12    1
    22    17    16   ar
    23    17    18   ar
    24    16    15   ar
    25    42    47    1
    26    13    12    1
    27    31    30   ar
    28    12     3    1
    29    18    28    1
    30    18    19   ar
    31    28    29   ar
    32    50    48    1
    33    15     4    1
    34    15    19   ar
    35    47    48    1
    36    51    48    1
    37    30    29   ar
    38    30    38    1
    39     3     4   ar
    40     3     2   ar
    41    48    49    1
    42    29    33    1
    43     4     5   ar
    44     7     2    1
    45     7     8    1
    46    40    38    1
    47    36    34    1
    48    38    39    1
    49     2     1   ar
    50    37    34    1
    51     9     8    1
    52    33    34    1
    53    34    35    1
    54     8    10    1
    55     8    11    1
    56     5     1   ar
    57     1     6    1
