@<TRIPOS>MOLECULE
mol_data/opt/cam/geoms/mol2/5lh5lh5lh-5lh.out
 54 57 0 0 0
SMALL
GASTEIGER

@<TRIPOS>ATOM
      1 C          -0.3454   -1.4279    2.7031 C.ar    1  LIG1        0.0199
      2 C          -0.5776   -1.9400    1.4687 C.ar    1  LIG1        0.1482
      3 C          -0.6592   -0.9506    0.4245 C.ar    1  LIG1        0.0824
      4 C          -0.4879    0.3238    0.9161 C.ar    1  LIG1        0.0538
      5 S          -0.1898    0.2937    2.6483 S.2     1  LIG1       -0.0904
      6 H          -0.2389   -1.9551    3.6379 H       1  LIG1        0.0731
      7 O          -0.7641   -3.2339    1.1029 O.3     1  LIG1       -0.4927
      8 C          -0.7231   -4.1838    2.1466 C.3     1  LIG1        0.0789
      9 H          -0.8979   -5.1583    1.6916 H       1  LIG1        0.0660
     10 H           0.2554   -4.1831    2.6412 H       1  LIG1        0.0660
     11 H          -1.5008   -3.9834    2.8932 H       1  LIG1        0.0660
     12 N          -0.8623   -1.3517   -0.8707 N.pl3   1  LIG1       -0.3542
     13 H          -1.3253   -2.2370   -0.9954 H       1  LIG1        0.1425
     14 H          -0.9790   -0.6419   -1.5770 H       1  LIG1        0.1425
     15 C          -0.5902    1.5942    0.2231 C.ar    1  LIG1        0.0718
     16 C          -0.3336    1.9029   -1.0855 C.ar    1  LIG1        0.1565
     17 C          -0.5394    3.2750   -1.4345 C.ar    1  LIG1        0.0831
     18 C          -0.9720    4.0244   -0.3663 C.ar    1  LIG1        0.0544
     19 S          -1.1124    3.0253    1.0710 S.2     1  LIG1       -0.0814
     20 O           0.0850    1.0236   -2.0589 O.3     1  LIG1       -0.4921
     21 C           1.4777    0.7085   -1.9958 C.3     1  LIG1        0.0789
     22 H           1.6836    0.0399   -2.8321 H       1  LIG1        0.0660
     23 H           2.0775    1.6187   -2.0913 H       1  LIG1        0.0660
     24 H           1.7174    0.2019   -1.0572 H       1  LIG1        0.0660
     25 N          -0.2196    3.7011   -2.7094 N.pl3   1  LIG1       -0.3542
     26 H          -0.3106    2.9866   -3.4164 H       1  LIG1        0.1425
     27 H          -0.5396    4.6156   -2.9869 H       1  LIG1        0.1425
     28 C          -1.3278    5.4273   -0.3292 C.ar    1  LIG1        0.0719
     29 C          -1.2582    6.2930    0.7251 C.ar    1  LIG1        0.1565
     30 C          -1.7190    7.6243    0.4554 C.ar    1  LIG1        0.0831
     31 C          -2.1612    7.7661   -0.8387 C.ar    1  LIG1        0.0544
     32 S          -2.0394    6.2410   -1.7016 S.2     1  LIG1       -0.0814
     33 O          -0.8045    5.9683    1.9774 O.3     1  LIG1       -0.4921
     34 C           0.6140    6.0539    2.1156 C.3     1  LIG1        0.0789
     35 H           0.8404    5.8133    3.1548 H       1  LIG1        0.0660
     36 H           1.1120    5.3337    1.4600 H       1  LIG1        0.0660
     37 H           0.9652    7.0651    1.8848 H       1  LIG1        0.0660
     38 N          -1.6099    8.5994    1.4240 N.pl3   1  LIG1       -0.3542
     39 H          -1.5302    8.2089    2.3532 H       1  LIG1        0.1425
     40 H          -2.2825    9.3534    1.3436 H       1  LIG1        0.1425
     41 C          -2.6351    8.9577   -1.5123 C.ar    1  LIG1        0.0713
     42 C          -3.3628    9.9979   -1.0020 C.ar    1  LIG1        0.1559
     43 C          -3.6521   11.0476   -1.9343 C.ar    1  LIG1        0.0746
     44 C          -3.1370   10.7805   -3.1654 C.ar    1  LIG1        0.0006
     45 S          -2.2849    9.2682   -3.1918 S.2     1  LIG1       -0.0905
     46 H          -3.2211   11.3709   -4.0654 H       1  LIG1        0.0713
     47 O          -3.8090   10.0899    0.2990 O.3     1  LIG1       -0.4921
     48 C          -5.0504    9.4162    0.5229 C.3     1  LIG1        0.0789
     49 H          -5.3063    9.5713    1.5719 H       1  LIG1        0.0660
     50 H          -5.8329    9.8393   -0.1138 H       1  LIG1        0.0660
     51 H          -4.9500    8.3458    0.3221 H       1  LIG1        0.0660
     52 N          -4.4416   12.1276   -1.5440 N.pl3   1  LIG1       -0.3547
     53 H          -4.3543   12.3231   -0.5552 H       1  LIG1        0.1424
     54 H          -4.3174   12.9601   -2.1019 H       1  LIG1        0.1424
@<TRIPOS>BOND
     1    46    44    1
     2    26    25    1
     3    45    44   ar
     4    45    41   ar
     5    44    43   ar
     6    27    25    1
     7    22    21    1
     8    25    17    1
     9    54    52    1
    10    23    21    1
    11    20    21    1
    12    20    16    1
    13    21    24    1
    14    43    52    1
    15    43    42   ar
    16    32    31   ar
    17    32    28   ar
    18    14    12    1
    19    52    53    1
    20    41    42   ar
    21    41    31    1
    22    17    16   ar
    23    17    18   ar
    24    16    15   ar
    25    42    47    1
    26    13    12    1
    27    12     3    1
    28    31    30   ar
    29    18    28    1
    30    18    19   ar
    31    28    29   ar
    32    50    48    1
    33    15     4    1
    34    15    19   ar
    35    47    48    1
    36    51    48    1
    37     3     4   ar
    38     3     2   ar
    39    30    29   ar
    40    30    38    1
    41    48    49    1
    42    29    33    1
    43     4     5   ar
    44     7     2    1
    45     7     8    1
    46    40    38    1
    47    38    39    1
    48    36    34    1
    49     2     1   ar
    50     9     8    1
    51    37    34    1
    52    33    34    1
    53    34    35    1
    54     8    10    1
    55     8    11    1
    56     5     1   ar
    57     1     6    1
