@<TRIPOS>MOLECULE
mol_data/opt/cam/geoms/mol2/5lh5lh.out
 28 29 0 0 0
SMALL
GASTEIGER

@<TRIPOS>ATOM
      1 C          -2.2125   -1.9194    0.5714 C.ar    1  LIG1        0.0199
      2 C          -1.0155   -1.9871   -0.0635 C.ar    1  LIG1        0.1482
      3 C          -0.4297   -0.7039   -0.3565 C.ar    1  LIG1        0.0824
      4 C          -1.2284    0.3303    0.0718 C.ar    1  LIG1        0.0537
      5 S          -2.6711   -0.2782    0.8681 S.2     1  LIG1       -0.0904
      6 H          -2.8449   -2.7295    0.8981 H       1  LIG1        0.0731
      7 O          -0.3279   -3.0838   -0.4730 O.3     1  LIG1       -0.4927
      8 C          -0.9388   -4.3294   -0.2116 C.3     1  LIG1        0.0789
      9 H          -0.2711   -5.0956   -0.6045 H       1  LIG1        0.0660
     10 H          -1.0751   -4.4825    0.8654 H       1  LIG1        0.0660
     11 H          -1.9135   -4.4031   -0.7088 H       1  LIG1        0.0660
     12 N           0.7994   -0.6429   -0.9664 N.pl3   1  LIG1       -0.3542
     13 H           1.0425   -1.4294   -1.5468 H       1  LIG1        0.1425
     14 H           1.1513    0.2652   -1.2269 H       1  LIG1        0.1425
     15 C          -1.0482    1.7603   -0.1082 C.ar    1  LIG1        0.0712
     16 C           0.1029    2.4966   -0.2002 C.ar    1  LIG1        0.1559
     17 C          -0.0957    3.9022   -0.4074 C.ar    1  LIG1        0.0746
     18 C          -1.4174    4.2192   -0.4711 C.ar    1  LIG1        0.0006
     19 S          -2.4234    2.8179   -0.2920 S.2     1  LIG1       -0.0905
     20 H          -1.8635    5.1954   -0.5891 H       1  LIG1        0.0713
     21 O           1.3875    2.0049   -0.1391 O.3     1  LIG1       -0.4921
     22 C           1.8163    1.6488    1.1767 C.3     1  LIG1        0.0789
     23 H           2.8507    1.3160    1.0867 H       1  LIG1        0.0660
     24 H           1.7612    2.5156    1.8424 H       1  LIG1        0.0660
     25 H           1.2060    0.8351    1.5767 H       1  LIG1        0.0660
     26 N           0.9994    4.7610   -0.4502 N.pl3   1  LIG1       -0.3547
     27 H           1.8441    4.2845   -0.7372 H       1  LIG1        0.1424
     28 H           0.8480    5.6127   -0.9705 H       1  LIG1        0.1424
@<TRIPOS>BOND
     1    13    12    1
     2    14    12    1
     3    28    26    1
     4    12     3    1
     5    27    26    1
     6    11     8    1
     7     9     8    1
     8    20    18    1
     9     7     8    1
    10     7     2    1
    11    18    17   ar
    12    18    19   ar
    13    26    17    1
    14    17    16   ar
    15     3     2   ar
    16     3     4   ar
    17    19    15   ar
    18     8    10    1
    19    16    21    1
    20    16    15   ar
    21    21    22    1
    22    15     4    1
    23     2     1   ar
    24     4     5   ar
    25     1     5   ar
    26     1     6    1
    27    23    22    1
    28    22    25    1
    29    22    24    1
