@<TRIPOS>MOLECULE
mol_data/opt/cam/geoms/mol2/5lh5lh-5lh.out
 41 43 0 0 0
SMALL
GASTEIGER

@<TRIPOS>ATOM
      1 C          -2.1140   -1.9900    1.0103 C.ar    1  LIG1        0.0199
      2 C          -1.0922   -2.1578    0.1341 C.ar    1  LIG1        0.1482
      3 C          -0.4969   -0.9275   -0.3218 C.ar    1  LIG1        0.0824
      4 C          -1.1112    0.1716    0.2344 C.ar    1  LIG1        0.0538
      5 S          -2.3853   -0.3147    1.3431 S.2     1  LIG1       -0.0904
      6 H          -2.7129   -2.7450    1.4943 H       1  LIG1        0.0731
      7 O          -0.5868   -3.3097   -0.3766 O.3     1  LIG1       -0.4927
      8 C          -1.2113   -4.5017    0.0504 C.3     1  LIG1        0.0789
      9 H          -0.7008   -5.3220   -0.4534 H       1  LIG1        0.0660
     10 H          -1.1190   -4.6271    1.1357 H       1  LIG1        0.0660
     11 H          -2.2736   -4.5095   -0.2210 H       1  LIG1        0.0660
     12 N           0.5659   -0.9720   -1.1876 N.pl3   1  LIG1       -0.3542
     13 H           0.6312   -1.7922   -1.7679 H       1  LIG1        0.1425
     14 H           0.9235   -0.1000   -1.5453 H       1  LIG1        0.1425
     15 C          -0.8810    1.5800   -0.0270 C.ar    1  LIG1        0.0718
     16 C           0.2624    2.2300   -0.4024 C.ar    1  LIG1        0.1565
     17 C           0.1314    3.6461   -0.5836 C.ar    1  LIG1        0.0831
     18 C          -1.1509    4.0818   -0.3413 C.ar    1  LIG1        0.0544
     19 S          -2.1781    2.7352    0.1251 S.2     1  LIG1       -0.0814
     20 O           1.4830    1.6393   -0.6409 O.3     1  LIG1       -0.4921
     21 C           2.2197    1.3336    0.5441 C.3     1  LIG1        0.0789
     22 H           3.1685    0.9053    0.2195 H       1  LIG1        0.0660
     23 H           2.4024    2.2441    1.1231 H       1  LIG1        0.0660
     24 H           1.6822    0.6050    1.1568 H       1  LIG1        0.0660
     25 N           1.2430    4.3871   -0.9147 N.pl3   1  LIG1       -0.3542
     26 H           1.9342    3.8953   -1.4595 H       1  LIG1        0.1425
     27 H           1.1036    5.3662   -1.1138 H       1  LIG1        0.1425
     28 C          -1.7205    5.4085   -0.4833 C.ar    1  LIG1        0.0713
     29 C          -1.1295    6.6382   -0.3565 C.ar    1  LIG1        0.1559
     30 C          -1.9998    7.7533   -0.5916 C.ar    1  LIG1        0.0746
     31 C          -3.2623    7.3504   -0.9000 C.ar    1  LIG1        0.0006
     32 S          -3.3970    5.6211   -0.9185 S.2     1  LIG1       -0.0905
     33 H          -4.1290    7.9636   -1.0961 H       1  LIG1        0.0713
     34 O           0.1937    6.8720   -0.0526 O.3     1  LIG1       -0.4921
     35 C           0.5082    6.7097    1.3316 C.3     1  LIG1        0.0789
     36 H           1.5656    6.9529    1.4414 H       1  LIG1        0.0660
     37 H          -0.0947    7.3897    1.9413 H       1  LIG1        0.0660
     38 H           0.3368    5.6778    1.6492 H       1  LIG1        0.0660
     39 N          -1.5264    9.0523   -0.4243 N.pl3   1  LIG1       -0.3547
     40 H          -0.5265    9.1124   -0.5645 H       1  LIG1        0.1424
     41 H          -2.0257    9.7538   -0.9514 H       1  LIG1        0.1424
@<TRIPOS>BOND
     1    13    12    1
     2    14    12    1
     3    26    25    1
     4    12     3    1
     5    27    25    1
     6    33    31    1
     7    41    39    1
     8    32    31   ar
     9    32    28   ar
    10    25    17    1
    11    31    30   ar
    12    20    16    1
    13    20    21    1
    14    30    39    1
    15    30    29   ar
    16    17    16   ar
    17    17    18   ar
    18    40    39    1
    19    28    29   ar
    20    28    18    1
    21     9     8    1
    22    16    15   ar
    23     7     8    1
    24     7     2    1
    25    29    34    1
    26    18    19   ar
    27     3     2   ar
    28     3     4   ar
    29    11     8    1
    30    34    35    1
    31    15    19   ar
    32    15     4    1
    33     8    10    1
    34     2     1   ar
    35    22    21    1
    36     4     5   ar
    37    21    23    1
    38    21    24    1
    39     1     5   ar
    40     1     6    1
    41    35    36    1
    42    35    38    1
    43    35    37    1
