@<TRIPOS>MOLECULE
mol_data/opt/cam/geoms/mol2/5li.out
 16 16 0 0 0
SMALL
GASTEIGER

@<TRIPOS>ATOM
      1 C          -2.2513   -1.6398    0.0182 C.ar    1  LIG1        0.0176
      2 C          -0.8889   -1.6530   -0.0003 C.ar    1  LIG1        0.1300
      3 C          -0.2912   -0.3457    0.0276 C.ar    1  LIG1       -0.0018
      4 C          -1.2432    0.6216    0.0668 C.ar    1  LIG1       -0.0178
      5 S          -2.8486   -0.0155    0.0706 S.2     1  LIG1       -0.1011
      6 H          -2.9360   -2.4725    0.0045 H       1  LIG1        0.0730
      7 H          -1.0858    1.6906    0.0940 H       1  LIG1        0.0697
      8 O          -0.0648   -2.7292   -0.0407 O.3     1  LIG1       -0.4943
      9 C          -0.6945   -3.9918   -0.0669 C.3     1  LIG1        0.0788
     10 H           0.0995   -4.7375   -0.0979 H       1  LIG1        0.0660
     11 H          -1.3063   -4.1479    0.8298 H       1  LIG1        0.0660
     12 H          -1.3300   -4.0990   -0.9543 H       1  LIG1        0.0660
     13 C           1.1910   -0.1367    0.0136 C.3     1  LIG1       -0.0357
     14 H           1.4383    0.9261    0.0396 H       1  LIG1        0.0279
     15 H           1.6398   -0.5737   -0.8831 H       1  LIG1        0.0279
     16 H           1.6631   -0.6220    0.8728 H       1  LIG1        0.0279
@<TRIPOS>BOND
     1    12     9    1
     2    15    13    1
     3    10     9    1
     4     9     8    1
     5     9    11    1
     6     8     2    1
     7     2     1   ar
     8     2     3   ar
     9     6     1    1
    10    13     3    1
    11    13    14    1
    12    13    16    1
    13     1     5   ar
    14     3     4   ar
    15     4     5   ar
    16     4     7    1
