@<TRIPOS>MOLECULE
mol_data/opt/cam/geoms/mol2/5li5li-5li-5li-.out
 58 61 0 0 0
SMALL
GASTEIGER

@<TRIPOS>ATOM
      1 C           0.9767   -2.0881   -1.0755 C.ar    1  LIG1        0.0183
      2 C          -0.1429   -1.7413   -1.7670 C.ar    1  LIG1        0.1306
      3 C          -0.6340   -0.4267   -1.4701 C.ar    1  LIG1        0.0066
      4 C           0.1525    0.2073   -0.5389 C.ar    1  LIG1        0.0359
      5 S           1.4800   -0.8125   -0.0265 S.2     1  LIG1       -0.0920
      6 H           1.5276   -3.0147   -1.1049 H       1  LIG1        0.0730
      7 O          -0.8232   -2.4928   -2.6699 O.3     1  LIG1       -0.4943
      8 C          -0.3152   -3.7866   -2.9089 C.3     1  LIG1        0.0788
      9 H          -0.9710   -4.2493   -3.6461 H       1  LIG1        0.0660
     10 H           0.7062   -3.7445   -3.3063 H       1  LIG1        0.0660
     11 H          -0.3151   -4.3888   -1.9923 H       1  LIG1        0.0660
     12 C          -1.8704    0.1038   -2.1332 C.3     1  LIG1       -0.0351
     13 H          -2.5087    0.6422   -1.4295 H       1  LIG1        0.0279
     14 H          -2.4408   -0.7239   -2.5567 H       1  LIG1        0.0279
     15 H          -1.6324    0.7908   -2.9521 H       1  LIG1        0.0279
     16 C           0.0270    1.5529   -0.0001 C.ar    1  LIG1        0.0687
     17 C           0.6229    2.0676    1.1240 C.ar    1  LIG1        0.1388
     18 C           0.3795    3.4519    1.3665 C.ar    1  LIG1        0.0072
     19 C          -0.4246    4.0007    0.3959 C.ar    1  LIG1        0.0365
     20 S          -0.8654    2.8113   -0.8053 S.2     1  LIG1       -0.0831
     21 O           1.4516    1.3323    1.9300 O.3     1  LIG1       -0.4937
     22 C           0.7967    0.7211    3.0367 C.3     1  LIG1        0.0789
     23 H           1.5629    0.1816    3.5941 H       1  LIG1        0.0660
     24 H           0.3357    1.4735    3.6860 H       1  LIG1        0.0660
     25 H           0.0306    0.0167    2.6977 H       1  LIG1        0.0660
     26 C           0.9947    4.1550    2.5394 C.3     1  LIG1       -0.0351
     27 H           0.2911    4.2647    3.3716 H       1  LIG1        0.0279
     28 H           1.3423    5.1555    2.2741 H       1  LIG1        0.0279
     29 H           1.8476    3.5753    2.8977 H       1  LIG1        0.0279
     30 C          -0.9527    5.3512    0.2955 C.ar    1  LIG1        0.0687
     31 C          -1.4232    5.9957   -0.8226 C.ar    1  LIG1        0.1388
     32 C          -1.9421    7.3060   -0.5981 C.ar    1  LIG1        0.0072
     33 C          -1.8662    7.6572    0.7227 C.ar    1  LIG1        0.0365
     34 S          -1.1694    6.3804    1.6816 S.2     1  LIG1       -0.0831
     35 O          -1.4285    5.4303   -2.0706 O.3     1  LIG1       -0.4937
     36 C          -0.2063    5.5827   -2.7868 C.3     1  LIG1        0.0789
     37 H          -0.3515    5.1047   -3.7559 H       1  LIG1        0.0660
     38 H           0.0336    6.6417   -2.9340 H       1  LIG1        0.0660
     39 H           0.6218    5.0952   -2.2635 H       1  LIG1        0.0660
     40 C          -2.4899    8.1541   -1.7015 C.3     1  LIG1       -0.0351
     41 H          -2.3950    9.2147   -1.4602 H       1  LIG1        0.0279
     42 H          -3.5491    7.9389   -1.8677 H       1  LIG1        0.0279
     43 H          -1.9685    7.9597   -2.6406 H       1  LIG1        0.0279
     44 C          -2.2671    8.8996    1.3710 C.ar    1  LIG1        0.0681
     45 C          -3.4774    9.5450    1.3182 C.ar    1  LIG1        0.1382
     46 C          -3.5510   10.7182    2.1486 C.ar    1  LIG1       -0.0011
     47 C          -2.3748   10.9287    2.7992 C.ar    1  LIG1       -0.0172
     48 S          -1.1829    9.7406    2.4427 S.2     1  LIG1       -0.0921
     49 H          -2.1545   11.7232    3.4983 H       1  LIG1        0.0697
     50 O          -4.5241    9.0155    0.6208 O.3     1  LIG1       -0.4937
     51 C          -5.1712    9.8563   -0.3227 C.3     1  LIG1        0.0789
     52 H          -5.8587   10.5585    0.1564 H       1  LIG1        0.0660
     53 H          -4.4468   10.4165   -0.9228 H       1  LIG1        0.0660
     54 H          -5.7448    9.1991   -0.9777 H       1  LIG1        0.0660
     55 C          -4.7773   11.5603    2.3458 C.3     1  LIG1       -0.0357
     56 H          -4.6572   12.2095    3.2153 H       1  LIG1        0.0279
     57 H          -5.6582   10.9341    2.5133 H       1  LIG1        0.0279
     58 H          -4.9853   12.2007    1.4832 H       1  LIG1        0.0279
@<TRIPOS>BOND
     1    37    36    1
     2     9     8    1
     3    10     8    1
     4    15    12    1
     5    38    36    1
     6     8     7    1
     7     8    11    1
     8    36    39    1
     9    36    35    1
    10     7     2    1
    11    43    40    1
    12    14    12    1
    13    12     3    1
    14    12    13    1
    15    35    31    1
    16    42    40    1
    17     2     3   ar
    18     2     1   ar
    19    40    41    1
    20    40    32    1
    21     3     4   ar
    22     6     1    1
    23     1     5   ar
    24    54    51    1
    25    53    51    1
    26    31    32   ar
    27    31    30   ar
    28    20    16   ar
    29    20    19   ar
    30    32    33   ar
    31     4     5   ar
    32     4    16    1
    33    51    52    1
    34    51    50    1
    35    16    17   ar
    36    30    19    1
    37    30    34   ar
    38    19    18   ar
    39    50    45    1
    40    33    44    1
    41    33    34   ar
    42    17    18   ar
    43    17    21    1
    44    45    44   ar
    45    45    46   ar
    46    18    26    1
    47    44    48   ar
    48    58    55    1
    49    21    22    1
    50    46    55    1
    51    46    47   ar
    52    28    26    1
    53    55    57    1
    54    55    56    1
    55    48    47   ar
    56    26    29    1
    57    26    27    1
    58    25    22    1
    59    47    49    1
    60    22    23    1
    61    22    24    1
