@<TRIPOS>MOLECULE
mol_data/opt/cam/geoms/mol2/5li5li5li-5li.out
 58 61 0 0 0
SMALL
GASTEIGER

@<TRIPOS>ATOM
      1 C           1.0164   -2.0468   -1.2408 C.ar    1  LIG1        0.0183
      2 C          -0.1180   -1.6985   -1.9070 C.ar    1  LIG1        0.1306
      3 C          -0.6156   -0.3938   -1.5789 C.ar    1  LIG1        0.0066
      4 C           0.1812    0.2313   -0.6504 C.ar    1  LIG1        0.0359
      5 S           1.5263   -0.7850   -0.1785 S.2     1  LIG1       -0.0920
      6 H           1.5749   -2.9677   -1.2957 H       1  LIG1        0.0730
      7 O          -0.8070   -2.4406   -2.8111 O.3     1  LIG1       -0.4943
      8 C          -0.2917   -3.7252   -3.0813 C.3     1  LIG1        0.0788
      9 H          -0.9559   -4.1812   -3.8151 H       1  LIG1        0.0660
     10 H           0.7223   -3.6669   -3.4952 H       1  LIG1        0.0660
     11 H          -0.2705   -4.3432   -2.1754 H       1  LIG1        0.0660
     12 C          -1.8679    0.1366   -2.2115 C.3     1  LIG1       -0.0351
     13 H          -1.6502    0.8398   -3.0223 H       1  LIG1        0.0279
     14 H          -2.4988    0.6570   -1.4878 H       1  LIG1        0.0279
     15 H          -2.4381   -0.6888   -2.6395 H       1  LIG1        0.0279
     16 C           0.0529    1.5662   -0.0862 C.ar    1  LIG1        0.0687
     17 C           0.6635    2.0668    1.0364 C.ar    1  LIG1        0.1388
     18 C           0.4120    3.4444    1.3071 C.ar    1  LIG1        0.0072
     19 C          -0.4136    4.0025    0.3601 C.ar    1  LIG1        0.0365
     20 S          -0.8643    2.8300   -0.8540 S.2     1  LIG1       -0.0831
     21 O           1.5125    1.3254    1.8152 O.3     1  LIG1       -0.4937
     22 C           0.8821    0.6891    2.9221 C.3     1  LIG1        0.0789
     23 H           1.6626    0.1472    3.4569 H       1  LIG1        0.0660
     24 H           0.4257    1.4260    3.5922 H       1  LIG1        0.0660
     25 H           0.1166   -0.0163    2.5840 H       1  LIG1        0.0660
     26 C           1.0410    4.1328    2.4814 C.3     1  LIG1       -0.0351
     27 H           1.3751    5.1409    2.2277 H       1  LIG1        0.0279
     28 H           1.9050    3.5549    2.8149 H       1  LIG1        0.0279
     29 H           0.3509    4.2217    3.3273 H       1  LIG1        0.0279
     30 C          -0.9553    5.3496    0.2922 C.ar    1  LIG1        0.0687
     31 C          -1.4507    6.0089   -0.8063 C.ar    1  LIG1        0.1388
     32 C          -1.9773    7.3104   -0.5503 C.ar    1  LIG1        0.0072
     33 C          -1.8818    7.6394    0.7750 C.ar    1  LIG1        0.0365
     34 S          -1.1572    6.3527    1.6995 S.2     1  LIG1       -0.0831
     35 O          -1.4724    5.4651   -2.0637 O.3     1  LIG1       -0.4937
     36 C          -0.2641    5.6411   -2.7979 C.3     1  LIG1        0.0789
     37 H          -0.4218    5.1785   -3.7725 H       1  LIG1        0.0660
     38 H          -0.0363    6.7046   -2.9307 H       1  LIG1        0.0660
     39 H           0.5771    5.1524   -2.2974 H       1  LIG1        0.0660
     40 C          -2.5515    8.1723   -1.6292 C.3     1  LIG1       -0.0351
     41 H          -2.4619    9.2294   -1.3712 H       1  LIG1        0.0279
     42 H          -3.6115    7.9503   -1.7810 H       1  LIG1        0.0279
     43 H          -2.0447    7.9989   -2.5803 H       1  LIG1        0.0279
     44 C          -2.2825    8.8666    1.4516 C.ar    1  LIG1        0.0681
     45 C          -3.4992    9.5018    1.4307 C.ar    1  LIG1        0.1382
     46 C          -3.5690   10.6597    2.2825 C.ar    1  LIG1       -0.0011
     47 C          -2.3837   10.8698    2.9165 C.ar    1  LIG1       -0.0172
     48 S          -1.1875    9.6990    2.5191 S.2     1  LIG1       -0.0921
     49 H          -2.1585   11.6541    3.6255 H       1  LIG1        0.0697
     50 O          -4.5530    8.9748    0.7420 O.3     1  LIG1       -0.4937
     51 C          -5.2238    9.8257   -0.1754 C.3     1  LIG1        0.0789
     52 H          -5.8027    9.1747   -0.8320 H       1  LIG1        0.0660
     53 H          -5.9092   10.5132    0.3274 H       1  LIG1        0.0660
     54 H          -4.5148   10.4029   -0.7780 H       1  LIG1        0.0660
     55 C          -4.7991   11.4870    2.5152 C.3     1  LIG1       -0.0357
     56 H          -4.6698   12.1222    3.3936 H       1  LIG1        0.0279
     57 H          -5.6714   10.8499    2.6868 H       1  LIG1        0.0279
     58 H          -5.0276   12.1403    1.6675 H       1  LIG1        0.0279
@<TRIPOS>BOND
     1     9     8    1
     2    37    36    1
     3    10     8    1
     4     8     7    1
     5     8    11    1
     6    13    12    1
     7    38    36    1
     8     7     2    1
     9    36    39    1
    10    36    35    1
    11    15    12    1
    12    43    40    1
    13    12     3    1
    14    12    14    1
    15    35    31    1
    16     2     3   ar
    17     2     1   ar
    18    42    40    1
    19    40    41    1
    20    40    32    1
    21     3     4   ar
    22     6     1    1
    23     1     5   ar
    24    20    16   ar
    25    20    19   ar
    26    52    51    1
    27    31    32   ar
    28    31    30   ar
    29    54    51    1
    30     4     5   ar
    31     4    16    1
    32    32    33   ar
    33    51    53    1
    34    51    50    1
    35    16    17   ar
    36    30    19    1
    37    30    34   ar
    38    19    18   ar
    39    50    45    1
    40    33    44    1
    41    33    34   ar
    42    17    18   ar
    43    17    21    1
    44    18    26    1
    45    45    44   ar
    46    45    46   ar
    47    44    48   ar
    48    58    55    1
    49    21    22    1
    50    27    26    1
    51    46    55    1
    52    46    47   ar
    53    26    28    1
    54    26    29    1
    55    55    57    1
    56    55    56    1
    57    48    47   ar
    58    25    22    1
    59    47    49    1
    60    22    23    1
    61    22    24    1
