@<TRIPOS>MOLECULE
mol_data/opt/cam/geoms/mol2/5li5li-5li5li-.out
 58 61 0 0 0
SMALL
GASTEIGER

@<TRIPOS>ATOM
      1 C          -0.4610   -1.6521   -2.2237 C.ar    1  LIG1        0.0183
      2 C          -1.6364   -1.4186   -1.5771 C.ar    1  LIG1        0.1306
      3 C          -1.6932   -0.1569   -0.8960 C.ar    1  LIG1        0.0066
      4 C          -0.5304    0.5504   -1.0543 C.ar    1  LIG1        0.0359
      5 S           0.6259   -0.3236   -2.0283 S.2     1  LIG1       -0.0920
      6 H          -0.1618   -2.5224   -2.7861 H       1  LIG1        0.0730
      7 O          -2.7182   -2.2335   -1.4979 O.3     1  LIG1       -0.4943
      8 C          -2.6125   -3.4712   -2.1668 C.3     1  LIG1        0.0788
      9 H          -3.5542   -3.9956   -2.0060 H       1  LIG1        0.0660
     10 H          -2.4544   -3.3280   -3.2425 H       1  LIG1        0.0660
     11 H          -1.7878   -4.0712   -1.7631 H       1  LIG1        0.0660
     12 C          -2.9024    0.2493   -0.1103 C.3     1  LIG1       -0.0351
     13 H          -2.6736    1.0487    0.5949 H       1  LIG1        0.0279
     14 H          -3.2937   -0.6086    0.4417 H       1  LIG1        0.0279
     15 H          -3.7064    0.5982   -0.7664 H       1  LIG1        0.0279
     16 C          -0.1943    1.8858   -0.5728 C.ar    1  LIG1        0.0687
     17 C           0.9949    2.3271   -0.0518 C.ar    1  LIG1        0.1388
     18 C           1.0371    3.7211    0.2605 C.ar    1  LIG1        0.0072
     19 C          -0.1429    4.3435   -0.0471 C.ar    1  LIG1        0.0365
     20 S          -1.2965    3.2207   -0.7159 S.2     1  LIG1       -0.0831
     21 O           2.0918    1.5357    0.1536 O.3     1  LIG1       -0.4937
     22 C           1.9738    0.6177    1.2344 C.3     1  LIG1        0.0789
     23 H           2.9227    0.0834    1.2916 H       1  LIG1        0.0660
     24 H           1.7949    1.1455    2.1782 H       1  LIG1        0.0660
     25 H           1.1658   -0.0996    1.0635 H       1  LIG1        0.0660
     26 C           2.2411    4.3620    0.8726 C.3     1  LIG1       -0.0351
     27 H           1.9566    5.2191    1.4862 H       1  LIG1        0.0279
     28 H           2.9355    4.7106    0.1029 H       1  LIG1        0.0279
     29 H           2.7807    3.6454    1.4947 H       1  LIG1        0.0279
     30 C          -0.5293    5.7398    0.1218 C.ar    1  LIG1        0.0687
     31 C           0.0906    6.8717   -0.3414 C.ar    1  LIG1        0.1388
     32 C          -0.6474    8.0816   -0.1219 C.ar    1  LIG1        0.0072
     33 C          -1.8207    7.8465    0.5547 C.ar    1  LIG1        0.0365
     34 S          -2.0363    6.1484    0.8833 S.2     1  LIG1       -0.0831
     35 O           1.2493    6.8146   -1.0634 O.3     1  LIG1       -0.4937
     36 C           2.3668    7.5059   -0.5211 C.3     1  LIG1        0.0789
     37 H           3.2322    7.1978   -1.1091 H       1  LIG1        0.0660
     38 H           2.2570    8.5911   -0.5975 H       1  LIG1        0.0660
     39 H           2.5297    7.2387    0.5271 H       1  LIG1        0.0660
     40 C          -0.2138    9.3988   -0.6966 C.3     1  LIG1       -0.0351
     41 H          -1.0736   10.0261   -0.9357 H       1  LIG1        0.0279
     42 H           0.3473    9.2280   -1.6183 H       1  LIG1        0.0279
     43 H           0.4267    9.9691   -0.0153 H       1  LIG1        0.0279
     44 C          -2.8203    8.7986    1.0185 C.ar    1  LIG1        0.0681
     45 C          -4.1554    8.5765    1.2480 C.ar    1  LIG1        0.1382
     46 C          -4.8706    9.6955    1.7808 C.ar    1  LIG1       -0.0011
     47 C          -4.0451   10.7613    1.9570 C.ar    1  LIG1       -0.0172
     48 S          -2.4191   10.4283    1.4884 S.2     1  LIG1       -0.0921
     49 H          -4.3045   11.7396    2.3364 H       1  LIG1        0.0697
     50 O          -4.7674    7.3682    1.0504 O.3     1  LIG1       -0.4937
     51 C          -5.2422    7.1565   -0.2753 C.3     1  LIG1        0.0789
     52 H          -5.7261    6.1797   -0.2805 H       1  LIG1        0.0660
     53 H          -5.9692    7.9250   -0.5608 H       1  LIG1        0.0660
     54 H          -4.4168    7.1554   -0.9939 H       1  LIG1        0.0660
     55 C          -6.3322    9.6459    2.1033 C.3     1  LIG1       -0.0357
     56 H          -6.6489   10.5466    2.6324 H       1  LIG1        0.0279
     57 H          -6.5593    8.7778    2.7273 H       1  LIG1        0.0279
     58 H          -6.9405    9.5578    1.1976 H       1  LIG1        0.0279
@<TRIPOS>BOND
     1    10     8    1
     2     6     1    1
     3     1     5   ar
     4     1     2   ar
     5     8     9    1
     6     8    11    1
     7     8     7    1
     8     5     4   ar
     9    42    40    1
    10     2     7    1
    11     2     3   ar
    12    37    36    1
    13    35    36    1
    14    35    31    1
    15     4     3   ar
    16     4    16    1
    17    54    51    1
    18    41    40    1
    19     3    12    1
    20    15    12    1
    21    20    16   ar
    22    20    19   ar
    23    40    32    1
    24    40    43    1
    25    38    36    1
    26    16    17   ar
    27    53    51    1
    28    36    39    1
    29    31    32   ar
    30    31    30   ar
    31    52    51    1
    32    51    50    1
    33    32    33   ar
    34    12    14    1
    35    12    13    1
    36    17    21    1
    37    17    18   ar
    38    19    30    1
    39    19    18   ar
    40    28    26    1
    41    30    34   ar
    42    21    22    1
    43    18    26    1
    44    33    34   ar
    45    33    44    1
    46    26    27    1
    47    26    29    1
    48    44    45   ar
    49    44    48   ar
    50    50    45    1
    51    25    22    1
    52    58    55    1
    53    22    23    1
    54    22    24    1
    55    45    46   ar
    56    48    47   ar
    57    46    47   ar
    58    46    55    1
    59    47    49    1
    60    55    56    1
    61    55    57    1
