@<TRIPOS>MOLECULE
mol_data/opt/cam/geoms/mol2/5li5li5li-5li-.out
 58 61 0 0 0
SMALL
GASTEIGER

@<TRIPOS>ATOM
      1 C           0.9448   -2.0908   -1.1439 C.ar    1  LIG1        0.0183
      2 C          -0.1724   -1.7329   -1.8335 C.ar    1  LIG1        0.1306
      3 C          -0.6573   -0.4183   -1.5264 C.ar    1  LIG1        0.0066
      4 C           0.1317    0.2043   -0.5895 C.ar    1  LIG1        0.0359
      5 S           1.4537   -0.8262   -0.0843 S.2     1  LIG1       -0.0920
      6 H           1.4911   -3.0199   -1.1803 H       1  LIG1        0.0730
      7 O          -0.8558   -2.4737   -2.7429 O.3     1  LIG1       -0.4943
      8 C          -0.3540   -3.7680   -2.9920 C.3     1  LIG1        0.0788
      9 H          -1.0116   -4.2214   -3.7334 H       1  LIG1        0.0660
     10 H           0.6679   -3.7278   -3.3883 H       1  LIG1        0.0660
     11 H          -0.3577   -4.3776   -2.0802 H       1  LIG1        0.0660
     12 C          -1.8904    0.1238   -2.1862 C.3     1  LIG1       -0.0351
     13 H          -1.6484    0.8161   -2.9993 H       1  LIG1        0.0279
     14 H          -2.5266    0.6597   -1.4786 H       1  LIG1        0.0279
     15 H          -2.4645   -0.6976   -2.6167 H       1  LIG1        0.0279
     16 C           0.0125    1.5462   -0.0400 C.ar    1  LIG1        0.0687
     17 C           0.6100    2.0487    1.0887 C.ar    1  LIG1        0.1388
     18 C           0.3734    3.4322    1.3422 C.ar    1  LIG1        0.0072
     19 C          -0.4273    3.9929    0.3754 C.ar    1  LIG1        0.0365
     20 S          -0.8730    2.8154   -0.8356 S.2     1  LIG1       -0.0831
     21 O           1.4345    1.3028    1.8893 O.3     1  LIG1       -0.4937
     22 C           0.7756    0.6860    2.9906 C.3     1  LIG1        0.0789
     23 H           1.5387    0.1383    3.5442 H       1  LIG1        0.0660
     24 H           0.3179    1.4356    3.6456 H       1  LIG1        0.0660
     25 H           0.0063   -0.0117    2.6454 H       1  LIG1        0.0660
     26 C           0.9912    4.1228    2.5211 C.3     1  LIG1       -0.0351
     27 H           1.3439    5.1236    2.2642 H       1  LIG1        0.0279
     28 H           1.8409    3.5360    2.8753 H       1  LIG1        0.0279
     29 H           0.2875    4.2293    3.3537 H       1  LIG1        0.0279
     30 C          -0.9485    5.3467    0.2855 C.ar    1  LIG1        0.0687
     31 C          -1.4149    6.0026   -0.8277 C.ar    1  LIG1        0.1388
     32 C          -1.9274    7.3137   -0.5931 C.ar    1  LIG1        0.0072
     33 C          -1.8508    7.6538    0.7306 C.ar    1  LIG1        0.0365
     34 S          -1.1611    6.3658    1.6796 S.2     1  LIG1       -0.0831
     35 O          -1.4220    5.4473   -2.0803 O.3     1  LIG1       -0.4937
     36 C          -0.1984    5.5993   -2.7943 C.3     1  LIG1        0.0789
     37 H          -0.3453    5.1299   -3.7673 H       1  LIG1        0.0660
     38 H           0.0468    6.6583   -2.9328 H       1  LIG1        0.0660
     39 H           0.6268    5.1036   -2.2743 H       1  LIG1        0.0660
     40 C          -2.4701    8.1733   -1.6900 C.3     1  LIG1       -0.0351
     41 H          -2.3700    9.2314   -1.4401 H       1  LIG1        0.0279
     42 H          -3.5302    7.9648   -1.8587 H       1  LIG1        0.0279
     43 H          -1.9489    7.9839   -2.6303 H       1  LIG1        0.0279
     44 C          -2.2460    8.8929    1.3886 C.ar    1  LIG1        0.0681
     45 C          -3.4530    9.5448    1.3401 C.ar    1  LIG1        0.1382
     46 C          -3.5215   10.7116    2.1799 C.ar    1  LIG1       -0.0011
     47 C          -2.3447   10.9110    2.8330 C.ar    1  LIG1       -0.0172
     48 S          -1.1584    9.7199    2.4678 S.2     1  LIG1       -0.0921
     49 H          -2.1210   11.6987    3.5386 H       1  LIG1        0.0697
     50 O          -4.5018    9.0262    0.6376 O.3     1  LIG1       -0.4937
     51 C          -5.1440    9.8777   -0.2996 C.3     1  LIG1        0.0789
     52 H          -5.8284   10.5795    0.1846 H       1  LIG1        0.0660
     53 H          -4.4163   10.4391   -0.8946 H       1  LIG1        0.0660
     54 H          -5.7203    9.2287   -0.9603 H       1  LIG1        0.0660
     55 C          -4.7437   11.5582    2.3828 C.3     1  LIG1       -0.0357
     56 H          -4.6210   12.1998    3.2576 H       1  LIG1        0.0279
     57 H          -5.6278   10.9351    2.5446 H       1  LIG1        0.0279
     58 H          -4.9478   12.2066    1.5253 H       1  LIG1        0.0279
@<TRIPOS>BOND
     1    37    36    1
     2     9     8    1
     3    10     8    1
     4    13    12    1
     5     8     7    1
     6     8    11    1
     7    38    36    1
     8    36    39    1
     9    36    35    1
    10     7     2    1
    11    43    40    1
    12    15    12    1
    13    12     3    1
    14    12    14    1
    15    35    31    1
    16    42    40    1
    17     2     3   ar
    18     2     1   ar
    19    40    41    1
    20    40    32    1
    21     3     4   ar
    22     6     1    1
    23     1     5   ar
    24    54    51    1
    25    53    51    1
    26    20    16   ar
    27    20    19   ar
    28    31    32   ar
    29    31    30   ar
    30    32    33   ar
    31     4     5   ar
    32     4    16    1
    33    51    52    1
    34    51    50    1
    35    16    17   ar
    36    30    19    1
    37    30    34   ar
    38    19    18   ar
    39    50    45    1
    40    33    44    1
    41    33    34   ar
    42    17    18   ar
    43    17    21    1
    44    45    44   ar
    45    45    46   ar
    46    18    26    1
    47    44    48   ar
    48    58    55    1
    49    21    22    1
    50    46    55    1
    51    46    47   ar
    52    27    26    1
    53    55    57    1
    54    55    56    1
    55    48    47   ar
    56    26    28    1
    57    26    29    1
    58    25    22    1
    59    47    49    1
    60    22    23    1
    61    22    24    1
