@<TRIPOS>MOLECULE
mol_data/opt/cam/geoms/mol2/5li5li-5li.out
 44 46 0 0 0
SMALL
GASTEIGER

@<TRIPOS>ATOM
      1 C          -0.0272   -1.9645   -1.4266 C.ar    1  LIG1        0.0183
      2 C          -1.2118   -1.6311   -0.8456 C.ar    1  LIG1        0.1306
      3 C          -1.2504   -0.3010   -0.3099 C.ar    1  LIG1        0.0066
      4 C          -0.0615    0.3581   -0.5099 C.ar    1  LIG1        0.0359
      5 S           1.0966   -0.6567   -1.3427 S.2     1  LIG1       -0.0920
      6 H           0.2604   -2.8978   -1.8841 H       1  LIG1        0.0730
      7 O          -2.3177   -2.4078   -0.7177 O.3     1  LIG1       -0.4943
      8 C          -2.2221   -3.7145   -1.2398 C.3     1  LIG1        0.0788
      9 H          -3.1816   -4.1968   -1.0547 H       1  LIG1        0.0660
     10 H          -2.0258   -3.6971   -2.3187 H       1  LIG1        0.0660
     11 H          -1.4266   -4.2832   -0.7431 H       1  LIG1        0.0660
     12 C          -2.4774    0.2183    0.3789 C.3     1  LIG1       -0.0351
     13 H          -2.2286    0.7875    1.2772 H       1  LIG1        0.0279
     14 H          -3.1172   -0.6179    0.6635 H       1  LIG1        0.0279
     15 H          -3.0651    0.8739   -0.2722 H       1  LIG1        0.0279
     16 C           0.2971    1.7243   -0.1606 C.ar    1  LIG1        0.0687
     17 C           1.5527    2.2733   -0.0947 C.ar    1  LIG1        0.1388
     18 C           1.5956    3.6682    0.2011 C.ar    1  LIG1        0.0072
     19 C           0.3339    4.1890    0.3653 C.ar    1  LIG1        0.0365
     20 S          -0.8887    2.9605    0.1446 S.2     1  LIG1       -0.0831
     21 O           2.6928    1.5591   -0.3551 O.3     1  LIG1       -0.4937
     22 C           3.3025    0.9941    0.8010 C.3     1  LIG1        0.0789
     23 H           4.1902    0.4622    0.4577 H       1  LIG1        0.0660
     24 H           3.5972    1.7746    1.5113 H       1  LIG1        0.0660
     25 H           2.6261    0.2905    1.2961 H       1  LIG1        0.0660
     26 C           2.8993    4.4057    0.2705 C.3     1  LIG1       -0.0351
     27 H           2.8425    5.3755   -0.2286 H       1  LIG1        0.0279
     28 H           3.6732    3.8117   -0.2189 H       1  LIG1        0.0279
     29 H           3.2174    4.5881    1.3027 H       1  LIG1        0.0279
     30 C          -0.0639    5.5432    0.7153 C.ar    1  LIG1        0.0681
     31 C          -1.3012    6.1225    0.5741 C.ar    1  LIG1        0.1382
     32 C          -1.4049    7.4603    1.0708 C.ar    1  LIG1       -0.0011
     33 C          -0.2207    7.8776    1.5915 C.ar    1  LIG1       -0.0172
     34 S           1.0124    6.6764    1.4901 S.2     1  LIG1       -0.0921
     35 H           0.0026    8.8380    2.0344 H       1  LIG1        0.0697
     36 O          -2.3831    5.4595    0.0580 O.3     1  LIG1       -0.4937
     37 C          -2.5675    5.6361   -1.3431 C.3     1  LIG1        0.0789
     38 H          -3.4649    5.0783   -1.6121 H       1  LIG1        0.0660
     39 H          -2.7084    6.6933   -1.5928 H       1  LIG1        0.0660
     40 H          -1.7142    5.2426   -1.9042 H       1  LIG1        0.0660
     41 C          -2.6755    8.2523    1.0220 C.3     1  LIG1       -0.0357
     42 H          -2.6102    9.1394    1.6547 H       1  LIG1        0.0279
     43 H          -3.5185    7.6446    1.3603 H       1  LIG1        0.0279
     44 H          -2.9053    8.5853    0.0047 H       1  LIG1        0.0279
@<TRIPOS>BOND
     1    10     8    1
     2    40    37    1
     3     6     1    1
     4    38    37    1
     5    39    37    1
     6     1     5   ar
     7     1     2   ar
     8    37    36    1
     9     5     4   ar
    10     8     9    1
    11     8    11    1
    12     8     7    1
    13     2     7    1
    14     2     3   ar
    15     4     3   ar
    16     4    16    1
    17    21    17    1
    18    21    22    1
    19     3    12    1
    20    15    12    1
    21    27    26    1
    22    28    26    1
    23    16    17   ar
    24    16    20   ar
    25    17    18   ar
    26    44    41    1
    27    36    31    1
    28    20    19   ar
    29    18    26    1
    30    18    19   ar
    31    26    29    1
    32    19    30    1
    33    12    14    1
    34    12    13    1
    35    23    22    1
    36    31    30   ar
    37    31    32   ar
    38    30    34   ar
    39    22    25    1
    40    22    24    1
    41    41    32    1
    42    41    43    1
    43    41    42    1
    44    32    33   ar
    45    34    33   ar
    46    33    35    1
