@<TRIPOS>MOLECULE
mol_data/opt/cam/geoms/mol2/5li5li5li5li-.out
 58 61 0 0 0
SMALL
GASTEIGER

@<TRIPOS>ATOM
      1 C          -0.4334   -1.6667   -2.1889 C.ar    1  LIG1        0.0183
      2 C          -1.6258   -1.4233   -1.5781 C.ar    1  LIG1        0.1306
      3 C          -1.6950   -0.1585   -0.9040 C.ar    1  LIG1        0.0066
      4 C          -0.5237    0.5411   -1.0308 C.ar    1  LIG1        0.0359
      5 S           0.6553   -0.3438   -1.9669 S.2     1  LIG1       -0.0920
      6 H          -0.1231   -2.5410   -2.7387 H       1  LIG1        0.0730
      7 O          -2.7145   -2.2315   -1.5276 O.3     1  LIG1       -0.4943
      8 C          -2.5967   -3.4726   -2.1881 C.3     1  LIG1        0.0788
      9 H          -3.5459   -3.9906   -2.0530 H       1  LIG1        0.0660
     10 H          -2.4062   -3.3348   -3.2593 H       1  LIG1        0.0660
     11 H          -1.7880   -4.0758   -1.7579 H       1  LIG1        0.0660
     12 C          -2.9243    0.2581   -0.1558 C.3     1  LIG1       -0.0351
     13 H          -3.7066    0.6089   -0.8368 H       1  LIG1        0.0279
     14 H          -2.7115    1.0593    0.5524 H       1  LIG1        0.0279
     15 H          -3.3367   -0.5950    0.3880 H       1  LIG1        0.0279
     16 C          -0.1938    1.8764   -0.5449 C.ar    1  LIG1        0.0687
     17 C           0.9822    2.3128    0.0093 C.ar    1  LIG1        0.1388
     18 C           1.0238    3.7078    0.3171 C.ar    1  LIG1        0.0072
     19 C          -0.1428    4.3360   -0.0278 C.ar    1  LIG1        0.0365
     20 S          -1.2830    3.2174   -0.7261 S.2     1  LIG1       -0.0831
     21 O           2.0676    1.5156    0.2503 O.3     1  LIG1       -0.4937
     22 C           1.9119    0.6027    1.3307 C.3     1  LIG1        0.0789
     23 H           2.8554    0.0630    1.4182 H       1  LIG1        0.0660
     24 H           1.7083    1.1354    2.2667 H       1  LIG1        0.0660
     25 H           1.1050   -0.1104    1.1387 H       1  LIG1        0.0660
     26 C           2.2130    4.3438    0.9621 C.3     1  LIG1       -0.0351
     27 H           1.9158    5.2052    1.5636 H       1  LIG1        0.0279
     28 H           2.9320    4.6851    0.2119 H       1  LIG1        0.0279
     29 H           2.7296    3.6266    1.6027 H       1  LIG1        0.0279
     30 C          -0.5253    5.7353    0.1239 C.ar    1  LIG1        0.0687
     31 C           0.1152    6.8615   -0.3252 C.ar    1  LIG1        0.1388
     32 C          -0.6216    8.0768   -0.1326 C.ar    1  LIG1        0.0072
     33 C          -1.8159    7.8516    0.5096 C.ar    1  LIG1        0.0365
     34 S          -2.0518    6.1563    0.8384 S.2     1  LIG1       -0.0831
     35 O           1.2945    6.7943   -1.0121 O.3     1  LIG1       -0.4937
     36 C           2.3995    7.4811   -0.4395 C.3     1  LIG1        0.0789
     37 H           2.2988    8.5666   -0.5235 H       1  LIG1        0.0660
     38 H           2.5295    7.2174    0.6142 H       1  LIG1        0.0660
     39 H           3.2802    7.1652   -1.0001 H       1  LIG1        0.0660
     40 C          -0.1628    9.3888   -0.6994 C.3     1  LIG1       -0.0351
     41 H          -1.0113   10.0204   -0.9666 H       1  LIG1        0.0279
     42 H           0.4244    9.2108   -1.6034 H       1  LIG1        0.0279
     43 H           0.4606    9.9581   -0.0016 H       1  LIG1        0.0279
     44 C          -2.8229    8.8118    0.9396 C.ar    1  LIG1        0.0681
     45 C          -4.1657    8.5987    1.1301 C.ar    1  LIG1        0.1382
     46 C          -4.8894    9.7243    1.6367 C.ar    1  LIG1       -0.0011
     47 C          -4.0630   10.7858    1.8331 C.ar    1  LIG1       -0.0172
     48 S          -2.4259   10.4410    1.4144 S.2     1  LIG1       -0.0921
     49 H          -4.3276   11.7672    2.2005 H       1  LIG1        0.0697
     50 O          -4.7790    7.3933    0.9193 O.3     1  LIG1       -0.4937
     51 C          -5.2155    7.1787   -0.4189 C.3     1  LIG1        0.0789
     52 H          -5.7051    6.2048   -0.4346 H       1  LIG1        0.0660
     53 H          -5.9290    7.9504   -0.7291 H       1  LIG1        0.0660
     54 H          -4.3692    7.1696   -1.1128 H       1  LIG1        0.0660
     55 C          -6.3603    9.6849    1.9159 C.3     1  LIG1       -0.0357
     56 H          -6.6870   10.5897    2.4317 H       1  LIG1        0.0279
     57 H          -6.6111    8.8208    2.5364 H       1  LIG1        0.0279
     58 H          -6.9420    9.5966    0.9928 H       1  LIG1        0.0279
@<TRIPOS>BOND
     1    10     8    1
     2     6     1    1
     3     1     5   ar
     4     1     2   ar
     5     8     9    1
     6     8    11    1
     7     8     7    1
     8     5     4   ar
     9    42    40    1
    10     2     7    1
    11     2     3   ar
    12    54    51    1
    13     4     3   ar
    14     4    16    1
    15    35    36    1
    16    35    31    1
    17    39    36    1
    18    41    40    1
    19     3    12    1
    20    13    12    1
    21    53    51    1
    22    20    16   ar
    23    20    19   ar
    24    40    32    1
    25    40    43    1
    26    16    17   ar
    27    37    36    1
    28    36    38    1
    29    52    51    1
    30    51    50    1
    31    31    32   ar
    32    31    30   ar
    33    12    15    1
    34    12    14    1
    35    32    33   ar
    36    19    30    1
    37    19    18   ar
    38    17    21    1
    39    17    18   ar
    40    30    34   ar
    41    28    26    1
    42    21    22    1
    43    18    26    1
    44    33    34   ar
    45    33    44    1
    46    50    45    1
    47    44    45   ar
    48    44    48   ar
    49    26    27    1
    50    26    29    1
    51    58    55    1
    52    45    46   ar
    53    25    22    1
    54    22    23    1
    55    22    24    1
    56    48    47   ar
    57    46    47   ar
    58    46    55    1
    59    47    49    1
    60    55    56    1
    61    55    57    1
