@<TRIPOS>MOLECULE
mol_data/opt/cam/geoms/mol2/5li5li.out
 30 31 0 0 0
SMALL
GASTEIGER

@<TRIPOS>ATOM
      1 C          -2.0192   -1.8731    0.8470 C.ar    1  LIG1        0.0183
      2 C          -0.9357   -1.9439    0.0239 C.ar    1  LIG1        0.1306
      3 C          -0.4482   -0.6682   -0.4203 C.ar    1  LIG1        0.0066
      4 C          -1.1868    0.3569    0.1050 C.ar    1  LIG1        0.0359
      5 S          -2.4723   -0.2288    1.1285 S.2     1  LIG1       -0.0920
      6 H          -2.5783   -2.6773    1.2978 H       1  LIG1        0.0730
      7 O          -0.3029   -3.0580   -0.4190 O.3     1  LIG1       -0.4943
      8 C          -0.8431   -4.2906    0.0056 C.3     1  LIG1        0.0788
      9 H          -0.2287   -5.0718   -0.4411 H       1  LIG1        0.0660
     10 H          -0.8105   -4.3821    1.0981 H       1  LIG1        0.0660
     11 H          -1.8806   -4.4052   -0.3305 H       1  LIG1        0.0660
     12 C           0.7065   -0.5336   -1.3622 C.3     1  LIG1       -0.0351
     13 H           1.6627   -0.5412   -0.8295 H       1  LIG1        0.0279
     14 H           0.6505    0.4054   -1.9145 H       1  LIG1        0.0279
     15 H           0.7155   -1.3677   -2.0668 H       1  LIG1        0.0279
     16 C          -1.0012    1.7871   -0.1043 C.ar    1  LIG1        0.0681
     17 C           0.1532    2.5243   -0.0291 C.ar    1  LIG1        0.1382
     18 C          -0.0063    3.9092   -0.3659 C.ar    1  LIG1       -0.0011
     19 C          -1.2983    4.1932   -0.6772 C.ar    1  LIG1       -0.0172
     20 S          -2.3277    2.8130   -0.5802 S.2     1  LIG1       -0.0921
     21 H          -1.7095    5.1543   -0.9522 H       1  LIG1        0.0697
     22 O           1.3909    2.0581    0.3112 O.3     1  LIG1       -0.4937
     23 C           1.5067    1.4713    1.6023 C.3     1  LIG1        0.0789
     24 H           2.5717    1.3032    1.7669 H       1  LIG1        0.0660
     25 H           1.1219    2.1469    2.3738 H       1  LIG1        0.0660
     26 H           0.9748    0.5182    1.6628 H       1  LIG1        0.0660
     27 C           1.1339    4.8793   -0.3492 C.3     1  LIG1       -0.0357
     28 H           0.7989    5.8835   -0.6159 H       1  LIG1        0.0279
     29 H           1.9149    4.5782   -1.0528 H       1  LIG1        0.0279
     30 H           1.5987    4.9237    0.6399 H       1  LIG1        0.0279
@<TRIPOS>BOND
     1    15    12    1
     2    14    12    1
     3    12    13    1
     4    12     3    1
     5    29    27    1
     6    21    19    1
     7    19    20   ar
     8    19    18   ar
     9    28    27    1
    10    20    16   ar
    11     9     8    1
    12     3     2   ar
    13     3     4   ar
    14     7     8    1
    15     7     2    1
    16    18    27    1
    17    18    17   ar
    18    27    30    1
    19    11     8    1
    20    16    17   ar
    21    16     4    1
    22    17    22    1
    23     8    10    1
    24     2     1   ar
    25     4     5   ar
    26    22    23    1
    27     1     5   ar
    28     1     6    1
    29    23    26    1
    30    23    24    1
    31    23    25    1
