@<TRIPOS>MOLECULE
mol_data/opt/cam/geoms/mol2/5li5li-5li5li.out
 58 61 0 0 0
SMALL
GASTEIGER

@<TRIPOS>ATOM
      1 C          -0.3951   -1.6454   -2.2091 C.ar    1  LIG1        0.0183
      2 C          -1.5737   -1.4231   -1.5643 C.ar    1  LIG1        0.1306
      3 C          -1.6444   -0.1613   -0.8848 C.ar    1  LIG1        0.0066
      4 C          -0.4887    0.5577   -1.0425 C.ar    1  LIG1        0.0359
      5 S           0.6777   -0.3055   -2.0139 S.2     1  LIG1       -0.0920
      6 H          -0.0863   -2.5132   -2.7700 H       1  LIG1        0.0730
      7 O          -2.6472   -2.2491   -1.4855 O.3     1  LIG1       -0.4943
      8 C          -2.5279   -3.4864   -2.1527 C.3     1  LIG1        0.0788
      9 H          -3.4644   -4.0202   -1.9926 H       1  LIG1        0.0660
     10 H          -2.3699   -3.3429   -3.2284 H       1  LIG1        0.0660
     11 H          -1.6977   -4.0774   -1.7473 H       1  LIG1        0.0660
     12 C          -2.8587    0.2333   -0.1011 C.3     1  LIG1       -0.0351
     13 H          -2.6391    1.0359    0.6034 H       1  LIG1        0.0279
     14 H          -3.2419   -0.6278    0.4514 H       1  LIG1        0.0279
     15 H          -3.6655    0.5732   -0.7587 H       1  LIG1        0.0279
     16 C          -0.1670    1.8970   -0.5621 C.ar    1  LIG1        0.0687
     17 C           1.0169    2.3512   -0.0400 C.ar    1  LIG1        0.1388
     18 C           1.0445    3.7459    0.2706 C.ar    1  LIG1        0.0072
     19 C          -0.1415    4.3558   -0.0393 C.ar    1  LIG1        0.0365
     20 S          -1.2826    3.2204   -0.7084 S.2     1  LIG1       -0.0831
     21 O           2.1216    1.5713    0.1678 O.3     1  LIG1       -0.4937
     22 C           2.0116    0.6533    1.2494 C.3     1  LIG1        0.0789
     23 H           2.9658    0.1290    1.3086 H       1  LIG1        0.0660
     24 H           1.8259    1.1803    2.1924 H       1  LIG1        0.0660
     25 H           1.2113   -0.0724    1.0783 H       1  LIG1        0.0660
     26 C           2.2410    4.3998    0.8835 C.3     1  LIG1       -0.0351
     27 H           1.9469    5.2548    1.4957 H       1  LIG1        0.0279
     28 H           2.9328    4.7546    0.1143 H       1  LIG1        0.0279
     29 H           2.7871    3.6896    1.5072 H       1  LIG1        0.0279
     30 C          -0.5423    5.7483    0.1273 C.ar    1  LIG1        0.0687
     31 C           0.0667    6.8859   -0.3365 C.ar    1  LIG1        0.1388
     32 C          -0.6841    8.0885   -0.1195 C.ar    1  LIG1        0.0072
     33 C          -1.8558    7.8422    0.5557 C.ar    1  LIG1        0.0365
     34 S          -2.0546    6.1424    0.8860 S.2     1  LIG1       -0.0831
     35 O           1.2269    6.8398   -1.0568 O.3     1  LIG1       -0.4937
     36 C           2.3364    7.5432   -0.5137 C.3     1  LIG1        0.0789
     37 H           3.2059    7.2432   -1.1001 H       1  LIG1        0.0660
     38 H           2.2156    8.6271   -0.5915 H       1  LIG1        0.0660
     39 H           2.5007    7.2789    0.5351 H       1  LIG1        0.0660
     40 C          -0.2631    9.4093   -0.6953 C.3     1  LIG1       -0.0351
     41 H           0.3705    9.9870   -0.0138 H       1  LIG1        0.0279
     42 H          -1.1290   10.0275   -0.9364 H       1  LIG1        0.0279
     43 H           0.3010    9.2431   -1.6160 H       1  LIG1        0.0279
     44 C          -2.8658    8.7846    1.0168 C.ar    1  LIG1        0.0681
     45 C          -4.1989    8.5491    1.2447 C.ar    1  LIG1        0.1382
     46 C          -4.9263    9.6614    1.7750 C.ar    1  LIG1       -0.0011
     47 C          -4.1121   10.7358    1.9510 C.ar    1  LIG1       -0.0172
     48 S          -2.4821   10.4190    1.4851 S.2     1  LIG1       -0.0921
     49 H          -4.3820   11.7119    2.3286 H       1  LIG1        0.0697
     50 O          -4.7982    7.3343    1.0478 O.3     1  LIG1       -0.4937
     51 C          -5.2690    7.1160   -0.2782 C.3     1  LIG1        0.0789
     52 H          -5.7428    6.1342   -0.2828 H       1  LIG1        0.0660
     53 H          -6.0035    7.8765   -0.5657 H       1  LIG1        0.0660
     54 H          -4.4426    7.1224   -0.9957 H       1  LIG1        0.0660
     55 C          -6.3878    9.5972    2.0956 C.3     1  LIG1       -0.0357
     56 H          -6.7144   10.4952    2.6231 H       1  LIG1        0.0279
     57 H          -6.6068    8.7276    2.7204 H       1  LIG1        0.0279
     58 H          -6.9939    9.5016    1.1891 H       1  LIG1        0.0279
@<TRIPOS>BOND
     1    10     8    1
     2     6     1    1
     3     1     5   ar
     4     1     2   ar
     5     8     9    1
     6     8    11    1
     7     8     7    1
     8     5     4   ar
     9    43    40    1
    10     2     7    1
    11     2     3   ar
    12    37    36    1
    13    35    36    1
    14    35    31    1
    15     4     3   ar
    16     4    16    1
    17    54    51    1
    18    42    40    1
    19     3    12    1
    20    15    12    1
    21    20    16   ar
    22    20    19   ar
    23    40    32    1
    24    40    41    1
    25    38    36    1
    26    53    51    1
    27    16    17   ar
    28    36    39    1
    29    31    32   ar
    30    31    30   ar
    31    52    51    1
    32    51    50    1
    33    32    33   ar
    34    12    14    1
    35    12    13    1
    36    17    21    1
    37    17    18   ar
    38    19    30    1
    39    19    18   ar
    40    28    26    1
    41    30    34   ar
    42    21    22    1
    43    18    26    1
    44    33    34   ar
    45    33    44    1
    46    26    27    1
    47    26    29    1
    48    44    45   ar
    49    44    48   ar
    50    50    45    1
    51    25    22    1
    52    58    55    1
    53    45    46   ar
    54    22    23    1
    55    22    24    1
    56    48    47   ar
    57    46    47   ar
    58    46    55    1
    59    47    49    1
    60    55    56    1
    61    55    57    1
