@<TRIPOS>MOLECULE
mol_data/opt/cam/geoms/mol2/5li5li5li-.out
 44 46 0 0 0
SMALL
GASTEIGER

@<TRIPOS>ATOM
      1 C          -0.0617   -1.9660   -1.4262 C.ar    1  LIG1        0.0183
      2 C          -1.2537   -1.6174   -0.8699 C.ar    1  LIG1        0.1306
      3 C          -1.2852   -0.2881   -0.3316 C.ar    1  LIG1        0.0066
      4 C          -0.0832    0.3547   -0.5044 C.ar    1  LIG1        0.0359
      5 S           1.0783   -0.6743   -1.3147 S.2     1  LIG1       -0.0920
      6 H           0.2226   -2.9022   -1.8798 H       1  LIG1        0.0730
      7 O          -2.3728   -2.3788   -0.7679 O.3     1  LIG1       -0.4943
      8 C          -2.2843   -3.6855   -1.2911 C.3     1  LIG1        0.0788
      9 H          -3.2542   -4.1547   -1.1279 H       1  LIG1        0.0660
     10 H          -2.0645   -3.6684   -2.3655 H       1  LIG1        0.0660
     11 H          -1.5076   -4.2665   -0.7790 H       1  LIG1        0.0660
     12 C          -2.5194    0.2468    0.3320 C.3     1  LIG1       -0.0351
     13 H          -2.2820    0.8101    1.2370 H       1  LIG1        0.0279
     14 H          -3.1769   -0.5810    0.6003 H       1  LIG1        0.0279
     15 H          -3.0835    0.9123   -0.3298 H       1  LIG1        0.0279
     16 C           0.2868    1.7149   -0.1438 C.ar    1  LIG1        0.0687
     17 C           1.5483    2.2462   -0.0498 C.ar    1  LIG1        0.1388
     18 C           1.6043    3.6396    0.2507 C.ar    1  LIG1        0.0072
     19 C           0.3468    4.1776    0.3894 C.ar    1  LIG1        0.0365
     20 S          -0.8879    2.9669    0.1394 S.2     1  LIG1       -0.0831
     21 O           2.6836    1.5167   -0.2878 O.3     1  LIG1       -0.4937
     22 C           3.2607    0.9407    0.8795 C.3     1  LIG1        0.0789
     23 H           4.1480    0.3972    0.5538 H       1  LIG1        0.0660
     24 H           3.5511    1.7153    1.5980 H       1  LIG1        0.0660
     25 H           2.5642    0.2454    1.3584 H       1  LIG1        0.0660
     26 C           2.9164    4.3587    0.3498 C.3     1  LIG1       -0.0351
     27 H           2.8837    5.3304   -0.1478 H       1  LIG1        0.0279
     28 H           3.6922    3.7551   -0.1247 H       1  LIG1        0.0279
     29 H           3.2150    4.5341    1.3889 H       1  LIG1        0.0279
     30 C          -0.0395    5.5364    0.7345 C.ar    1  LIG1        0.0681
     31 C          -1.2653    6.1333    0.5686 C.ar    1  LIG1        0.1382
     32 C          -1.3609    7.4712    1.0665 C.ar    1  LIG1       -0.0011
     33 C          -0.1824    7.8707    1.6135 C.ar    1  LIG1       -0.0172
     34 S           1.0357    6.6526    1.5352 S.2     1  LIG1       -0.0921
     35 H           0.0447    8.8267    2.0637 H       1  LIG1        0.0697
     36 O          -2.3450    5.4868    0.0277 O.3     1  LIG1       -0.4937
     37 C          -2.4970    5.6692   -1.3766 C.3     1  LIG1        0.0789
     38 H          -3.3961    5.1248   -1.6662 H       1  LIG1        0.0660
     39 H          -2.6176    6.7288   -1.6264 H       1  LIG1        0.0660
     40 H          -1.6374    5.2650   -1.9203 H       1  LIG1        0.0660
     41 C          -2.6190    8.2810    0.9929 C.3     1  LIG1       -0.0357
     42 H          -2.5547    9.1659    1.6287 H       1  LIG1        0.0279
     43 H          -3.4774    7.6846    1.3121 H       1  LIG1        0.0279
     44 H          -2.8227    8.6192   -0.0283 H       1  LIG1        0.0279
@<TRIPOS>BOND
     1    10     8    1
     2    40    37    1
     3     6     1    1
     4    38    37    1
     5    39    37    1
     6     1     5   ar
     7     1     2   ar
     8    37    36    1
     9     5     4   ar
    10     8     9    1
    11     8    11    1
    12     8     7    1
    13     2     7    1
    14     2     3   ar
    15     4     3   ar
    16     4    16    1
    17     3    12    1
    18    15    12    1
    19    21    17    1
    20    21    22    1
    21    27    26    1
    22    16    17   ar
    23    16    20   ar
    24    28    26    1
    25    17    18   ar
    26    44    41    1
    27    36    31    1
    28    20    19   ar
    29    18    26    1
    30    18    19   ar
    31    12    14    1
    32    12    13    1
    33    26    29    1
    34    19    30    1
    35    23    22    1
    36    31    30   ar
    37    31    32   ar
    38    30    34   ar
    39    22    25    1
    40    22    24    1
    41    41    32    1
    42    41    43    1
    43    41    42    1
    44    32    33   ar
    45    34    33   ar
    46    33    35    1
