@<TRIPOS>MOLECULE
mol_data/opt/cam/geoms/mol2/5li5li-.out
 30 31 0 0 0
SMALL
GASTEIGER

@<TRIPOS>ATOM
      1 C          -2.0343   -1.8733    0.7995 C.ar    1  LIG1        0.0183
      2 C          -0.9383   -1.9430   -0.0071 C.ar    1  LIG1        0.1306
      3 C          -0.4427   -0.6666   -0.4402 C.ar    1  LIG1        0.0066
      4 C          -1.1882    0.3579    0.0766 C.ar    1  LIG1        0.0359
      5 S          -2.4899   -0.2293    1.0785 S.2     1  LIG1       -0.0920
      6 H          -2.6011   -2.6782    1.2394 H       1  LIG1        0.0730
      7 O          -0.3000   -3.0565   -0.4433 O.3     1  LIG1       -0.4943
      8 C          -0.8478   -4.2897   -0.0303 C.3     1  LIG1        0.0788
      9 H          -0.2274   -5.0704   -0.4697 H       1  LIG1        0.0660
     10 H          -0.8322   -4.3842    1.0622 H       1  LIG1        0.0660
     11 H          -1.8802   -4.4023   -0.3827 H       1  LIG1        0.0660
     12 C           0.7265   -0.5306   -1.3638 C.3     1  LIG1       -0.0351
     13 H           0.6799    0.4099   -1.9144 H       1  LIG1        0.0279
     14 H           0.7455   -1.3628   -2.0704 H       1  LIG1        0.0279
     15 H           1.6743   -0.5407   -0.8165 H       1  LIG1        0.0279
     16 C          -0.9979    1.7884   -0.1260 C.ar    1  LIG1        0.0681
     17 C           0.1560    2.5241   -0.0309 C.ar    1  LIG1        0.1382
     18 C           0.0030    3.9102   -0.3665 C.ar    1  LIG1       -0.0011
     19 C          -1.2837    4.1963   -0.6970 C.ar    1  LIG1       -0.0172
     20 S          -2.3159    2.8170   -0.6195 S.2     1  LIG1       -0.0921
     21 H          -1.6896    5.1586   -0.9756 H       1  LIG1        0.0697
     22 O           1.3877    2.0558    0.3271 O.3     1  LIG1       -0.4937
     23 C           1.4830    1.4650    1.6181 C.3     1  LIG1        0.0789
     24 H           2.5452    1.2958    1.7989 H       1  LIG1        0.0660
     25 H           1.0864    2.1383    2.3856 H       1  LIG1        0.0660
     26 H           0.9497    0.5120    1.6672 H       1  LIG1        0.0660
     27 C           1.1438    4.8790   -0.3296 C.3     1  LIG1       -0.0357
     28 H           0.8140    5.8842   -0.5986 H       1  LIG1        0.0279
     29 H           1.9352    4.5790   -1.0220 H       1  LIG1        0.0279
     30 H           1.5935    4.9201    0.6666 H       1  LIG1        0.0279
@<TRIPOS>BOND
     1    14    12    1
     2    13    12    1
     3    12    15    1
     4    12     3    1
     5    29    27    1
     6    21    19    1
     7    19    20   ar
     8    19    18   ar
     9    20    16   ar
    10    28    27    1
    11     9     8    1
    12     7     8    1
    13     7     2    1
    14     3     2   ar
    15     3     4   ar
    16    11     8    1
    17    18    27    1
    18    18    17   ar
    19    27    30    1
    20    16    17   ar
    21    16     4    1
    22    17    22    1
    23     8    10    1
    24     2     1   ar
    25     4     5   ar
    26    22    23    1
    27     1     5   ar
    28     1     6    1
    29    23    26    1
    30    23    24    1
    31    23    25    1
