@<TRIPOS>MOLECULE
mol_data/opt/cam/geoms/mol2/5li5li5li5li.out
 58 61 0 0 0
SMALL
GASTEIGER

@<TRIPOS>ATOM
      1 C           1.0263   -1.8829   -1.1208 C.ar    1  LIG1        0.0183
      2 C           0.0815   -1.4835   -2.0152 C.ar    1  LIG1        0.1306
      3 C          -0.4395   -0.1693   -1.7725 C.ar    1  LIG1        0.0066
      4 C           0.1456    0.4103   -0.6724 C.ar    1  LIG1        0.0359
      5 S           1.3206   -0.6600    0.0615 S.2     1  LIG1       -0.0920
      6 H           1.5571   -2.8205   -1.0742 H       1  LIG1        0.0730
      7 O          -0.4062   -2.1836   -3.0708 O.3     1  LIG1       -0.4943
      8 C           0.1239   -3.4774   -3.2560 C.3     1  LIG1        0.0788
      9 H          -0.3692   -3.8953   -4.1334 H       1  LIG1        0.0660
     10 H           1.2062   -3.4412   -3.4296 H       1  LIG1        0.0660
     11 H          -0.0754   -4.1164   -2.3872 H       1  LIG1        0.0660
     12 C          -1.5002    0.4156   -2.6573 C.3     1  LIG1       -0.0351
     13 H          -1.0867    1.1397   -3.3670 H       1  LIG1        0.0279
     14 H          -2.2731    0.9281   -2.0803 H       1  LIG1        0.0279
     15 H          -1.9700   -0.3795   -3.2375 H       1  LIG1        0.0279
     16 C          -0.0676    1.7374   -0.1158 C.ar    1  LIG1        0.0687
     17 C           0.3049    2.1997    1.1215 C.ar    1  LIG1        0.1388
     18 C           0.0298    3.5771    1.3681 C.ar    1  LIG1        0.0072
     19 C          -0.5722    4.1742    0.2852 C.ar    1  LIG1        0.0365
     20 S          -0.7806    3.0376   -1.0261 S.2     1  LIG1       -0.0831
     21 O           0.9549    1.4204    2.0418 O.3     1  LIG1       -0.4937
     22 C           0.0937    0.7902    2.9847 C.3     1  LIG1        0.0789
     23 H           0.7323    0.2118    3.6528 H       1  LIG1        0.0660
     24 H          -0.4638    1.5328    3.5662 H       1  LIG1        0.0660
     25 H          -0.6109    0.1188    2.4840 H       1  LIG1        0.0660
     26 C           0.4184    4.2245    2.6636 C.3     1  LIG1       -0.0351
     27 H           0.8625    5.2099    2.5064 H       1  LIG1        0.0279
     28 H           1.1511    3.5955    3.1723 H       1  LIG1        0.0279
     29 H          -0.4370    4.3555    3.3349 H       1  LIG1        0.0279
     30 C          -1.0509    5.5386    0.1383 C.ar    1  LIG1        0.0687
     31 C          -1.3809    6.1949   -1.0225 C.ar    1  LIG1        0.1388
     32 C          -1.8950    7.5165   -0.8506 C.ar    1  LIG1        0.0072
     33 C          -1.9675    7.8628    0.4702 C.ar    1  LIG1        0.0365
     34 S          -1.3769    6.5819    1.4953 S.2     1  LIG1       -0.0831
     35 O          -1.2987    5.6071   -2.2567 O.3     1  LIG1       -0.4937
     36 C          -0.0856    5.8727   -2.9551 C.3     1  LIG1        0.0789
     37 H          -0.1578    5.3557   -3.9122 H       1  LIG1        0.0660
     38 H           0.0418    6.9462   -3.1305 H       1  LIG1        0.0660
     39 H           0.7773    5.4913   -2.4004 H       1  LIG1        0.0660
     40 C          -2.3236    8.3743   -2.0008 C.3     1  LIG1       -0.0351
     41 H          -1.4708    8.8785   -2.4672 H       1  LIG1        0.0279
     42 H          -3.0194    9.1480   -1.6720 H       1  LIG1        0.0279
     43 H          -2.8023    7.7631   -2.7697 H       1  LIG1        0.0279
     44 C          -2.3844    9.1392    1.0567 C.ar    1  LIG1        0.0681
     45 C          -3.5221    9.5078    1.7321 C.ar    1  LIG1        0.1382
     46 C          -3.5027   10.8601    2.2236 C.ar    1  LIG1       -0.0011
     47 C          -2.3445   11.4890    1.9024 C.ar    1  LIG1       -0.0172
     48 S          -1.2634   10.4848    1.0150 S.2     1  LIG1       -0.0921
     49 H          -2.0733   12.5095    2.1346 H       1  LIG1        0.0697
     50 O          -4.6456    8.8000    1.9960 O.3     1  LIG1       -0.4937
     51 C          -4.9339    7.6295    1.2496 C.3     1  LIG1        0.0789
     52 H          -5.9700    7.3784    1.4791 H       1  LIG1        0.0660
     53 H          -4.8307    7.8122    0.1758 H       1  LIG1        0.0660
     54 H          -4.2875    6.7963    1.5344 H       1  LIG1        0.0660
     55 C          -4.6518   11.4505    2.9791 C.3     1  LIG1       -0.0357
     56 H          -4.4541   12.4915    3.2416 H       1  LIG1        0.0279
     57 H          -4.8442   10.8927    3.9001 H       1  LIG1        0.0279
     58 H          -5.5706   11.4099    2.3874 H       1  LIG1        0.0279
@<TRIPOS>BOND
     1     9     8    1
     2    37    36    1
     3    10     8    1
     4    13    12    1
     5     8     7    1
     6     8    11    1
     7    15    12    1
     8    38    36    1
     9     7     2    1
    10    36    39    1
    11    36    35    1
    12    43    40    1
    13    12    14    1
    14    12     3    1
    15    41    40    1
    16    35    31    1
    17     2     3   ar
    18     2     1   ar
    19    40    42    1
    20    40    32    1
    21     3     4   ar
    22     1     6    1
    23     1     5   ar
    24    20    16   ar
    25    20    19   ar
    26    31    32   ar
    27    31    30   ar
    28    32    33   ar
    29     4    16    1
    30     4     5   ar
    31    16    17   ar
    32    30    19    1
    33    30    34   ar
    34    53    51    1
    35    19    18   ar
    36    33    44    1
    37    33    34   ar
    38    48    44   ar
    39    48    47   ar
    40    44    45   ar
    41    17    18   ar
    42    17    21    1
    43    51    52    1
    44    51    54    1
    45    51    50    1
    46    18    26    1
    47    45    50    1
    48    45    46   ar
    49    47    49    1
    50    47    46   ar
    51    21    22    1
    52    46    55    1
    53    58    55    1
    54    25    22    1
    55    27    26    1
    56    26    28    1
    57    26    29    1
    58    55    56    1
    59    55    57    1
    60    22    24    1
    61    22    23    1
