@<TRIPOS>MOLECULE
mol_data/opt/cam/geoms/mol2/5li5li-5li-.out
 44 46 0 0 0
SMALL
GASTEIGER

@<TRIPOS>ATOM
      1 C           0.1485   -1.9453   -1.4241 C.ar    1  LIG1        0.0183
      2 C          -1.0574   -1.6516   -0.8661 C.ar    1  LIG1        0.1306
      3 C          -1.1489   -0.3252   -0.3276 C.ar    1  LIG1        0.0066
      4 C           0.0222    0.3719   -0.5019 C.ar    1  LIG1        0.0359
      5 S           1.2284   -0.6029   -1.3141 S.2     1  LIG1       -0.0920
      6 H           0.4746   -2.8675   -1.8783 H       1  LIG1        0.0730
      7 O          -2.1405   -2.4633   -0.7626 O.3     1  LIG1       -0.4943
      8 C          -1.9931   -3.7646   -1.2863 C.3     1  LIG1        0.0788
      9 H          -2.9404   -4.2776   -1.1218 H       1  LIG1        0.0660
     10 H          -1.7759   -3.7373   -2.3610 H       1  LIG1        0.0660
     11 H          -1.1900   -4.3095   -0.7753 H       1  LIG1        0.0660
     12 C          -2.4053    0.1527    0.3379 C.3     1  LIG1       -0.0351
     13 H          -2.1926    0.7262    1.2427 H       1  LIG1        0.0279
     14 H          -3.0239   -0.7043    0.6071 H       1  LIG1        0.0279
     15 H          -3.0002    0.7918   -0.3230 H       1  LIG1        0.0279
     16 C           0.3303    1.7475   -0.1416 C.ar    1  LIG1        0.0687
     17 C           1.5663    2.3359   -0.0491 C.ar    1  LIG1        0.1388
     18 C           1.5590    3.7303    0.2514 C.ar    1  LIG1        0.0072
     19 C           0.2784    4.2104    0.3919 C.ar    1  LIG1        0.0365
     20 S          -0.9000    2.9445    0.1434 S.2     1  LIG1       -0.0831
     21 O           2.7334    1.6590   -0.2888 O.3     1  LIG1       -0.4937
     22 C           3.3377    1.1098    0.8776 C.3     1  LIG1        0.0789
     23 H           4.2485    0.6074    0.5506 H       1  LIG1        0.0660
     24 H           3.5934    1.8967    1.5958 H       1  LIG1        0.0660
     25 H           2.6744    0.3833    1.3572 H       1  LIG1        0.0660
     26 C           2.8370    4.5086    0.3489 C.3     1  LIG1       -0.0351
     27 H           2.7593    5.4778   -0.1485 H       1  LIG1        0.0279
     28 H           3.6389    3.9411   -0.1267 H       1  LIG1        0.0279
     29 H           3.1287    4.6973    1.3876 H       1  LIG1        0.0279
     30 C          -0.1691    5.5500    0.7378 C.ar    1  LIG1        0.0681
     31 C          -1.4211    6.0903    0.5736 C.ar    1  LIG1        0.1382
     32 C          -1.5770    7.4224    1.0719 C.ar    1  LIG1       -0.0011
     33 C          -0.4172    7.8753    1.6173 C.ar    1  LIG1       -0.0172
     34 S           0.8551    6.7141    1.5371 S.2     1  LIG1       -0.0921
     35 H          -0.2334    8.8406    2.0673 H       1  LIG1        0.0697
     36 O          -2.4709    5.3952    0.0341 O.3     1  LIG1       -0.4937
     37 C          -2.6330    5.5707   -1.3699 C.3     1  LIG1        0.0789
     38 H          -3.5066    4.9857   -1.6584 H       1  LIG1        0.0660
     39 H          -2.8025    6.6238   -1.6193 H       1  LIG1        0.0660
     40 H          -1.7566    5.2065   -1.9149 H       1  LIG1        0.0660
     41 C          -2.8709    8.1739    1.0000 C.3     1  LIG1       -0.0357
     42 H          -2.8465    9.0603    1.6365 H       1  LIG1        0.0279
     43 H          -3.7008    7.5387    1.3194 H       1  LIG1        0.0279
     44 H          -3.0907    8.5034   -0.0208 H       1  LIG1        0.0279
@<TRIPOS>BOND
     1    10     8    1
     2    40    37    1
     3     6     1    1
     4    38    37    1
     5    39    37    1
     6     1     5   ar
     7     1     2   ar
     8    37    36    1
     9     5     4   ar
    10     8     9    1
    11     8    11    1
    12     8     7    1
    13     2     7    1
    14     2     3   ar
    15     4     3   ar
    16     4    16    1
    17     3    12    1
    18    15    12    1
    19    21    17    1
    20    21    22    1
    21    27    26    1
    22    16    17   ar
    23    16    20   ar
    24    28    26    1
    25    17    18   ar
    26    44    41    1
    27    36    31    1
    28    20    19   ar
    29    18    26    1
    30    18    19   ar
    31    12    14    1
    32    12    13    1
    33    26    29    1
    34    19    30    1
    35    23    22    1
    36    31    30   ar
    37    31    32   ar
    38    30    34   ar
    39    22    25    1
    40    22    24    1
    41    41    32    1
    42    41    43    1
    43    41    42    1
    44    32    33   ar
    45    34    33   ar
    46    33    35    1
