@<TRIPOS>MOLECULE
mol_data/opt/cam/geoms/mol2/5li5li5li.out
 44 46 0 0 0
SMALL
GASTEIGER

@<TRIPOS>ATOM
      1 C           0.1717   -1.9645   -1.3621 C.ar    1  LIG1        0.0183
      2 C          -1.0353   -1.6682   -0.8077 C.ar    1  LIG1        0.1306
      3 C          -1.1333   -0.3340   -0.2902 C.ar    1  LIG1        0.0066
      4 C           0.0340    0.3664   -0.4766 C.ar    1  LIG1        0.0359
      5 S           1.2446   -0.6148   -1.2744 S.2     1  LIG1       -0.0920
      6 H           0.5023   -2.8920   -1.8020 H       1  LIG1        0.0730
      7 O          -2.1139   -2.4839   -0.6904 O.3     1  LIG1       -0.4943
      8 C          -1.9601   -3.7925   -1.1936 C.3     1  LIG1        0.0788
      9 H          -2.9046   -4.3078   -1.0201 H       1  LIG1        0.0660
     10 H          -1.7440   -3.7811   -2.2687 H       1  LIG1        0.0660
     11 H          -1.1538   -4.3251   -0.6748 H       1  LIG1        0.0660
     12 C          -2.3916    0.1478    0.3688 C.3     1  LIG1       -0.0351
     13 H          -2.1812    0.7366    1.2642 H       1  LIG1        0.0279
     14 H          -3.0055   -0.7081    0.6520 H       1  LIG1        0.0279
     15 H          -2.9904    0.7732   -0.3016 H       1  LIG1        0.0279
     16 C           0.3352    1.7491   -0.1384 C.ar    1  LIG1        0.0687
     17 C           1.5682    2.3454   -0.0565 C.ar    1  LIG1        0.1388
     18 C           1.5538    3.7443    0.2220 C.ar    1  LIG1        0.0072
     19 C           0.2708    4.2198    0.3561 C.ar    1  LIG1        0.0365
     20 S          -0.9012    2.9440    0.1288 S.2     1  LIG1       -0.0831
     21 O           2.7386    1.6709   -0.2866 O.3     1  LIG1       -0.4937
     22 C           3.3469    1.1435    0.8878 C.3     1  LIG1        0.0789
     23 H           4.2600    0.6408    0.5679 H       1  LIG1        0.0660
     24 H           3.5990    1.9430    1.5932 H       1  LIG1        0.0660
     25 H           2.6878    0.4212    1.3796 H       1  LIG1        0.0660
     26 C           2.8277    4.5308    0.3059 C.3     1  LIG1       -0.0351
     27 H           2.7445    5.4916   -0.2067 H       1  LIG1        0.0279
     28 H           3.6322    3.9600   -0.1615 H       1  LIG1        0.0279
     29 H           3.1193    4.7375    1.3412 H       1  LIG1        0.0279
     30 C          -0.1834    5.5624    0.6812 C.ar    1  LIG1        0.0681
     31 C          -1.4384    6.0935    0.5097 C.ar    1  LIG1        0.1382
     32 C          -1.6009    7.4324    0.9870 C.ar    1  LIG1       -0.0011
     33 C          -0.4430    7.9000    1.5241 C.ar    1  LIG1       -0.0172
     34 S           0.8354    6.7444    1.4610 S.2     1  LIG1       -0.0921
     35 H          -0.2639    8.8733    1.9586 H       1  LIG1        0.0697
     36 O          -2.4850    5.3844   -0.0177 O.3     1  LIG1       -0.4937
     37 C          -2.6492    5.5367   -1.4242 C.3     1  LIG1        0.0789
     38 H          -3.5201    4.9427   -1.7025 H       1  LIG1        0.0660
     39 H          -2.8242    6.5848   -1.6902 H       1  LIG1        0.0660
     40 H          -1.7714    5.1683   -1.9642 H       1  LIG1        0.0660
     41 C          -2.8988    8.1759    0.9046 C.3     1  LIG1       -0.0357
     42 H          -2.8781    9.0729    1.5262 H       1  LIG1        0.0279
     43 H          -3.7249    7.5418    1.2360 H       1  LIG1        0.0279
     44 H          -3.1219    8.4870   -0.1212 H       1  LIG1        0.0279
@<TRIPOS>BOND
     1    10     8    1
     2    40    37    1
     3     6     1    1
     4    38    37    1
     5    39    37    1
     6    37    36    1
     7     1     5   ar
     8     1     2   ar
     9     5     4   ar
    10     8     9    1
    11     8     7    1
    12     8    11    1
    13     2     7    1
    14     2     3   ar
    15     4     3   ar
    16     4    16    1
    17    15    12    1
    18     3    12    1
    19    21    17    1
    20    21    22    1
    21    27    26    1
    22    28    26    1
    23    16    17   ar
    24    16    20   ar
    25    44    41    1
    26    17    18   ar
    27    36    31    1
    28    20    19   ar
    29    18    26    1
    30    18    19   ar
    31    26    29    1
    32    19    30    1
    33    12    14    1
    34    12    13    1
    35    31    30   ar
    36    31    32   ar
    37    23    22    1
    38    30    34   ar
    39    22    25    1
    40    22    24    1
    41    41    32    1
    42    41    43    1
    43    41    42    1
    44    32    33   ar
    45    34    33   ar
    46    33    35    1
