@<TRIPOS>MOLECULE
mol_data/opt/cam/geoms/mol2/5li5li-5li-5li.out
 58 61 0 0 0
SMALL
GASTEIGER

@<TRIPOS>ATOM
      1 C           1.0450   -2.0558   -1.1157 C.ar    1  LIG1        0.0183
      2 C          -0.0874   -1.7214   -1.7922 C.ar    1  LIG1        0.1306
      3 C          -0.5913   -0.4138   -1.4858 C.ar    1  LIG1        0.0066
      4 C           0.1990    0.2278   -0.5629 C.ar    1  LIG1        0.0359
      5 S           1.5455   -0.7765   -0.0698 S.2     1  LIG1       -0.0920
      6 H           1.6070   -2.9754   -1.1543 H       1  LIG1        0.0730
      7 O          -0.7696   -2.4793   -2.6883 O.3     1  LIG1       -0.4943
      8 C          -0.2485   -3.7659   -2.9371 C.3     1  LIG1        0.0788
      9 H          -0.9077   -4.2351   -3.6671 H       1  LIG1        0.0660
     10 H           0.7672   -3.7101   -3.3472 H       1  LIG1        0.0660
     11 H          -0.2294   -4.3703   -2.0221 H       1  LIG1        0.0660
     12 C          -1.8424    0.1027   -2.1319 C.3     1  LIG1       -0.0351
     13 H          -2.4785    0.6315   -1.4189 H       1  LIG1        0.0279
     14 H          -2.4077   -0.7310   -2.5503 H       1  LIG1        0.0279
     15 H          -1.6234    0.7946   -2.9520 H       1  LIG1        0.0279
     16 C           0.0634    1.5704   -0.0191 C.ar    1  LIG1        0.0687
     17 C           0.6669    2.0898    1.0987 C.ar    1  LIG1        0.1388
     18 C           0.4094    3.4704    1.3478 C.ar    1  LIG1        0.0072
     19 C          -0.4138    4.0114    0.3888 C.ar    1  LIG1        0.0365
     20 S          -0.8547    2.8195   -0.8098 S.2     1  LIG1       -0.0831
     21 O           1.5149    1.3630    1.8923 O.3     1  LIG1       -0.4937
     22 C           0.8816    0.7410    3.0056 C.3     1  LIG1        0.0789
     23 H           1.6615    0.2098    3.5519 H       1  LIG1        0.0660
     24 H           0.4195    1.4860    3.6626 H       1  LIG1        0.0660
     25 H           0.1202    0.0279    2.6745 H       1  LIG1        0.0660
     26 C           1.0305    4.1783    2.5147 C.3     1  LIG1       -0.0351
     27 H           0.3360    4.2772    3.3559 H       1  LIG1        0.0279
     28 H           1.3621    5.1837    2.2476 H       1  LIG1        0.0279
     29 H           1.8949    3.6085    2.8607 H       1  LIG1        0.0279
     30 C          -0.9599    5.3554    0.2985 C.ar    1  LIG1        0.0687
     31 C          -1.4525    5.9966   -0.8119 C.ar    1  LIG1        0.1388
     32 C          -1.9849    7.2998   -0.5776 C.ar    1  LIG1        0.0072
     33 C          -1.8967    7.6487    0.7430 C.ar    1  LIG1        0.0365
     34 S          -1.1719    6.3784    1.6898 S.2     1  LIG1       -0.0831
     35 O          -1.4664    5.4341   -2.0613 O.3     1  LIG1       -0.4937
     36 C          -0.2553    5.6036   -2.7923 C.3     1  LIG1        0.0789
     37 H          -0.4068    5.1261   -3.7607 H       1  LIG1        0.0660
     38 H          -0.0306    6.6659   -2.9399 H       1  LIG1        0.0660
     39 H           0.5853    5.1254   -2.2807 H       1  LIG1        0.0660
     40 C          -2.5570    8.1436   -1.6718 C.3     1  LIG1       -0.0351
     41 H          -2.4724    9.2047   -1.4291 H       1  LIG1        0.0279
     42 H          -3.6155    7.9156   -1.8252 H       1  LIG1        0.0279
     43 H          -2.0451    7.9580   -2.6180 H       1  LIG1        0.0279
     44 C          -2.3049    8.8844    1.3995 C.ar    1  LIG1        0.0681
     45 C          -3.5237    9.5148    1.3636 C.ar    1  LIG1        0.1382
     46 C          -3.6016   10.6849    2.1978 C.ar    1  LIG1       -0.0011
     47 C          -2.4200   10.9086    2.8341 C.ar    1  LIG1       -0.0172
     48 S          -1.2178    9.7364    2.4596 S.2     1  LIG1       -0.0921
     49 H          -2.2008   11.7042    3.5324 H       1  LIG1        0.0697
     50 O          -4.5724    8.9739    0.6780 O.3     1  LIG1       -0.4937
     51 C          -5.2419    9.8087   -0.2551 C.3     1  LIG1        0.0789
     52 H          -5.8154    9.1460   -0.9046 H       1  LIG1        0.0660
     53 H          -5.9321   10.5011    0.2344 H       1  LIG1        0.0660
     54 H          -4.5321   10.3795   -0.8629 H       1  LIG1        0.0660
     55 C          -4.8357   11.5111    2.4125 C.3     1  LIG1       -0.0357
     56 H          -4.7127   12.1598    3.2821 H       1  LIG1        0.0279
     57 H          -5.7065   10.8736    2.5895 H       1  LIG1        0.0279
     58 H          -5.0625   12.1510    1.5542 H       1  LIG1        0.0279
@<TRIPOS>BOND
     1    37    36    1
     2     9     8    1
     3    10     8    1
     4    15    12    1
     5    38    36    1
     6     8     7    1
     7     8    11    1
     8    36    39    1
     9    36    35    1
    10     7     2    1
    11    43    40    1
    12    14    12    1
    13    12     3    1
    14    12    13    1
    15    35    31    1
    16    42    40    1
    17     2     3   ar
    18     2     1   ar
    19    40    41    1
    20    40    32    1
    21     3     4   ar
    22     6     1    1
    23     1     5   ar
    24    52    51    1
    25    54    51    1
    26    31    32   ar
    27    31    30   ar
    28    20    16   ar
    29    20    19   ar
    30    32    33   ar
    31     4     5   ar
    32     4    16    1
    33    51    53    1
    34    51    50    1
    35    16    17   ar
    36    30    19    1
    37    30    34   ar
    38    19    18   ar
    39    50    45    1
    40    33    44    1
    41    33    34   ar
    42    17    18   ar
    43    17    21    1
    44    18    26    1
    45    45    44   ar
    46    45    46   ar
    47    44    48   ar
    48    58    55    1
    49    21    22    1
    50    46    55    1
    51    46    47   ar
    52    28    26    1
    53    55    57    1
    54    55    56    1
    55    48    47   ar
    56    26    29    1
    57    26    27    1
    58    25    22    1
    59    47    49    1
    60    22    23    1
    61    22    24    1
