@<TRIPOS>MOLECULE
mol_data/opt/cam/geoms/mol2/5ll.out
 17 17 0 0 0
SMALL
GASTEIGER

@<TRIPOS>ATOM
      1 C          -2.2502   -1.6489    0.0004 C.ar    1  LIG1        0.0211
      2 C          -0.8906   -1.7428   -0.0003 C.ar    1  LIG1        0.1685
      3 C          -0.2446   -0.4485   -0.0004 C.ar    1  LIG1        0.1685
      4 C          -1.1527    0.5648    0.0002 C.ar    1  LIG1        0.0211
      5 S          -2.7792   -0.0060    0.0009 S.2     1  LIG1       -0.0976
      6 H          -2.9699   -2.4515    0.0006 H       1  LIG1        0.0731
      7 H          -0.9249    1.6194    0.0003 H       1  LIG1        0.0731
      8 O          -0.1534   -2.8849   -0.0009 O.3     1  LIG1       -0.4909
      9 C          -0.8829   -4.0935   -0.0008 C.3     1  LIG1        0.0790
     10 H          -0.1490   -4.8990   -0.0013 H       1  LIG1        0.0660
     11 H          -1.5136   -4.1753    0.8923 H       1  LIG1        0.0660
     12 H          -1.5146   -4.1750   -0.8933 H       1  LIG1        0.0660
     13 O           1.0814   -0.1635   -0.0011 O.3     1  LIG1       -0.4909
     14 C           2.0470   -1.2024   -0.0010 C.3     1  LIG1        0.0790
     15 H           3.0130   -0.6963   -0.0013 H       1  LIG1        0.0660
     16 H           1.9652   -1.8331    0.8876 H       1  LIG1        0.0660
     17 H           1.9649   -1.8337   -0.8891 H       1  LIG1        0.0660
@<TRIPOS>BOND
     1    12     9    1
     2    17    14    1
     3    10     9    1
     4    15    14    1
     5    13    14    1
     6    13     3    1
     7    14    16    1
     8     8     9    1
     9     8     2    1
    10     9    11    1
    11     3     2   ar
    12     3     4   ar
    13     2     1   ar
    14     4     7    1
    15     4     5   ar
    16     1     6    1
    17     1     5   ar
