@<TRIPOS>MOLECULE
mol_data/opt/cam/geoms/mol2/5ll5ll-5ll.out
 47 49 0 0 0
SMALL
GASTEIGER

@<TRIPOS>ATOM
      1 C          -1.7586   -2.0086   -1.5192 C.ar    1  LIG1        0.0218
      2 C          -0.8247   -2.1716   -0.5429 C.ar    1  LIG1        0.1691
      3 C          -0.2744   -0.9244   -0.0849 C.ar    1  LIG1        0.1768
      4 C          -0.7870    0.1612   -0.7355 C.ar    1  LIG1        0.0749
      5 S          -1.9603   -0.3376   -1.9253 S.2     1  LIG1       -0.0885
      6 H          -2.3313   -2.7633   -2.0341 H       1  LIG1        0.0731
      7 O          -0.3839   -3.3220    0.0190 O.3     1  LIG1       -0.4909
      8 C          -0.9620   -4.5128   -0.4766 C.3     1  LIG1        0.0790
      9 H          -0.4983   -5.3343    0.0682 H       1  LIG1        0.0660
     10 H          -2.0452   -4.5272   -0.3077 H       1  LIG1        0.0660
     11 H          -0.7652   -4.6287   -1.5488 H       1  LIG1        0.0660
     12 O           0.7081   -0.8337    0.8520 O.3     1  LIG1       -0.4903
     13 C           0.3292   -1.2318    2.1677 C.3     1  LIG1        0.0790
     14 H           1.2109   -1.0948    2.7941 H       1  LIG1        0.0660
     15 H          -0.4839   -0.6010    2.5419 H       1  LIG1        0.0660
     16 H           0.0234   -2.2806    2.1879 H       1  LIG1        0.0660
     17 C          -0.4941    1.5674   -0.4911 C.ar    1  LIG1        0.0755
     18 C           0.6981    2.2397   -0.4039 C.ar    1  LIG1        0.1775
     19 C           0.5354    3.6156   -0.0134 C.ar    1  LIG1        0.1775
     20 C          -0.7636    3.9941    0.1561 C.ar    1  LIG1        0.0755
     21 S          -1.8284    2.6514   -0.1482 S.2     1  LIG1       -0.0794
     22 O           1.9621    1.8246   -0.6324 O.3     1  LIG1       -0.4903
     23 C           2.1953    0.7143   -1.4877 C.3     1  LIG1        0.0790
     24 H           3.2297    0.8090   -1.8207 H       1  LIG1        0.0660
     25 H           2.0683   -0.2276   -0.9527 H       1  LIG1        0.0660
     26 H           1.5297    0.7444   -2.3555 H       1  LIG1        0.0660
     27 O           1.5774    4.4845    0.0886 O.3     1  LIG1       -0.4903
     28 C           2.4854    4.2186    1.1546 C.3     1  LIG1        0.0790
     29 H           3.2529    4.9911    1.1020 H       1  LIG1        0.0660
     30 H           1.9736    4.2812    2.1209 H       1  LIG1        0.0660
     31 H           2.9451    3.2339    1.0417 H       1  LIG1        0.0660
     32 C          -1.2709    5.2976    0.5628 C.ar    1  LIG1        0.0749
     33 C          -0.9933    6.5584    0.0989 C.ar    1  LIG1        0.1768
     34 C          -1.6384    7.5919    0.8727 C.ar    1  LIG1        0.1691
     35 C          -2.3991    7.1027    1.8825 C.ar    1  LIG1        0.0218
     36 S          -2.3613    5.3817    1.9341 S.2     1  LIG1       -0.0885
     37 H          -3.0032    7.6757    2.5693 H       1  LIG1        0.0731
     38 O          -0.2527    6.9609   -0.9557 O.3     1  LIG1       -0.4903
     39 C          -0.0842    6.0928   -2.0677 C.3     1  LIG1        0.0790
     40 H           0.1668    6.7365   -2.9120 H       1  LIG1        0.0660
     41 H           0.7271    5.3850   -1.8943 H       1  LIG1        0.0660
     42 H          -1.0115    5.5543   -2.2847 H       1  LIG1        0.0660
     43 O          -1.5615    8.9143    0.5643 O.3     1  LIG1       -0.4909
     44 C          -0.2662    9.4885    0.6978 C.3     1  LIG1        0.0790
     45 H          -0.3643   10.5362    0.4114 H       1  LIG1        0.0660
     46 H           0.0796    9.4290    1.7366 H       1  LIG1        0.0660
     47 H           0.4558    8.9952    0.0427 H       1  LIG1        0.0660
@<TRIPOS>BOND
     1    40    39    1
     2    26    23    1
     3    42    39    1
     4    39    41    1
     5    39    38    1
     6     6     1    1
     7     5     1   ar
     8     5     4   ar
     9    24    23    1
    10    11     8    1
    11     1     2   ar
    12    23    25    1
    13    23    22    1
    14    38    33    1
    15     4    17    1
    16     4     3   ar
    17    22    18    1
    18     2     3   ar
    19     2     7    1
    20    17    18   ar
    21    17    21   ar
    22     8    10    1
    23     8     7    1
    24     8     9    1
    25    18    19   ar
    26    21    20   ar
    27     3    12    1
    28    19    27    1
    29    19    20   ar
    30    47    44    1
    31    27    28    1
    32    33    32   ar
    33    33    34   ar
    34    20    32    1
    35    45    44    1
    36    32    36   ar
    37    43    44    1
    38    43    34    1
    39    44    46    1
    40    12    13    1
    41    34    35   ar
    42    31    28    1
    43    29    28    1
    44    28    30    1
    45    35    36   ar
    46    35    37    1
    47    13    16    1
    48    13    15    1
    49    13    14    1
