@<TRIPOS>MOLECULE
mol_data/opt/cam/geoms/mol2/5ll5ll5ll5ll.out
 62 65 0 0 0
SMALL
GASTEIGER

@<TRIPOS>ATOM
      1 C          -1.9023   -2.1287   -0.9716 C.ar    1  LIG1        0.0218
      2 C          -0.8134   -2.2020   -0.1587 C.ar    1  LIG1        0.1691
      3 C          -0.2279   -0.9151    0.1043 C.ar    1  LIG1        0.1768
      4 C          -0.8699    0.1089   -0.5301 C.ar    1  LIG1        0.0749
      5 S          -2.2162   -0.4976   -1.4586 S.2     1  LIG1       -0.0885
      6 H          -2.5327   -2.9297   -1.3238 H       1  LIG1        0.0731
      7 O          -0.2527   -3.2985    0.4042 O.3     1  LIG1       -0.4909
      8 C          -0.8733   -4.5326    0.1048 C.3     1  LIG1        0.0790
      9 H          -0.3022   -5.3021    0.6229 H       1  LIG1        0.0660
     10 H          -1.9117   -4.5490    0.4563 H       1  LIG1        0.0660
     11 H          -0.8569   -4.7296   -0.9734 H       1  LIG1        0.0660
     12 O           0.8989   -0.7408    0.8468 O.3     1  LIG1       -0.4903
     13 C           0.7616   -1.0348    2.2353 C.3     1  LIG1        0.0790
     14 H           1.7352   -0.8424    2.6862 H       1  LIG1        0.0660
     15 H           0.0125   -0.3813    2.6944 H       1  LIG1        0.0660
     16 H           0.4853   -2.0807    2.3895 H       1  LIG1        0.0660
     17 C          -0.5873    1.5391   -0.4445 C.ar    1  LIG1        0.0755
     18 C           0.5273    2.2779   -0.7496 C.ar    1  LIG1        0.1775
     19 C           0.3758    3.6733   -0.4284 C.ar    1  LIG1        0.1775
     20 C          -0.8303    3.9888    0.1244 C.ar    1  LIG1        0.0755
     21 S          -1.8181    2.5659    0.2687 S.2     1  LIG1       -0.0794
     22 O           1.7008    1.9290   -1.3161 O.3     1  LIG1       -0.4903
     23 C           1.8525    0.6450   -1.9047 C.3     1  LIG1        0.0790
     24 H           2.7807    0.6928   -2.4748 H       1  LIG1        0.0660
     25 H           1.9314   -0.1287   -1.1395 H       1  LIG1        0.0660
     26 H           1.0217    0.4203   -2.5802 H       1  LIG1        0.0660
     27 O           1.3675    4.5873   -0.6127 O.3     1  LIG1       -0.4903
     28 C           1.6507    4.9074   -1.9718 C.3     1  LIG1        0.0790
     29 H           2.4442    5.6548   -1.9515 H       1  LIG1        0.0660
     30 H           1.9909    4.0253   -2.5192 H       1  LIG1        0.0660
     31 H           0.7662    5.3294   -2.4613 H       1  LIG1        0.0660
     32 C          -1.3216    5.3060    0.5035 C.ar    1  LIG1        0.0755
     33 C          -0.7390    6.3034    1.2434 C.ar    1  LIG1        0.1775
     34 C          -1.5437    7.4975    1.3092 C.ar    1  LIG1        0.1775
     35 C          -2.7236    7.3959    0.6302 C.ar    1  LIG1        0.0755
     36 S          -2.8814    5.8259   -0.1015 S.2     1  LIG1       -0.0794
     37 O           0.4245    6.3186    1.9265 O.3     1  LIG1       -0.4903
     38 C           0.9369    5.1078    2.4667 C.3     1  LIG1        0.0790
     39 H           1.5844    5.4014    3.2941 H       1  LIG1        0.0660
     40 H           0.1266    4.4778    2.8453 H       1  LIG1        0.0660
     41 H           1.5187    4.5614    1.7236 H       1  LIG1        0.0660
     42 O          -1.2182    8.5628    2.0786 O.3     1  LIG1       -0.4903
     43 C          -0.0771    9.3083    1.6615 C.3     1  LIG1        0.0790
     44 H           0.1062   10.0435    2.4456 H       1  LIG1        0.0660
     45 H           0.7986    8.6634    1.5554 H       1  LIG1        0.0660
     46 H          -0.2898    9.8301    0.7241 H       1  LIG1        0.0660
     47 C          -3.7658    8.4078    0.5231 C.ar    1  LIG1        0.0749
     48 C          -3.6448    9.6838    0.0420 C.ar    1  LIG1        0.1768
     49 C          -4.8564   10.4489    0.1641 C.ar    1  LIG1        0.1691
     50 C          -5.8668    9.7304    0.7240 C.ar    1  LIG1        0.0218
     51 S          -5.3719    8.1328    1.1312 S.2     1  LIG1       -0.0885
     52 H          -6.8711   10.0758    0.9156 H       1  LIG1        0.0731
     53 O          -2.5066   10.2270   -0.4887 O.3     1  LIG1       -0.4903
     54 C          -2.0654    9.6298   -1.7044 C.3     1  LIG1        0.0790
     55 H          -1.1817   10.1873   -2.0180 H       1  LIG1        0.0660
     56 H          -1.7998    8.5792   -1.5624 H       1  LIG1        0.0660
     57 H          -2.8365    9.7061   -2.4793 H       1  LIG1        0.0660
     58 O          -5.0011   11.7613   -0.1607 O.3     1  LIG1       -0.4909
     59 C          -4.6119   12.1434   -1.4720 C.3     1  LIG1        0.0790
     60 H          -4.9696   13.1645   -1.6104 H       1  LIG1        0.0660
     61 H          -3.5266   12.1187   -1.5898 H       1  LIG1        0.0660
     62 H          -5.0788   11.4976   -2.2253 H       1  LIG1        0.0660
@<TRIPOS>BOND
     1    26    23    1
     2    30    28    1
     3    57    54    1
     4    24    23    1
     5    31    28    1
     6    62    59    1
     7    55    54    1
     8    28    29    1
     9    28    27    1
    10    23    22    1
    11    23    25    1
    12    54    56    1
    13    54    53    1
    14    60    59    1
    15    61    59    1
    16    59    58    1
    17     5     1   ar
    18     5     4   ar
    19     6     1    1
    20    22    18    1
    21    11     8    1
    22     1     2   ar
    23    18    17   ar
    24    18    19   ar
    25    27    19    1
    26     4    17    1
    27     4     3   ar
    28    53    48    1
    29    17    21   ar
    30    19    20   ar
    31    58    49    1
    32     2     3   ar
    33     2     7    1
    34    36    32   ar
    35    36    35   ar
    36    48    49   ar
    37    48    47   ar
    38     3    12    1
    39     8     7    1
    40     8    10    1
    41     8     9    1
    42    20    21   ar
    43    20    32    1
    44    49    50   ar
    45    32    33   ar
    46    47    35    1
    47    47    51   ar
    48    35    34   ar
    49    50    52    1
    50    50    51   ar
    51    46    43    1
    52    12    13    1
    53    33    34   ar
    54    33    37    1
    55    34    42    1
    56    45    43    1
    57    43    42    1
    58    43    44    1
    59    41    38    1
    60    37    38    1
    61    13    16    1
    62    13    14    1
    63    13    15    1
    64    38    40    1
    65    38    39    1
