@<TRIPOS>MOLECULE
mol_data/opt/cam/geoms/mol2/5ll5ll5ll-5ll.out
 62 65 0 0 0
SMALL
GASTEIGER

@<TRIPOS>ATOM
      1 C          -1.9167   -2.1620   -0.5013 C.ar    1  LIG1        0.0218
      2 C          -0.8650   -2.1396    0.3620 C.ar    1  LIG1        0.1691
      3 C          -0.2409   -0.8467    0.4451 C.ar    1  LIG1        0.1768
      4 C          -0.8162    0.0828   -0.3724 C.ar    1  LIG1        0.0749
      5 S          -2.1463   -0.6205   -1.2546 S.2     1  LIG1       -0.0885
      6 H          -2.5631   -2.9882   -0.7512 H       1  LIG1        0.0731
      7 O          -0.3703   -3.1500    1.1158 O.3     1  LIG1       -0.4909
      8 C          -1.0266   -4.3953    0.9874 C.3     1  LIG1        0.0790
      9 H          -0.5073   -5.0903    1.6462 H       1  LIG1        0.0660
     10 H          -2.0780   -4.3216    1.2892 H       1  LIG1        0.0660
     11 H          -0.9750   -4.7625   -0.0442 H       1  LIG1        0.0660
     12 O           0.8610   -0.5911    1.2014 O.3     1  LIG1       -0.4903
     13 C           0.6616   -0.6677    2.6112 C.3     1  LIG1        0.0790
     14 H           1.6225   -0.4318    3.0688 H       1  LIG1        0.0660
     15 H          -0.0849    0.0653    2.9346 H       1  LIG1        0.0660
     16 H           0.3485   -1.6711    2.9096 H       1  LIG1        0.0660
     17 C          -0.4799    1.4975   -0.5034 C.ar    1  LIG1        0.0755
     18 C           0.6813    2.1382   -0.8535 C.ar    1  LIG1        0.1775
     19 C           0.5722    3.5717   -0.7730 C.ar    1  LIG1        0.1775
     20 C          -0.6491    4.0143   -0.3590 C.ar    1  LIG1        0.0755
     21 S          -1.7046    2.6685   -0.0489 S.2     1  LIG1       -0.0794
     22 O           1.8685    1.6618   -1.2808 O.3     1  LIG1       -0.4903
     23 C           1.9886    0.3023   -1.6757 C.3     1  LIG1        0.0790
     24 H           2.9440    0.2324   -2.1966 H       1  LIG1        0.0660
     25 H           1.9955   -0.3578   -0.8073 H       1  LIG1        0.0660
     26 H           1.1813    0.0171   -2.3568 H       1  LIG1        0.0660
     27 O           1.6126    4.4079   -1.0392 O.3     1  LIG1       -0.4903
     28 C           1.9743    4.5036   -2.4147 C.3     1  LIG1        0.0790
     29 H           2.7994    5.2144   -2.4657 H       1  LIG1        0.0660
     30 H           2.2998    3.5351   -2.8014 H       1  LIG1        0.0660
     31 H           1.1343    4.8786   -3.0090 H       1  LIG1        0.0660
     32 C          -1.1057    5.3927   -0.2422 C.ar    1  LIG1        0.0755
     33 C          -0.5426    6.4800    0.3761 C.ar    1  LIG1        0.1775
     34 C          -1.2719    7.6973    0.1357 C.ar    1  LIG1        0.1775
     35 C          -2.3940    7.5316   -0.6212 C.ar    1  LIG1        0.0755
     36 S          -2.5764    5.8606   -1.0735 S.2     1  LIG1       -0.0794
     37 O           0.5508    6.5775    1.1617 O.3     1  LIG1       -0.4903
     38 C           1.0037    5.4396    1.8825 C.3     1  LIG1        0.0790
     39 H           1.6018    5.8300    2.7071 H       1  LIG1        0.0660
     40 H           0.1591    4.8711    2.2830 H       1  LIG1        0.0660
     41 H           1.6216    4.7973    1.2543 H       1  LIG1        0.0660
     42 O          -0.9237    8.8906    0.6888 O.3     1  LIG1       -0.4903
     43 C           0.2978    9.4463    0.2085 C.3     1  LIG1        0.0790
     44 H           0.4343   10.3888    0.7395 H       1  LIG1        0.0660
     45 H           1.1395    8.7813    0.4156 H       1  LIG1        0.0660
     46 H           0.2347    9.6420   -0.8673 H       1  LIG1        0.0660
     47 C          -3.3369    8.5515   -1.0599 C.ar    1  LIG1        0.0749
     48 C          -3.9872    9.5375   -0.3622 C.ar    1  LIG1        0.1768
     49 C          -4.7513   10.4142   -1.2167 C.ar    1  LIG1        0.1691
     50 C          -4.6838   10.0708   -2.5264 C.ar    1  LIG1        0.0218
     51 S          -3.6970    8.6808   -2.7716 S.2     1  LIG1       -0.0885
     52 H          -5.1979   10.5508   -3.3451 H       1  LIG1        0.0731
     53 O          -4.0383    9.7841    0.9642 O.3     1  LIG1       -0.4903
     54 C          -3.8477    8.7183    1.8842 C.3     1  LIG1        0.0790
     55 H          -4.3248    9.0373    2.8120 H       1  LIG1        0.0660
     56 H          -4.3279    7.8035    1.5245 H       1  LIG1        0.0660
     57 H          -2.7869    8.5380    2.0621 H       1  LIG1        0.0660
     58 O          -5.5296   11.4253   -0.7454 O.3     1  LIG1       -0.4909
     59 C          -4.8199   12.4915   -0.1254 C.3     1  LIG1        0.0790
     60 H          -5.5717   13.2100    0.2031 H       1  LIG1        0.0660
     61 H          -4.2480   12.1393    0.7364 H       1  LIG1        0.0660
     62 H          -4.1452   12.9766   -0.8406 H       1  LIG1        0.0660
@<TRIPOS>BOND
     1    52    50    1
     2    31    28    1
     3    30    28    1
     4    51    50   ar
     5    51    47   ar
     6    50    49   ar
     7    29    28    1
     8    28    27    1
     9    26    23    1
    10    24    23    1
    11    23    22    1
    12    23    25    1
    13    22    18    1
    14     5     1   ar
    15     5     4   ar
    16    49    58    1
    17    49    48   ar
    18    36    35   ar
    19    36    32   ar
    20    47    35    1
    21    47    48   ar
    22    27    19    1
    23    46    43    1
    24    18    19   ar
    25    18    17   ar
    26    62    59    1
    27    19    20   ar
    28     6     1    1
    29    58    59    1
    30    35    34   ar
    31    17     4    1
    32    17    21   ar
    33     1     2   ar
    34     4     3   ar
    35    48    53    1
    36    20    32    1
    37    20    21   ar
    38    32    33   ar
    39    59    60    1
    40    59    61    1
    41    11     8    1
    42    34    33   ar
    43    34    42    1
    44    43    45    1
    45    43    42    1
    46    43    44    1
    47     2     3   ar
    48     2     7    1
    49    33    37    1
    50     3    12    1
    51    53    54    1
    52     8     7    1
    53     8    10    1
    54     8     9    1
    55    37    38    1
    56    12    13    1
    57    41    38    1
    58    56    54    1
    59    38    40    1
    60    38    39    1
    61    54    57    1
    62    54    55    1
    63    13    16    1
    64    13    15    1
    65    13    14    1
