@<TRIPOS>MOLECULE
mol_data/opt/cam/geoms/mol2/5ll5ll-5ll-5ll-.out
 62 65 0 0 0
SMALL
GASTEIGER

@<TRIPOS>ATOM
      1 C          -2.0787   -2.2158    0.0406 C.ar    1  LIG1        0.0218
      2 C          -0.8238   -2.1981   -0.4856 C.ar    1  LIG1        0.1691
      3 C          -0.2026   -0.9041   -0.3989 C.ar    1  LIG1        0.1768
      4 C          -0.9886    0.0314    0.2096 C.ar    1  LIG1        0.0749
      5 S          -2.5153   -0.6678    0.6806 S.2     1  LIG1       -0.0885
      6 H          -2.7692   -3.0417    0.1033 H       1  LIG1        0.0731
      7 O          -0.1336   -3.2135   -1.0567 O.3     1  LIG1       -0.4909
      8 C          -0.7985   -4.4598   -1.1093 C.3     1  LIG1        0.0790
      9 H          -0.1127   -5.1587   -1.5866 H       1  LIG1        0.0660
     10 H          -1.0427   -4.8180   -0.1024 H       1  LIG1        0.0660
     11 H          -1.7205   -4.3918   -1.6986 H       1  LIG1        0.0660
     12 O           1.0699   -0.6528   -0.8103 O.3     1  LIG1       -0.4903
     13 C           1.2798   -0.7361   -2.2181 C.3     1  LIG1        0.0790
     14 H           2.3324   -0.5060   -2.3843 H       1  LIG1        0.0660
     15 H           1.0599   -1.7400   -2.5892 H       1  LIG1        0.0660
     16 H           0.6596   -0.0022   -2.7434 H       1  LIG1        0.0660
     17 C          -0.7046    1.4490    0.4161 C.ar    1  LIG1        0.0755
     18 C           0.2994    2.0975    1.0889 C.ar    1  LIG1        0.1775
     19 C           0.2197    3.5296    0.9618 C.ar    1  LIG1        0.1775
     20 C          -0.8199    3.9638    0.1946 C.ar    1  LIG1        0.0755
     21 S          -1.7377    2.6105   -0.3964 S.2     1  LIG1       -0.0794
     22 O           1.3057    1.6308    1.8563 O.3     1  LIG1       -0.4903
     23 C           1.3140    0.2714    2.2688 C.3     1  LIG1        0.0790
     24 H           2.0766    0.2064    3.0454 H       1  LIG1        0.0660
     25 H           0.3451   -0.0201    2.6853 H       1  LIG1        0.0660
     26 H           1.5776   -0.3870    1.4400 H       1  LIG1        0.0660
     27 O           1.1374    4.3706    1.5129 O.3     1  LIG1       -0.4903
     28 C           1.0778    4.4847    2.9325 C.3     1  LIG1        0.0790
     29 H           1.8542    5.1957    3.2155 H       1  LIG1        0.0660
     30 H           0.1014    4.8679    3.2474 H       1  LIG1        0.0660
     31 H           1.2702    3.5212    3.4101 H       1  LIG1        0.0660
     32 C          -1.2263    5.3394   -0.0749 C.ar    1  LIG1        0.0755
     33 C          -0.5531    6.4053   -0.6156 C.ar    1  LIG1        0.1775
     34 C          -1.3338    7.6148   -0.6146 C.ar    1  LIG1        0.1775
     35 C          -2.5782    7.4739   -0.0757 C.ar    1  LIG1        0.0755
     36 S          -2.8228    5.8371    0.4565 S.2     1  LIG1       -0.0794
     37 O           0.6761    6.4964   -1.1642 O.3     1  LIG1       -0.4903
     38 C           1.3814    5.3169   -1.5253 C.3     1  LIG1        0.0790
     39 H           2.1909    5.6475   -2.1770 H       1  LIG1        0.0660
     40 H           1.7971    4.8253   -0.6451 H       1  LIG1        0.0660
     41 H           0.7343    4.6237   -2.0712 H       1  LIG1        0.0660
     42 O          -0.8523    8.8056   -1.0659 O.3     1  LIG1       -0.4903
     43 C          -0.6965    8.8976   -2.4791 C.3     1  LIG1        0.0790
     44 H          -0.3221    9.9015   -2.6814 H       1  LIG1        0.0660
     45 H           0.0214    8.1584   -2.8425 H       1  LIG1        0.0660
     46 H          -1.6589    8.7606   -2.9835 H       1  LIG1        0.0660
     47 C          -3.6311    8.4765    0.0142 C.ar    1  LIG1        0.0749
     48 C          -3.6064    9.7687    0.4746 C.ar    1  LIG1        0.1768
     49 C          -4.8610   10.4542    0.2778 C.ar    1  LIG1        0.1691
     50 C          -5.8072    9.6747   -0.3009 C.ar    1  LIG1        0.0218
     51 S          -5.2166    8.0902   -0.6283 S.2     1  LIG1       -0.0885
     52 H          -6.8284    9.9520   -0.5138 H       1  LIG1        0.0731
     53 O          -2.6232   10.4618    1.0880 O.3     1  LIG1       -0.4903
     54 C          -1.6382    9.7663    1.8396 C.3     1  LIG1        0.0790
     55 H          -1.2343   10.4934    2.5455 H       1  LIG1        0.0660
     56 H          -2.0860    8.9343    2.3911 H       1  LIG1        0.0660
     57 H          -0.8387    9.3994    1.1951 H       1  LIG1        0.0660
     58 O          -5.0953   11.7225    0.7095 O.3     1  LIG1       -0.4909
     59 C          -4.3308   12.7301    0.0571 C.3     1  LIG1        0.0790
     60 H          -4.6207   13.6778    0.5123 H       1  LIG1        0.0660
     61 H          -3.2594   12.5684    0.1975 H       1  LIG1        0.0660
     62 H          -4.5609   12.7591   -1.0145 H       1  LIG1        0.0660
@<TRIPOS>BOND
     1    46    43    1
     2    45    43    1
     3    16    13    1
     4    44    43    1
     5    15    13    1
     6    43    42    1
     7    14    13    1
     8    13    12    1
     9    39    38    1
    10    41    38    1
    11    11     8    1
    12     9     8    1
    13    38    37    1
    14    38    40    1
    15    37    33    1
    16     8     7    1
    17     8    10    1
    18    42    34    1
    19     7     2    1
    20    62    59    1
    21    12     3    1
    22    51    50   ar
    23    51    47   ar
    24    33    34   ar
    25    33    32   ar
    26    34    35   ar
    27    52    50    1
    28     2     3   ar
    29     2     1   ar
    30     3     4   ar
    31    21    20   ar
    32    21    17   ar
    33    50    49   ar
    34    35    47    1
    35    35    36   ar
    36    32    20    1
    37    32    36   ar
    38    47    48   ar
    39     1     6    1
    40     1     5   ar
    41    59    61    1
    42    59    60    1
    43    59    58    1
    44    20    19   ar
    45     4    17    1
    46     4     5   ar
    47    49    48   ar
    48    49    58    1
    49    17    18   ar
    50    48    53    1
    51    19    18   ar
    52    19    27    1
    53    53    54    1
    54    18    22    1
    55    57    54    1
    56    26    23    1
    57    27    28    1
    58    54    56    1
    59    54    55    1
    60    22    23    1
    61    23    25    1
    62    23    24    1
    63    28    29    1
    64    28    30    1
    65    28    31    1
