@<TRIPOS>MOLECULE
mol_data/opt/cam/geoms/mol2/5ll5ll-.out
 32 33 0 0 0
SMALL
GASTEIGER

@<TRIPOS>ATOM
      1 C          -2.1617   -1.9351   -0.7309 C.ar    1  LIG1        0.0218
      2 C          -0.8862   -2.0825   -0.2804 C.ar    1  LIG1        0.1691
      3 C          -0.2642   -0.8291    0.0513 C.ar    1  LIG1        0.1768
      4 C          -1.0723    0.2487   -0.1708 C.ar    1  LIG1        0.0749
      5 S          -2.6173   -0.2656   -0.7950 S.2     1  LIG1       -0.0885
      6 H          -2.8578   -2.6981   -1.0408 H       1  LIG1        0.0731
      7 O          -0.1772   -3.2242   -0.1133 O.3     1  LIG1       -0.4909
      8 C          -0.8427   -4.4209   -0.4626 C.3     1  LIG1        0.0790
      9 H          -0.1403   -5.2331   -0.2789 H       1  LIG1        0.0660
     10 H          -1.7403   -4.5681    0.1496 H       1  LIG1        0.0660
     11 H          -1.1282   -4.4175   -1.5211 H       1  LIG1        0.0660
     12 O           1.0236   -0.7186    0.4776 O.3     1  LIG1       -0.4903
     13 C           1.2805   -1.2609    1.7704 C.3     1  LIG1        0.0790
     14 H           2.3381   -1.0879    1.9702 H       1  LIG1        0.0660
     15 H           0.6790   -0.7494    2.5293 H       1  LIG1        0.0660
     16 H           1.0729   -2.3336    1.7951 H       1  LIG1        0.0660
     17 C          -0.7843    1.6519    0.0972 C.ar    1  LIG1        0.0749
     18 C           0.2896    2.4338   -0.2450 C.ar    1  LIG1        0.1768
     19 C           0.2214    3.7566    0.3284 C.ar    1  LIG1        0.1691
     20 C          -0.8961    3.9575    1.0690 C.ar    1  LIG1        0.0218
     21 S          -1.9008    2.5591    1.1003 S.2     1  LIG1       -0.0885
     22 H          -1.1854    4.8726    1.5629 H       1  LIG1        0.0731
     23 O           1.3529    2.1679   -1.0334 O.3     1  LIG1       -0.4903
     24 C           1.2418    1.1876   -2.0553 C.3     1  LIG1        0.0790
     25 H           2.0245    1.4217   -2.7783 H       1  LIG1        0.0660
     26 H           1.4007    0.1846   -1.6572 H       1  LIG1        0.0660
     27 H           0.2654    1.2451   -2.5454 H       1  LIG1        0.0660
     28 O           1.1395    4.7279    0.0767 O.3     1  LIG1       -0.4909
     29 C           2.4418    4.4725    0.5905 C.3     1  LIG1        0.0790
     30 H           3.0575    5.3253    0.3028 H       1  LIG1        0.0660
     31 H           2.4195    4.3957    1.6840 H       1  LIG1        0.0660
     32 H           2.8626    3.5572    0.1675 H       1  LIG1        0.0660
@<TRIPOS>BOND
     1    25    24    1
     2    27    24    1
     3    24    26    1
     4    24    23    1
     5    11     8    1
     6     6     1    1
     7    23    18    1
     8     5     1   ar
     9     5     4   ar
    10     1     2   ar
    11     8     9    1
    12     8     7    1
    13     8    10    1
    14     2     7    1
    15     2     3   ar
    16    18    17   ar
    17    18    19   ar
    18     4     3   ar
    19     4    17    1
    20     3    12    1
    21    28    19    1
    22    28    29    1
    23    17    21   ar
    24    32    29    1
    25    30    29    1
    26    19    20   ar
    27    12    13    1
    28    29    31    1
    29    20    21   ar
    30    20    22    1
    31    13    16    1
    32    13    14    1
    33    13    15    1
