@<TRIPOS>MOLECULE
mol_data/opt/cam/geoms/mol2/5ll5ll.out
 32 33 0 0 0
SMALL
GASTEIGER

@<TRIPOS>ATOM
      1 C          -1.1240   -1.8871   -1.4617 C.ar    1  LIG1        0.0218
      2 C          -0.9898   -2.2339   -0.1537 C.ar    1  LIG1        0.1691
      3 C          -0.5922   -1.1290    0.6714 C.ar    1  LIG1        0.1768
      4 C          -0.4251    0.0389   -0.0225 C.ar    1  LIG1        0.0749
      5 S          -0.7881   -0.2062   -1.7132 S.2     1  LIG1       -0.0885
      6 H          -1.4043   -2.5086   -2.2973 H       1  LIG1        0.0731
      7 O          -1.1815   -3.4428    0.4260 O.3     1  LIG1       -0.4909
      8 C          -1.6144   -4.4768   -0.4340 C.3     1  LIG1        0.0790
      9 H          -1.7392   -5.3649    0.1846 H       1  LIG1        0.0660
     10 H          -2.5709   -4.2219   -0.9047 H       1  LIG1        0.0660
     11 H          -0.8729   -4.6782   -1.2164 H       1  LIG1        0.0660
     12 O          -0.4733   -1.2066    2.0249 O.3     1  LIG1       -0.4903
     13 C           0.6021   -2.0160    2.4945 C.3     1  LIG1        0.0790
     14 H           0.5657   -1.9717    3.5830 H       1  LIG1        0.0660
     15 H           0.4837   -3.0505    2.1634 H       1  LIG1        0.0660
     16 H           1.5634   -1.6225    2.1468 H       1  LIG1        0.0660
     17 C          -0.0902    1.3418    0.5246 C.ar    1  LIG1        0.0749
     18 C           0.2866    2.4695   -0.1634 C.ar    1  LIG1        0.1768
     19 C           0.4150    3.6313    0.6731 C.ar    1  LIG1        0.1691
     20 C           0.1640    3.3446    1.9790 C.ar    1  LIG1        0.0218
     21 S          -0.2541    1.6919    2.2222 S.2     1  LIG1       -0.0885
     22 H           0.1991    4.0399    2.8037 H       1  LIG1        0.0731
     23 O           0.4634    2.4959   -1.5236 O.3     1  LIG1       -0.4903
     24 C           1.7215    1.9940   -1.9710 C.3     1  LIG1        0.0790
     25 H           1.6802    1.9828   -3.0605 H       1  LIG1        0.0660
     26 H           2.5413    2.6418   -1.6439 H       1  LIG1        0.0660
     27 H           1.8968    0.9785   -1.6071 H       1  LIG1        0.0660
     28 O           0.6484    4.9086    0.2704 O.3     1  LIG1       -0.4909
     29 C           1.6414    5.1370   -0.7147 C.3     1  LIG1        0.0790
     30 H           1.7749    6.2184   -0.7628 H       1  LIG1        0.0660
     31 H           2.5957    4.6772   -0.4307 H       1  LIG1        0.0660
     32 H           1.3304    4.7662   -1.6935 H       1  LIG1        0.0660
@<TRIPOS>BOND
     1    25    24    1
     2     6     1    1
     3    24    26    1
     4    24    27    1
     5    24    23    1
     6     5     1   ar
     7     5     4   ar
     8    32    29    1
     9    23    18    1
    10     1     2   ar
    11    11     8    1
    12    10     8    1
    13    30    29    1
    14    29    31    1
    15    29    28    1
    16     8     9    1
    17     8     7    1
    18    18    17   ar
    19    18    19   ar
    20     2     7    1
    21     2     3   ar
    22     4    17    1
    23     4     3   ar
    24    28    19    1
    25    17    21   ar
    26     3    12    1
    27    19    20   ar
    28    20    21   ar
    29    20    22    1
    30    12    13    1
    31    16    13    1
    32    15    13    1
    33    13    14    1
