@<TRIPOS>MOLECULE
mol_data/opt/cam/geoms/mol2/5ll5ll-5ll-.out
 47 49 0 0 0
SMALL
GASTEIGER

@<TRIPOS>ATOM
      1 C          -1.6558   -1.7800   -1.7936 C.ar    1  LIG1        0.0218
      2 C          -0.8346   -2.0647   -0.7465 C.ar    1  LIG1        0.1691
      3 C          -0.2503   -0.8882   -0.1612 C.ar    1  LIG1        0.1768
      4 C          -0.6238    0.2664   -0.7866 C.ar    1  LIG1        0.0749
      5 S          -1.7066   -0.0783   -2.1094 S.2     1  LIG1       -0.0885
      6 H          -2.2239   -2.4611   -2.4069 H       1  LIG1        0.0731
      7 O          -0.5276   -3.2735   -0.2194 O.3     1  LIG1       -0.4909
      8 C          -1.1318   -4.3900   -0.8409 C.3     1  LIG1        0.0790
      9 H          -0.7775   -5.2721   -0.3088 H       1  LIG1        0.0660
     10 H          -2.2249   -4.3370   -0.7737 H       1  LIG1        0.0660
     11 H          -0.8407   -4.4583   -1.8955 H       1  LIG1        0.0660
     12 O           0.6403   -0.9230    0.8669 O.3     1  LIG1       -0.4903
     13 C           0.1058   -1.3581    2.1153 C.3     1  LIG1        0.0790
     14 H           0.9295   -1.3253    2.8286 H       1  LIG1        0.0660
     15 H          -0.6907   -0.6846    2.4486 H       1  LIG1        0.0660
     16 H          -0.2780   -2.3787    2.0436 H       1  LIG1        0.0660
     17 C          -0.2652    1.6331   -0.4275 C.ar    1  LIG1        0.0755
     18 C           0.9542    2.2211   -0.2083 C.ar    1  LIG1        0.1775
     19 C           0.8428    3.5808    0.2524 C.ar    1  LIG1        0.1775
     20 C          -0.4397    4.0322    0.3464 C.ar    1  LIG1        0.0755
     21 S          -1.5550    2.7775   -0.1138 S.2     1  LIG1       -0.0794
     22 O           2.2065    1.7433   -0.3655 O.3     1  LIG1       -0.4903
     23 C           2.4399    0.6480   -1.2395 C.3     1  LIG1        0.0790
     24 H           3.5025    0.6854   -1.4830 H       1  LIG1        0.0660
     25 H           2.2093   -0.2999   -0.7518 H       1  LIG1        0.0660
     26 H           1.8530    0.7490   -2.1572 H       1  LIG1        0.0660
     27 O           1.9255    4.3731    0.4756 O.3     1  LIG1       -0.4903
     28 C           2.7233    4.0083    1.5995 C.3     1  LIG1        0.0790
     29 H           3.5413    4.7278    1.6398 H       1  LIG1        0.0660
     30 H           2.1379    4.0726    2.5227 H       1  LIG1        0.0660
     31 H           3.1251    2.9990    1.4831 H       1  LIG1        0.0660
     32 C          -0.9092    5.3376    0.8040 C.ar    1  LIG1        0.0749
     33 C          -0.6860    6.6114    0.3459 C.ar    1  LIG1        0.1768
     34 C          -1.2997    7.6186    1.1794 C.ar    1  LIG1        0.1691
     35 C          -1.9719    7.1000    2.2354 C.ar    1  LIG1        0.0218
     36 S          -1.8754    5.3826    2.2696 S.2     1  LIG1       -0.0885
     37 H          -2.5115    7.6536    2.9889 H       1  LIG1        0.0731
     38 O          -0.0230    7.0652   -0.7377 O.3     1  LIG1       -0.4903
     39 C           0.4165    6.1553   -1.7354 C.3     1  LIG1        0.0790
     40 H           0.7208    6.7731   -2.5810 H       1  LIG1        0.0660
     41 H           1.2674    5.5704   -1.3833 H       1  LIG1        0.0660
     42 H          -0.3938    5.4886   -2.0458 H       1  LIG1        0.0660
     43 O          -1.1692    8.9544    0.9529 O.3     1  LIG1       -0.4909
     44 C          -1.8455    9.4371   -0.2017 C.3     1  LIG1        0.0790
     45 H          -1.6577   10.5107   -0.2414 H       1  LIG1        0.0660
     46 H          -1.4640    8.9657   -1.1105 H       1  LIG1        0.0660
     47 H          -2.9248    9.2616   -0.1222 H       1  LIG1        0.0660
@<TRIPOS>BOND
     1    40    39    1
     2     6     1    1
     3    26    23    1
     4     5     1   ar
     5     5     4   ar
     6    42    39    1
     7    11     8    1
     8     1     2   ar
     9    39    41    1
    10    39    38    1
    11    24    23    1
    12    23    25    1
    13    23    22    1
    14    46    44    1
    15     8    10    1
    16     8     9    1
    17     8     7    1
    18     4    17    1
    19     4     3   ar
    20     2     7    1
    21     2     3   ar
    22    38    33    1
    23    17    18   ar
    24    17    21   ar
    25    22    18    1
    26    45    44    1
    27    18    19   ar
    28    44    47    1
    29    44    43    1
    30     3    12    1
    31    21    20   ar
    32    19    20   ar
    33    19    27    1
    34    33    32   ar
    35    33    34   ar
    36    20    32    1
    37    27    28    1
    38    32    36   ar
    39    12    13    1
    40    43    34    1
    41    34    35   ar
    42    31    28    1
    43    28    29    1
    44    28    30    1
    45    16    13    1
    46    13    15    1
    47    13    14    1
    48    35    36   ar
    49    35    37    1
