@<TRIPOS>MOLECULE
mol_data/opt/cam/geoms/mol2/5ll5ll5ll5ll-.out
 62 65 0 0 0
SMALL
GASTEIGER

@<TRIPOS>ATOM
      1 C          -2.0581   -2.1506   -0.3559 C.ar    1  LIG1        0.0218
      2 C          -0.9819   -2.1335    0.4768 C.ar    1  LIG1        0.1691
      3 C          -0.3308   -0.8520    0.5182 C.ar    1  LIG1        0.1768
      4 C          -0.9112    0.0739   -0.3000 C.ar    1  LIG1        0.0749
      5 S          -2.2792   -0.6187   -1.1311 S.2     1  LIG1       -0.0885
      6 H          -2.7272   -2.9682   -0.5721 H       1  LIG1        0.0731
      7 O          -0.4856   -3.1397    1.2351 O.3     1  LIG1       -0.4909
      8 C          -1.1692   -4.3739    1.1484 C.3     1  LIG1        0.0790
      9 H          -0.6448   -5.0670    1.8051 H       1  LIG1        0.0660
     10 H          -2.2099   -4.2739    1.4783 H       1  LIG1        0.0660
     11 H          -1.1541   -4.7606    0.1228 H       1  LIG1        0.0660
     12 O           0.7970   -0.6047    1.2382 O.3     1  LIG1       -0.4903
     13 C           0.6365   -0.6518    2.6542 C.3     1  LIG1        0.0790
     14 H           1.6144   -0.4268    3.0801 H       1  LIG1        0.0660
     15 H          -0.0862    0.1016    2.9849 H       1  LIG1        0.0660
     16 H           0.3127   -1.6432    2.9800 H       1  LIG1        0.0660
     17 C          -0.5514    1.4790   -0.4667 C.ar    1  LIG1        0.0755
     18 C           0.6115    2.0901   -0.8613 C.ar    1  LIG1        0.1775
     19 C           0.5325    3.5266   -0.8045 C.ar    1  LIG1        0.1775
     20 C          -0.6677    4.0009   -0.3645 C.ar    1  LIG1        0.0755
     21 S          -1.7398    2.6821    0.0003 S.2     1  LIG1       -0.0794
     22 O           1.7766    1.5825   -1.3130 O.3     1  LIG1       -0.4903
     23 C           1.8590    0.2140   -1.6857 C.3     1  LIG1        0.0790
     24 H           2.7977    0.1158   -2.2319 H       1  LIG1        0.0660
     25 H           1.8780   -0.4302   -0.8057 H       1  LIG1        0.0660
     26 H           1.0272   -0.0674   -2.3383 H       1  LIG1        0.0660
     27 O           1.5808    4.3371   -1.1155 O.3     1  LIG1       -0.4903
     28 C           1.9048    4.4008   -2.5021 C.3     1  LIG1        0.0790
     29 H           2.7417    5.0940   -2.5896 H       1  LIG1        0.0660
     30 H           2.2003    3.4191   -2.8798 H       1  LIG1        0.0660
     31 H           1.0556    4.7816   -3.0793 H       1  LIG1        0.0660
     32 C          -1.0940    5.3899   -0.2605 C.ar    1  LIG1        0.0755
     33 C          -0.4926    6.4768    0.3214 C.ar    1  LIG1        0.1775
     34 C          -1.2049    7.7039    0.0790 C.ar    1  LIG1        0.1775
     35 C          -2.3510    7.5468   -0.6429 C.ar    1  LIG1        0.0755
     36 S          -2.5785    5.8719   -1.0588 S.2     1  LIG1       -0.0794
     37 O           0.6243    6.5668    1.0740 O.3     1  LIG1       -0.4903
     38 C           1.0756    5.4333    1.8027 C.3     1  LIG1        0.0790
     39 H           1.7044    5.8264    2.6027 H       1  LIG1        0.0660
     40 H           0.2320    4.8888    2.2373 H       1  LIG1        0.0660
     41 H           1.6628    4.7677    1.1693 H       1  LIG1        0.0660
     42 O          -0.8181    8.8998    0.5998 O.3     1  LIG1       -0.4903
     43 C           0.3998    9.4224    0.0751 C.3     1  LIG1        0.0790
     44 H           0.5695   10.3714    0.5845 H       1  LIG1        0.0660
     45 H           1.2341    8.7446    0.2708 H       1  LIG1        0.0660
     46 H           0.3099    9.5999   -1.0019 H       1  LIG1        0.0660
     47 C          -3.2861    8.5772   -1.0738 C.ar    1  LIG1        0.0749
     48 C          -3.8971    9.5884   -0.3765 C.ar    1  LIG1        0.1768
     49 C          -4.6680   10.4645   -1.2253 C.ar    1  LIG1        0.1691
     50 C          -4.6446   10.0961   -2.5298 C.ar    1  LIG1        0.0218
     51 S          -3.6923    8.6826   -2.7768 S.2     1  LIG1       -0.0885
     52 H          -5.1725   10.5714   -3.3426 H       1  LIG1        0.0731
     53 O          -3.9054    9.8599    0.9460 O.3     1  LIG1       -0.4903
     54 C          -3.7096    8.8073    1.8799 C.3     1  LIG1        0.0790
     55 H          -4.1539    9.1524    2.8146 H       1  LIG1        0.0660
     56 H          -4.2176    7.8959    1.5509 H       1  LIG1        0.0660
     57 H          -2.6479    8.6090    2.0313 H       1  LIG1        0.0660
     58 O          -5.4129   11.4992   -0.7512 O.3     1  LIG1       -0.4909
     59 C          -4.6652   12.5621   -0.1714 C.3     1  LIG1        0.0790
     60 H          -5.3934   13.3013    0.1647 H       1  LIG1        0.0660
     61 H          -4.0760   12.2143    0.6803 H       1  LIG1        0.0660
     62 H          -4.0020   13.0207   -0.9143 H       1  LIG1        0.0660
@<TRIPOS>BOND
     1    52    50    1
     2    31    28    1
     3    30    28    1
     4    51    50   ar
     5    51    47   ar
     6    29    28    1
     7    50    49   ar
     8    28    27    1
     9    26    23    1
    10    24    23    1
    11    23    22    1
    12    23    25    1
    13    22    18    1
    14    49    58    1
    15    49    48   ar
    16     5     1   ar
    17     5     4   ar
    18    27    19    1
    19    47    35    1
    20    47    48   ar
    21    36    35   ar
    22    36    32   ar
    23    46    43    1
    24    62    59    1
    25    18    19   ar
    26    18    17   ar
    27    19    20   ar
    28    58    59    1
    29    35    34   ar
    30     6     1    1
    31    17     4    1
    32    17    21   ar
    33    48    53    1
    34    20    32    1
    35    20    21   ar
    36     1     2   ar
    37     4     3   ar
    38    32    33   ar
    39    59    60    1
    40    59    61    1
    41    43    45    1
    42    43    44    1
    43    43    42    1
    44    34    33   ar
    45    34    42    1
    46    11     8    1
    47    33    37    1
    48     2     3   ar
    49     2     7    1
    50     3    12    1
    51    53    54    1
    52    37    38    1
    53     8     7    1
    54     8    10    1
    55     8     9    1
    56    41    38    1
    57    12    13    1
    58    56    54    1
    59    38    40    1
    60    38    39    1
    61    54    57    1
    62    54    55    1
    63    13    16    1
    64    13    15    1
    65    13    14    1
