@<TRIPOS>MOLECULE
mol_data/opt/cam/geoms/mol2/5ll5ll5ll-5ll-.out
 62 65 0 0 0
SMALL
GASTEIGER

@<TRIPOS>ATOM
      1 C          -2.0796   -2.2427   -0.3816 C.ar    1  LIG1        0.0218
      2 C          -0.8857   -2.2158    0.2709 C.ar    1  LIG1        0.1691
      3 C          -0.2524   -0.9258    0.2209 C.ar    1  LIG1        0.1768
      4 C          -0.9684   -0.0019   -0.4856 C.ar    1  LIG1        0.0749
      5 S          -2.4385   -0.7095   -1.1020 S.2     1  LIG1       -0.0885
      6 H          -2.7644   -3.0675   -0.4975 H       1  LIG1        0.0731
      7 O          -0.2645   -3.2196    0.9346 O.3     1  LIG1       -0.4909
      8 C          -0.9368   -4.4628    0.9433 C.3     1  LIG1        0.0790
      9 H          -0.3082   -5.1529    1.5049 H       1  LIG1        0.0660
     10 H          -1.9155   -4.3801    1.4307 H       1  LIG1        0.0660
     11 H          -1.0754   -4.8421   -0.0758 H       1  LIG1        0.0660
     12 O           0.9684   -0.6652    0.7626 O.3     1  LIG1       -0.4903
     13 C           1.0213   -0.7133    2.1860 C.3     1  LIG1        0.0790
     14 H           2.0497   -0.4792    2.4619 H       1  LIG1        0.0660
     15 H           0.3491    0.0333    2.6221 H       1  LIG1        0.0660
     16 H           0.7590   -1.7076    2.5559 H       1  LIG1        0.0660
     17 C          -0.6507    1.4035   -0.6954 C.ar    1  LIG1        0.0755
     18 C           0.5067    2.0141   -1.1064 C.ar    1  LIG1        0.1775
     19 C           0.4252    3.4528   -1.0816 C.ar    1  LIG1        0.1775
     20 C          -0.7903    3.9186   -0.6688 C.ar    1  LIG1        0.0755
     21 S          -1.8632    2.6019   -0.2950 S.2     1  LIG1       -0.0794
     22 O           1.6608    1.4782   -1.5570 O.3     1  LIG1       -0.4903
     23 C           1.6399    0.2134   -2.2043 C.3     1  LIG1        0.0790
     24 H           2.5331    0.1843   -2.8300 H       1  LIG1        0.0660
     25 H           1.6762   -0.5998   -1.4785 H       1  LIG1        0.0660
     26 H           0.7512    0.1135   -2.8343 H       1  LIG1        0.0660
     27 O           1.4074    4.2589   -1.5498 O.3     1  LIG1       -0.4903
     28 C           2.6325    4.2286   -0.8217 C.3     1  LIG1        0.0790
     29 H           3.3068    4.9119   -1.3388 H       1  LIG1        0.0660
     30 H           2.4727    4.5848    0.1993 H       1  LIG1        0.0660
     31 H           3.0615    3.2242   -0.8151 H       1  LIG1        0.0660
     32 C          -1.2268    5.3014   -0.5799 C.ar    1  LIG1        0.0755
     33 C          -0.5778    6.3539    0.0017 C.ar    1  LIG1        0.1775
     34 C          -1.2920    7.5909   -0.1120 C.ar    1  LIG1        0.1775
     35 C          -2.4934    7.4742   -0.7520 C.ar    1  LIG1        0.0755
     36 S          -2.7475    5.8237   -1.2526 S.2     1  LIG1       -0.0794
     37 O           0.6381    6.2574    0.6140 O.3     1  LIG1       -0.4903
     38 C           0.5951    6.4677    2.0239 C.3     1  LIG1        0.0790
     39 H           1.6210    6.3733    2.3819 H       1  LIG1        0.0660
     40 H           0.2140    7.4647    2.2618 H       1  LIG1        0.0660
     41 H          -0.0294    5.7097    2.5087 H       1  LIG1        0.0660
     42 O          -0.8336    8.7635    0.4161 O.3     1  LIG1       -0.4903
     43 C           0.2983    9.3042   -0.2657 C.3     1  LIG1        0.0790
     44 H           0.5774   10.2112    0.2711 H       1  LIG1        0.0660
     45 H           1.1325    8.5970   -0.2591 H       1  LIG1        0.0660
     46 H           0.0388    9.5565   -1.2987 H       1  LIG1        0.0660
     47 C          -3.4400    8.5298   -1.0854 C.ar    1  LIG1        0.0749
     48 C          -3.9963    9.5175   -0.3125 C.ar    1  LIG1        0.1768
     49 C          -4.8065   10.4350   -1.0759 C.ar    1  LIG1        0.1691
     50 C          -4.8651   10.1206   -2.3935 C.ar    1  LIG1        0.0218
     51 S          -3.9446    8.7110   -2.7553 S.2     1  LIG1       -0.0885
     52 H          -5.4357   10.6331   -3.1531 H       1  LIG1        0.0731
     53 O          -3.9192    9.7339    1.0192 O.3     1  LIG1       -0.4903
     54 C          -3.6955    8.6375    1.8922 C.3     1  LIG1        0.0790
     55 H          -4.0668    8.9520    2.8686 H       1  LIG1        0.0660
     56 H          -4.2489    7.7543    1.5595 H       1  LIG1        0.0660
     57 H          -2.6327    8.4021    1.9652 H       1  LIG1        0.0660
     58 O          -5.5108   11.4547   -0.5156 O.3     1  LIG1       -0.4909
     59 C          -4.7194   12.4884    0.0586 C.3     1  LIG1        0.0790
     60 H          -5.4187   13.2195    0.4659 H       1  LIG1        0.0660
     61 H          -4.0839   12.1034    0.8598 H       1  LIG1        0.0660
     62 H          -4.0969   12.9705   -0.7044 H       1  LIG1        0.0660
@<TRIPOS>BOND
     1    52    50    1
     2    26    23    1
     3    24    23    1
     4    51    50   ar
     5    51    47   ar
     6    50    49   ar
     7    23    22    1
     8    23    25    1
     9    22    18    1
    10    27    19    1
    11    27    28    1
    12    29    28    1
    13    46    43    1
    14    36    35   ar
    15    36    32   ar
    16    18    19   ar
    17    18    17   ar
    18     5     4   ar
    19     5     1   ar
    20    47    35    1
    21    47    48   ar
    22    19    20   ar
    23    49    58    1
    24    49    48   ar
    25    28    31    1
    26    28    30    1
    27    35    34   ar
    28    62    59    1
    29    17     4    1
    30    17    21   ar
    31    20    32    1
    32    20    21   ar
    33    32    33   ar
    34    58    59    1
    35     6     1    1
    36     4     3   ar
    37     1     2   ar
    38    48    53    1
    39    43    45    1
    40    43    44    1
    41    43    42    1
    42    34    33   ar
    43    34    42    1
    44    11     8    1
    45    33    37    1
    46    59    60    1
    47    59    61    1
    48     3     2   ar
    49     3    12    1
    50     2     7    1
    51    37    38    1
    52    12    13    1
    53     7     8    1
    54     8    10    1
    55     8     9    1
    56    53    54    1
    57    56    54    1
    58    54    57    1
    59    54    55    1
    60    38    40    1
    61    38    39    1
    62    38    41    1
    63    13    14    1
    64    13    16    1
    65    13    15    1
