@<TRIPOS>MOLECULE
mol_data/opt/cam/geoms/mol2/5ll5ll-5ll-5ll.out
 62 65 0 0 0
SMALL
GASTEIGER

@<TRIPOS>ATOM
      1 C          -0.8759   -2.0131   -2.1096 C.ar    1  LIG1        0.0218
      2 C          -0.5769   -2.1178   -0.7862 C.ar    1  LIG1        0.1691
      3 C          -0.2559   -0.8510   -0.1860 C.ar    1  LIG1        0.1768
      4 C          -0.2984    0.1891   -1.0696 C.ar    1  LIG1        0.0749
      5 S          -0.7381   -0.3770   -2.6592 S.2     1  LIG1       -0.0885
      6 H          -1.1557   -2.7933   -2.7993 H       1  LIG1        0.0731
      7 O          -0.5548   -3.2278   -0.0114 O.3     1  LIG1       -0.4909
      8 C          -0.8812   -4.4408   -0.6598 C.3     1  LIG1        0.0790
      9 H          -0.8111   -5.2249    0.0932 H       1  LIG1        0.0660
     10 H          -1.8999   -4.4117   -1.0639 H       1  LIG1        0.0660
     11 H          -0.1786   -4.6528   -1.4741 H       1  LIG1        0.0660
     12 O           0.1211   -0.7074    1.1132 O.3     1  LIG1       -0.4903
     13 C          -0.8970   -0.9814    2.0735 C.3     1  LIG1        0.0790
     14 H          -0.4468   -0.8142    3.0521 H       1  LIG1        0.0660
     15 H          -1.7439   -0.2999    1.9419 H       1  LIG1        0.0660
     16 H          -1.2393   -2.0164    1.9984 H       1  LIG1        0.0660
     17 C          -0.0838    1.6039   -0.7926 C.ar    1  LIG1        0.0755
     18 C           0.9441    2.2565   -0.1613 C.ar    1  LIG1        0.1775
     19 C           0.6889    3.6629    0.0112 C.ar    1  LIG1        0.1775
     20 C          -0.4965    4.0807   -0.5167 C.ar    1  LIG1        0.0755
     21 S          -1.3476    2.7380   -1.2259 S.2     1  LIG1       -0.0794
     22 O           2.1283    1.8007    0.2983 O.3     1  LIG1       -0.4903
     23 C           2.6812    0.6068   -0.2381 C.3     1  LIG1        0.0790
     24 H           3.7475    0.6470   -0.0120 H       1  LIG1        0.0660
     25 H           2.2408   -0.2746    0.2296 H       1  LIG1        0.0660
     26 H           2.5406    0.5647   -1.3222 H       1  LIG1        0.0660
     27 O           1.5931    4.5153    0.5649 O.3     1  LIG1       -0.4903
     28 C           1.8356    4.3228    1.9568 C.3     1  LIG1        0.0790
     29 H           2.5734    5.0721    2.2446 H       1  LIG1        0.0660
     30 H           0.9165    4.4786    2.5317 H       1  LIG1        0.0660
     31 H           2.2301    3.3228    2.1510 H       1  LIG1        0.0660
     32 C          -1.0735    5.4210   -0.4936 C.ar    1  LIG1        0.0755
     33 C          -0.6068    6.6311   -0.9402 C.ar    1  LIG1        0.1775
     34 C          -1.4946    7.7202   -0.6267 C.ar    1  LIG1        0.1775
     35 C          -2.6158    7.3467    0.0532 C.ar    1  LIG1        0.0755
     36 S          -2.6054    5.6317    0.3360 S.2     1  LIG1       -0.0794
     37 O           0.5014    6.9555   -1.6373 O.3     1  LIG1       -0.4903
     38 C           1.2593    5.9385   -2.2779 C.3     1  LIG1        0.0790
     39 H           1.9199    6.4589   -2.9722 H       1  LIG1        0.0660
     40 H           1.8547    5.3804   -1.5543 H       1  LIG1        0.0660
     41 H           0.6102    5.2565   -2.8354 H       1  LIG1        0.0660
     42 O          -1.2140    9.0149   -0.9409 O.3     1  LIG1       -0.4903
     43 C          -1.3131    9.3329   -2.3261 C.3     1  LIG1        0.0790
     44 H          -1.0753   10.3932   -2.4154 H       1  LIG1        0.0660
     45 H          -0.6020    8.7470   -2.9135 H       1  LIG1        0.0660
     46 H          -2.3308    9.1567   -2.6904 H       1  LIG1        0.0660
     47 C          -3.7374    8.1851    0.4549 C.ar    1  LIG1        0.0749
     48 C          -3.7723    9.3880    1.1138 C.ar    1  LIG1        0.1768
     49 C          -5.1054    9.9323    1.2096 C.ar    1  LIG1        0.1691
     50 C          -6.0466    9.1346    0.6479 C.ar    1  LIG1        0.0218
     51 S          -5.3568    7.7025   -0.0152 S.2     1  LIG1       -0.0885
     52 H          -7.1114    9.3105    0.6280 H       1  LIG1        0.0731
     53 O          -2.7809   10.1011    1.6897 O.3     1  LIG1       -0.4903
     54 C          -1.6212    9.4329    2.1666 C.3     1  LIG1        0.0790
     55 H          -1.1868   10.0918    2.9198 H       1  LIG1        0.0660
     56 H          -1.8859    8.4772    2.6286 H       1  LIG1        0.0660
     57 H          -0.9017    9.2721    1.3630 H       1  LIG1        0.0660
     58 O          -5.3966   11.0834    1.8731 O.3     1  LIG1       -0.4909
     59 C          -4.8516   12.2643    1.2958 C.3     1  LIG1        0.0790
     60 H          -5.1621   13.0904    1.9367 H       1  LIG1        0.0660
     61 H          -3.7605   12.2201    1.2573 H       1  LIG1        0.0660
     62 H          -5.2488   12.4219    0.2861 H       1  LIG1        0.0660
@<TRIPOS>BOND
     1    39    38    1
     2    45    43    1
     3    41    38    1
     4     6     1    1
     5    46    43    1
     6     5     1   ar
     7     5     4   ar
     8    44    43    1
     9    43    42    1
    10    38    37    1
    11    38    40    1
    12     1     2   ar
    13    37    33    1
    14    11     8    1
    15    26    23    1
    16    21    17   ar
    17    21    20   ar
    18     4    17    1
    19     4     3   ar
    20    10     8    1
    21    42    34    1
    22    33    34   ar
    23    33    32   ar
    24    17    18   ar
    25     2     3   ar
    26     2     7    1
    27     8     7    1
    28     8     9    1
    29    34    35   ar
    30    20    32    1
    31    20    19   ar
    32    32    36   ar
    33    23    24    1
    34    23    25    1
    35    23    22    1
    36     3    12    1
    37    18    19   ar
    38    18    22    1
    39    51    47   ar
    40    51    50   ar
    41    19    27    1
    42    35    36   ar
    43    35    47    1
    44    62    59    1
    45    47    48   ar
    46    27    28    1
    47    52    50    1
    48    50    49   ar
    49    12    13    1
    50    48    49   ar
    51    48    53    1
    52    49    58    1
    53    61    59    1
    54    59    58    1
    55    59    60    1
    56    57    54    1
    57    53    54    1
    58    15    13    1
    59    28    31    1
    60    28    29    1
    61    28    30    1
    62    16    13    1
    63    13    14    1
    64    54    56    1
    65    54    55    1
