@<TRIPOS>MOLECULE
mol_data/opt/cam/geoms/mol2/5ll5ll-5ll5ll.out
 62 65 0 0 0
SMALL
GASTEIGER

@<TRIPOS>ATOM
      1 C          -2.1845   -2.1623   -0.2677 C.ar    1  LIG1        0.0218
      2 C          -0.8494   -2.1656   -0.0046 C.ar    1  LIG1        0.1691
      3 C          -0.2639   -0.8543   -0.0805 C.ar    1  LIG1        0.1768
      4 C          -1.1622    0.1166   -0.4207 C.ar    1  LIG1        0.0749
      5 S          -2.7481   -0.5707   -0.6509 S.2     1  LIG1       -0.0885
      6 H          -2.8703   -2.9944   -0.2753 H       1  LIG1        0.0731
      7 O          -0.0545   -3.2160    0.3093 O.3     1  LIG1       -0.4909
      8 C          -0.6890   -4.4783    0.3574 C.3     1  LIG1        0.0790
      9 H           0.0821   -5.2048    0.6109 H       1  LIG1        0.0660
     10 H          -1.4749   -4.4972    1.1215 H       1  LIG1        0.0660
     11 H          -1.1274   -4.7348   -0.6139 H       1  LIG1        0.0660
     12 O           1.0624   -0.6081    0.0985 O.3     1  LIG1       -0.4903
     13 C           1.5503   -0.8420    1.4170 C.3     1  LIG1        0.0790
     14 H           2.6117   -0.5936    1.3985 H       1  LIG1        0.0660
     15 H           1.0381   -0.1957    2.1379 H       1  LIG1        0.0660
     16 H           1.4229   -1.8885    1.7042 H       1  LIG1        0.0660
     17 C          -0.9228    1.5477   -0.5456 C.ar    1  LIG1        0.0755
     18 C           0.0526    2.2397   -1.2173 C.ar    1  LIG1        0.1775
     19 C          -0.0187    3.6629   -1.0013 C.ar    1  LIG1        0.1775
     20 C          -1.0428    4.0372   -0.1798 C.ar    1  LIG1        0.0755
     21 S          -1.9525    2.6510    0.3441 S.2     1  LIG1       -0.0794
     22 O           1.0182    1.8014   -2.0514 O.3     1  LIG1       -0.4903
     23 C           0.8067    0.6185   -2.8105 C.3     1  LIG1        0.0790
     24 H           1.4688    0.6965   -3.6738 H       1  LIG1        0.0660
     25 H           1.0636   -0.2702   -2.2327 H       1  LIG1        0.0660
     26 H          -0.2305    0.5560   -3.1523 H       1  LIG1        0.0660
     27 O           0.7701    4.5487   -1.6550 O.3     1  LIG1       -0.4903
     28 C           2.1536    4.5235   -1.3119 C.3     1  LIG1        0.0790
     29 H           2.6493    5.2027   -2.0061 H       1  LIG1        0.0660
     30 H           2.2961    4.8888   -0.2909 H       1  LIG1        0.0660
     31 H           2.5702    3.5199   -1.4250 H       1  LIG1        0.0660
     32 C          -1.4029    5.3951    0.2045 C.ar    1  LIG1        0.0755
     33 C          -0.6145    6.3256    0.8249 C.ar    1  LIG1        0.1775
     34 C          -1.2544    7.6015    0.9647 C.ar    1  LIG1        0.1775
     35 C          -2.5208    7.6332    0.4504 C.ar    1  LIG1        0.0755
     36 S          -2.9432    6.0827   -0.2183 S.2     1  LIG1       -0.0794
     37 O           0.6611    6.1306    1.2752 O.3     1  LIG1       -0.4903
     38 C           0.8018    5.1444    2.2943 C.3     1  LIG1        0.0790
     39 H           1.8509    5.1602    2.5924 H       1  LIG1        0.0660
     40 H           0.1742    5.3856    3.1593 H       1  LIG1        0.0660
     41 H           0.5434    4.1474    1.9290 H       1  LIG1        0.0660
     42 O          -0.6537    8.7125    1.4689 O.3     1  LIG1       -0.4903
     43 C          -0.2288    8.6406    2.8246 C.3     1  LIG1        0.0790
     44 H           0.1048    9.6432    3.0933 H       1  LIG1        0.0660
     45 H          -1.0597    8.3518    3.4772 H       1  LIG1        0.0660
     46 H           0.5990    7.9376    2.9424 H       1  LIG1        0.0660
     47 C          -3.4809    8.7355    0.4804 C.ar    1  LIG1        0.0749
     48 C          -3.5006    9.9584   -0.1403 C.ar    1  LIG1        0.1768
     49 C          -4.6482   10.7532    0.2303 C.ar    1  LIG1        0.1691
     50 C          -5.4675   10.1289    1.1107 C.ar    1  LIG1        0.0218
     51 S          -4.8756    8.5697    1.5343 S.2     1  LIG1       -0.0885
     52 H          -6.3816   10.5225    1.5290 H       1  LIG1        0.0731
     53 O          -2.6567   10.5201   -1.0303 O.3     1  LIG1       -0.4903
     54 C          -1.5288    9.7945   -1.4973 C.3     1  LIG1        0.0790
     55 H          -1.0753   10.4229   -2.2643 H       1  LIG1        0.0660
     56 H          -0.8131    9.6236   -0.6910 H       1  LIG1        0.0660
     57 H          -1.8258    8.8395   -1.9402 H       1  LIG1        0.0660
     58 O          -4.8524   12.0215   -0.2192 O.3     1  LIG1       -0.4909
     59 C          -5.1678   12.1241   -1.6027 C.3     1  LIG1        0.0790
     60 H          -5.3046   13.1863   -1.8089 H       1  LIG1        0.0660
     61 H          -4.3587   11.7323   -2.2237 H       1  LIG1        0.0660
     62 H          -6.0974   11.5890   -1.8302 H       1  LIG1        0.0660
@<TRIPOS>BOND
     1    24    23    1
     2    26    23    1
     3    23    25    1
     4    23    22    1
     5    55    54    1
     6    61    59    1
     7    22    18    1
     8    29    28    1
     9    57    54    1
    10    62    59    1
    11    60    59    1
    12    27    28    1
    13    27    19    1
    14    59    58    1
    15    54    53    1
    16    54    56    1
    17    31    28    1
    18    28    30    1
    19    18    19   ar
    20    18    17   ar
    21    53    48    1
    22    19    20   ar
    23     5     4   ar
    24     5     1   ar
    25    11     8    1
    26    17     4    1
    27    17    21   ar
    28     4     3   ar
    29     6     1    1
    30     1     2   ar
    31    58    49    1
    32    36    32   ar
    33    36    35   ar
    34    20    32    1
    35    20    21   ar
    36    48    49   ar
    37    48    47   ar
    38     3     2   ar
    39     3    12    1
    40     2     7    1
    41    12    13    1
    42    32    33   ar
    43    49    50   ar
    44     7     8    1
    45     8     9    1
    46     8    10    1
    47    35    47    1
    48    35    34   ar
    49    47    51   ar
    50    33    34   ar
    51    33    37    1
    52    34    42    1
    53    50    52    1
    54    50    51   ar
    55    37    38    1
    56    14    13    1
    57    13    16    1
    58    13    15    1
    59    42    43    1
    60    41    38    1
    61    38    39    1
    62    38    40    1
    63    43    46    1
    64    43    44    1
    65    43    45    1
