@<TRIPOS>MOLECULE
mol_data/opt/cam/geoms/mol2/5ll5ll5ll-.out
 47 49 0 0 0
SMALL
GASTEIGER

@<TRIPOS>ATOM
      1 C          -1.6558   -2.2054   -1.1357 C.ar    1  LIG1        0.0218
      2 C          -0.7617   -2.1944   -0.1099 C.ar    1  LIG1        0.1691
      3 C          -0.2372   -0.8823    0.1571 C.ar    1  LIG1        0.1768
      4 C          -0.7263    0.0752   -0.6838 C.ar    1  LIG1        0.0749
      5 S          -1.8516   -0.6264   -1.8172 S.2     1  LIG1       -0.0885
      6 H          -2.2029   -3.0417   -1.5409 H       1  LIG1        0.0731
      7 O          -0.3377   -3.2312    0.6512 O.3     1  LIG1       -0.4909
      8 C          -0.8909   -4.4938    0.3390 C.3     1  LIG1        0.0790
      9 H          -0.4466   -5.2081    1.0312 H       1  LIG1        0.0660
     10 H          -1.9800   -4.4911    0.4654 H       1  LIG1        0.0660
     11 H          -0.6506   -4.7851   -0.6901 H       1  LIG1        0.0660
     12 O           0.7109   -0.6304    1.1000 O.3     1  LIG1       -0.4903
     13 C           0.2881   -0.8108    2.4497 C.3     1  LIG1        0.0790
     14 H           1.1468   -0.5645    3.0744 H       1  LIG1        0.0660
     15 H          -0.5400   -0.1348    2.6871 H       1  LIG1        0.0660
     16 H          -0.0144   -1.8449    2.6316 H       1  LIG1        0.0660
     17 C          -0.4579    1.5106   -0.6686 C.ar    1  LIG1        0.0755
     18 C           0.6997    2.2333   -0.8054 C.ar    1  LIG1        0.1775
     19 C           0.4935    3.6500   -0.6516 C.ar    1  LIG1        0.1775
     20 C          -0.7985    3.9996   -0.3918 C.ar    1  LIG1        0.0755
     21 S          -1.8029    2.5828   -0.3215 S.2     1  LIG1       -0.0794
     22 O           1.9624    1.8512   -1.0864 O.3     1  LIG1       -0.4903
     23 C           2.2254    0.5203   -1.5072 C.3     1  LIG1        0.0790
     24 H           3.2519    0.5276   -1.8751 H       1  LIG1        0.0660
     25 H           2.1398   -0.1777   -0.6730 H       1  LIG1        0.0660
     26 H           1.5515    0.2217   -2.3157 H       1  LIG1        0.0660
     27 O           1.5095    4.5541   -0.7118 O.3     1  LIG1       -0.4903
     28 C           2.0459    4.7713   -2.0138 C.3     1  LIG1        0.0790
     29 H           2.8280    5.5228   -1.9018 H       1  LIG1        0.0660
     30 H           2.4760    3.8517   -2.4180 H       1  LIG1        0.0660
     31 H           1.2730    5.1496   -2.6912 H       1  LIG1        0.0660
     32 C          -1.3499    5.3405   -0.2515 C.ar    1  LIG1        0.0749
     33 C          -0.9321    6.4115    0.4973 C.ar    1  LIG1        0.1768
     34 C          -1.7117    7.6008    0.2520 C.ar    1  LIG1        0.1691
     35 C          -2.7053    7.4080   -0.6499 C.ar    1  LIG1        0.0218
     36 S          -2.7327    5.7874   -1.2330 S.2     1  LIG1       -0.0885
     37 H          -3.4382    8.1345   -0.9661 H       1  LIG1        0.0731
     38 O           0.0510    6.5062    1.4181 O.3     1  LIG1       -0.4903
     39 C           0.4395    5.3523    2.1504 C.3     1  LIG1        0.0790
     40 H           0.9003    5.7229    3.0673 H       1  LIG1        0.0660
     41 H          -0.4318    4.7409    2.4030 H       1  LIG1        0.0660
     42 H           1.1635    4.7577    1.5923 H       1  LIG1        0.0660
     43 O          -1.5238    8.7689    0.9230 O.3     1  LIG1       -0.4909
     44 C          -0.2809    9.4143    0.6702 C.3     1  LIG1        0.0790
     45 H          -0.2757   10.3187    1.2795 H       1  LIG1        0.0660
     46 H           0.5612    8.7776    0.9517 H       1  LIG1        0.0660
     47 H          -0.1952    9.6909   -0.3873 H       1  LIG1        0.0660
@<TRIPOS>BOND
     1    31    28    1
     2    30    28    1
     3    26    23    1
     4    28    29    1
     5    28    27    1
     6    24    23    1
     7     5     1   ar
     8     5     4   ar
     9     6     1    1
    10    23    22    1
    11    23    25    1
    12    36    35   ar
    13    36    32   ar
    14     1     2   ar
    15    22    18    1
    16    37    35    1
    17    18    17   ar
    18    18    19   ar
    19    27    19    1
    20    11     8    1
    21     4    17    1
    22     4     3   ar
    23    17    21   ar
    24    19    20   ar
    25    35    34   ar
    26    20    21   ar
    27    20    32    1
    28    47    44    1
    29    32    33   ar
    30     2     3   ar
    31     2     7    1
    32     3    12    1
    33    34    33   ar
    34    34    43    1
    35     8    10    1
    36     8     7    1
    37     8     9    1
    38    33    38    1
    39    44    43    1
    40    44    46    1
    41    44    45    1
    42    12    13    1
    43    38    39    1
    44    42    39    1
    45    39    41    1
    46    39    40    1
    47    13    16    1
    48    13    15    1
    49    13    14    1
