@<TRIPOS>MOLECULE
mol_data/opt/cam/geoms/mol2/5ll5ll-5ll5ll-.out
 62 65 0 0 0
SMALL
GASTEIGER

@<TRIPOS>ATOM
      1 C          -1.2271   -1.8109   -2.4151 C.ar    1  LIG1        0.0218
      2 C          -0.8414   -2.0398   -1.1303 C.ar    1  LIG1        0.1691
      3 C          -0.4189   -0.8430   -0.4542 C.ar    1  LIG1        0.1768
      4 C          -0.4739    0.2692   -1.2441 C.ar    1  LIG1        0.0749
      5 S          -1.0505   -0.1411   -2.8379 S.2     1  LIG1       -0.0885
      6 H          -1.5916   -2.5174   -3.1436 H       1  LIG1        0.0731
      7 O          -0.8188   -3.2113   -0.4521 O.3     1  LIG1       -0.4909
      8 C          -1.2482   -4.3502   -1.1710 C.3     1  LIG1        0.0790
      9 H          -1.1652   -5.1971   -0.4909 H       1  LIG1        0.0660
     10 H          -2.2896   -4.2430   -1.4964 H       1  LIG1        0.0660
     11 H          -0.6145   -4.5234   -2.0485 H       1  LIG1        0.0660
     12 O           0.0548   -0.8263    0.8211 O.3     1  LIG1       -0.4903
     13 C          -0.9062   -1.1358    1.8283 C.3     1  LIG1        0.0790
     14 H          -0.3808   -1.0729    2.7814 H       1  LIG1        0.0660
     15 H          -1.7247   -0.4087    1.8159 H       1  LIG1        0.0660
     16 H          -1.3045   -2.1444    1.6942 H       1  LIG1        0.0660
     17 C          -0.1738    1.6451   -0.8682 C.ar    1  LIG1        0.0755
     18 C           0.9262    2.1992   -0.2650 C.ar    1  LIG1        0.1775
     19 C           0.7487    3.5937    0.0455 C.ar    1  LIG1        0.1775
     20 C          -0.4535    4.1012   -0.3502 C.ar    1  LIG1        0.0755
     21 S          -1.4129    2.8620   -1.1069 S.2     1  LIG1       -0.0794
     22 O           2.1188    1.6593    0.0625 O.3     1  LIG1       -0.4903
     23 C           2.5728    0.4912   -0.6071 C.3     1  LIG1        0.0790
     24 H           3.6534    0.4677   -0.4607 H       1  LIG1        0.0660
     25 H           2.1255   -0.4062   -0.1780 H       1  LIG1        0.0660
     26 H           2.3518    0.5444   -1.6773 H       1  LIG1        0.0660
     27 O           1.7264    4.3578    0.6031 O.3     1  LIG1       -0.4903
     28 C           2.0520    4.0339    1.9530 C.3     1  LIG1        0.0790
     29 H           2.8423    4.7236    2.2504 H       1  LIG1        0.0660
     30 H           1.1822    4.1764    2.6030 H       1  LIG1        0.0660
     31 H           2.4110    3.0052    2.0335 H       1  LIG1        0.0660
     32 C          -0.9572    5.4558   -0.1676 C.ar    1  LIG1        0.0755
     33 C          -0.3943    6.6750   -0.4466 C.ar    1  LIG1        0.1775
     34 C          -1.1927    7.7780    0.0206 C.ar    1  LIG1        0.1775
     35 C          -2.3638    7.4041    0.6108 C.ar    1  LIG1        0.0755
     36 S          -2.5090    5.6699    0.6196 S.2     1  LIG1       -0.0794
     37 O           0.7527    6.9895   -1.0847 O.3     1  LIG1       -0.4903
     38 C           1.3139    6.0742   -2.0158 C.3     1  LIG1        0.0790
     39 H           1.9596    6.6688   -2.6634 H       1  LIG1        0.0660
     40 H           1.9062    5.3121   -1.5083 H       1  LIG1        0.0660
     41 H           0.5315    5.6019   -2.6173 H       1  LIG1        0.0660
     42 O          -0.8534    9.0788   -0.1884 O.3     1  LIG1       -0.4903
     43 C           0.3004    9.5247    0.5197 C.3     1  LIG1        0.0790
     44 H           0.4381   10.5722    0.2504 H       1  LIG1        0.0660
     45 H           0.1428    9.4458    1.6007 H       1  LIG1        0.0660
     46 H           1.1841    8.9508    0.2311 H       1  LIG1        0.0660
     47 C          -3.3819    8.2619    1.2018 C.ar    1  LIG1        0.0749
     48 C          -4.0102    9.3808    0.7167 C.ar    1  LIG1        0.1768
     49 C          -4.8784    9.9989    1.6897 C.ar    1  LIG1        0.1691
     50 C          -4.9086    9.3359    2.8718 C.ar    1  LIG1        0.0218
     51 S          -3.8909    7.9467    2.8504 S.2     1  LIG1       -0.0885
     52 H          -5.5090    9.5837    3.7339 H       1  LIG1        0.0731
     53 O          -3.9581    9.9541   -0.5046 O.3     1  LIG1       -0.4903
     54 C          -3.6580    9.1561   -1.6413 C.3     1  LIG1        0.0790
     55 H          -4.0671    9.6932   -2.4983 H       1  LIG1        0.0660
     56 H          -2.5810    9.0375   -1.7648 H       1  LIG1        0.0660
     57 H          -4.1367    8.1754   -1.5650 H       1  LIG1        0.0660
     58 O          -5.6535   11.0829    1.4173 O.3     1  LIG1       -0.4909
     59 C          -4.9363   12.2831    1.1524 C.3     1  LIG1        0.0790
     60 H          -5.6851   13.0479    0.9429 H       1  LIG1        0.0660
     61 H          -4.3474   12.5845    2.0268 H       1  LIG1        0.0660
     62 H          -4.2771   12.1689    0.2886 H       1  LIG1        0.0660
@<TRIPOS>BOND
     1     6     1    1
     2     5     1   ar
     3     5     4   ar
     4    39    38    1
     5    41    38    1
     6    55    54    1
     7     1     2   ar
     8    11     8    1
     9    38    40    1
    10    38    37    1
    11    56    54    1
    12    26    23    1
    13    54    57    1
    14    54    53    1
    15    10     8    1
    16     4    17    1
    17     4     3   ar
    18     8     9    1
    19     8     7    1
    20     2     3   ar
    21     2     7    1
    22    21    17   ar
    23    21    20   ar
    24    37    33    1
    25    17    18   ar
    26    23    24    1
    27    23    25    1
    28    23    22    1
    29    53    48    1
    30     3    12    1
    31    33    32   ar
    32    33    34   ar
    33    20    32    1
    34    20    19   ar
    35    18    19   ar
    36    18    22    1
    37    42    34    1
    38    42    43    1
    39    32    36   ar
    40    34    35   ar
    41    19    27    1
    42    46    43    1
    43    44    43    1
    44    62    59    1
    45    43    45    1
    46    27    28    1
    47    35    36   ar
    48    35    47    1
    49    48    47   ar
    50    48    49   ar
    51    12    13    1
    52    60    59    1
    53    59    58    1
    54    59    61    1
    55    47    51   ar
    56    58    49    1
    57    49    50   ar
    58    16    13    1
    59    15    13    1
    60    13    14    1
    61    28    31    1
    62    28    29    1
    63    28    30    1
    64    51    50   ar
    65    50    52    1
