@<TRIPOS>MOLECULE
mol_data/opt/cam/geoms/mol2/5ll5ll5ll.out
 47 49 0 0 0
SMALL
GASTEIGER

@<TRIPOS>ATOM
      1 C          -1.6697   -2.2045   -1.1284 C.ar    1  LIG1        0.0218
      2 C          -0.8060   -2.1886   -0.0769 C.ar    1  LIG1        0.1691
      3 C          -0.2763   -0.8782    0.1885 C.ar    1  LIG1        0.1768
      4 C          -0.7309    0.0728   -0.6788 C.ar    1  LIG1        0.0749
      5 S          -1.8295   -0.6327   -1.8357 S.2     1  LIG1       -0.0885
      6 H          -2.2131   -3.0407   -1.5387 H       1  LIG1        0.0731
      7 O          -0.4149   -3.2194    0.7096 O.3     1  LIG1       -0.4909
      8 C          -0.9715   -4.4805    0.3976 C.3     1  LIG1        0.0790
      9 H          -0.5548   -5.1899    1.1117 H       1  LIG1        0.0660
     10 H          -2.0637   -4.4655    0.4918 H       1  LIG1        0.0660
     11 H          -0.7041   -4.7877   -0.6202 H       1  LIG1        0.0660
     12 O           0.6464   -0.6231    1.1555 O.3     1  LIG1       -0.4903
     13 C           0.1823   -0.7816    2.4944 C.3     1  LIG1        0.0790
     14 H           1.0249   -0.5355    3.1408 H       1  LIG1        0.0660
     15 H          -0.6455   -0.0945    2.6986 H       1  LIG1        0.0660
     16 H          -0.1358   -1.8103    2.6806 H       1  LIG1        0.0660
     17 C          -0.4485    1.5056   -0.6742 C.ar    1  LIG1        0.0755
     18 C           0.7199    2.2151   -0.7862 C.ar    1  LIG1        0.1775
     19 C           0.5235    3.6357   -0.6568 C.ar    1  LIG1        0.1775
     20 C          -0.7719    4.0012   -0.4397 C.ar    1  LIG1        0.0755
     21 S          -1.7922    2.5952   -0.3807 S.2     1  LIG1       -0.0794
     22 O           1.9863    1.8171   -1.0250 O.3     1  LIG1       -0.4903
     23 C           2.2481    0.4783   -1.4206 C.3     1  LIG1        0.0790
     24 H           3.2849    0.4708   -1.7583 H       1  LIG1        0.0660
     25 H           2.1311   -0.2078   -0.5804 H       1  LIG1        0.0660
     26 H           1.5951    0.1756   -2.2447 H       1  LIG1        0.0660
     27 O           1.5499    4.5290   -0.6987 O.3     1  LIG1       -0.4903
     28 C           2.1264    4.7238   -1.9871 C.3     1  LIG1        0.0790
     29 H           2.9124    5.4690   -1.8619 H       1  LIG1        0.0660
     30 H           2.5588    3.7949   -2.3666 H       1  LIG1        0.0660
     31 H           1.3775    5.1006   -2.6918 H       1  LIG1        0.0660
     32 C          -1.3136    5.3491   -0.3329 C.ar    1  LIG1        0.0749
     33 C          -0.9071    6.4258    0.4140 C.ar    1  LIG1        0.1768
     34 C          -1.6672    7.6193    0.1305 C.ar    1  LIG1        0.1691
     35 C          -2.6358    7.4243   -0.7977 C.ar    1  LIG1        0.0218
     36 S          -2.6625    5.7965   -1.3604 S.2     1  LIG1       -0.0885
     37 H          -3.3518    8.1537   -1.1447 H       1  LIG1        0.0731
     38 O           0.0494    6.5231    1.3620 O.3     1  LIG1       -0.4903
     39 C           0.4047    5.3752    2.1202 C.3     1  LIG1        0.0790
     40 H           0.8422    5.7534    3.0454 H       1  LIG1        0.0660
     41 H          -0.4798    4.7757    2.3549 H       1  LIG1        0.0660
     42 H           1.1387    4.7663    1.5914 H       1  LIG1        0.0660
     43 O          -1.4873    8.7942    0.7916 O.3     1  LIG1       -0.4909
     44 C          -0.2310    9.4241    0.5672 C.3     1  LIG1        0.0790
     45 H          -0.2346   10.3365    1.1647 H       1  LIG1        0.0660
     46 H           0.5960    8.7831    0.8816 H       1  LIG1        0.0660
     47 H          -0.1116    9.6860   -0.4907 H       1  LIG1        0.0660
@<TRIPOS>BOND
     1    31    28    1
     2    30    28    1
     3    26    23    1
     4    28    29    1
     5    28    27    1
     6     5     1   ar
     7     5     4   ar
     8    24    23    1
     9     6     1    1
    10    23    22    1
    11    23    25    1
    12    36    35   ar
    13    36    32   ar
    14    37    35    1
    15     1     2   ar
    16    22    18    1
    17    35    34   ar
    18    18    17   ar
    19    18    19   ar
    20    27    19    1
    21     4    17    1
    22     4     3   ar
    23    17    21   ar
    24    19    20   ar
    25    11     8    1
    26    47    44    1
    27    20    21   ar
    28    20    32    1
    29    32    33   ar
    30     2     3   ar
    31     2     7    1
    32    34    33   ar
    33    34    43    1
    34     3    12    1
    35     8    10    1
    36     8     7    1
    37     8     9    1
    38    33    38    1
    39    44    43    1
    40    44    46    1
    41    44    45    1
    42    12    13    1
    43    38    39    1
    44    42    39    1
    45    39    41    1
    46    39    40    1
    47    13    16    1
    48    13    15    1
    49    13    14    1
