@<TRIPOS>MOLECULE
mol_data/opt/cam/geoms/mol2/6aa.out
 11 11 0 0 0
SMALL
GASTEIGER

@<TRIPOS>ATOM
      1 C          -4.5701   -2.0145    0.0001 C.ar    1  LIG1        0.0276
      2 C          -3.1801   -2.0195    0.0000 C.ar    1  LIG1       -0.0436
      3 C          -2.5148   -0.8009   -0.0002 C.ar    1  LIG1       -0.0589
      4 C          -3.2672    0.3659   -0.0003 C.ar    1  LIG1       -0.0436
      5 C          -4.6530    0.2597   -0.0002 C.ar    1  LIG1        0.0276
      6 N          -5.3055   -0.9027   -0.0000 N.ar    1  LIG1       -0.2633
      7 H          -1.4301   -0.7614   -0.0003 H       1  LIG1        0.0618
      8 H          -2.6376   -2.9584    0.0001 H       1  LIG1        0.0633
      9 H          -5.2709    1.1549   -0.0003 H       1  LIG1        0.0829
     10 H          -5.1211   -2.9524    0.0003 H       1  LIG1        0.0829
     11 H          -2.7945    1.3419   -0.0005 H       1  LIG1        0.0633
@<TRIPOS>BOND
     1    11     4    1
     2     4     5   ar
     3     4     3   ar
     4     9     5    1
     5     7     3    1
     6     5     6   ar
     7     3     2   ar
     8     6     1   ar
     9     2     1   ar
    10     2     8    1
    11     1    10    1
