@<TRIPOS>MOLECULE
mol_data/opt/cam/geoms/mol2/6aa12le-4ef12af-.out
 45 48 0 0 0
SMALL
GASTEIGER

@<TRIPOS>ATOM
      1 C          -4.3571   -2.3279   -0.7930 C.ar    1  LIG1        0.0284
      2 C          -2.9767   -2.3100   -0.9490 C.ar    1  LIG1       -0.0436
      3 C          -2.3300   -1.0817   -0.8886 C.ar    1  LIG1       -0.0582
      4 C          -3.0774    0.0649   -0.6786 C.ar    1  LIG1       -0.0325
      5 C          -4.4636   -0.0615   -0.5281 C.ar    1  LIG1        0.1097
      6 N          -5.0942   -1.2409   -0.5841 N.ar    1  LIG1       -0.2518
      7 H          -1.2535   -1.0161   -1.0107 H       1  LIG1        0.0619
      8 H          -2.4303   -3.2314   -1.1152 H       1  LIG1        0.0633
      9 H          -4.9012   -3.2689   -0.8367 H       1  LIG1        0.0830
     10 H          -2.6198    1.0450   -0.6352 H       1  LIG1        0.0640
     11 C          -5.2950    1.1158   -0.2942 C.ar    1  LIG1        0.1964
     12 C          -5.0160    2.4201   -0.0012 C.ar    1  LIG1        0.1832
     13 C          -6.2711    3.1133    0.1124 C.ar    1  LIG1        0.1127
     14 C          -7.2329    2.1643   -0.1406 C.ar    1  LIG1        0.1561
     15 O          -6.6457    0.9684   -0.3751 O.2     1  LIG1       -0.4482
     16 O          -3.7755    2.9554    0.1239 O.3     1  LIG1       -0.4901
     17 C          -3.4495    3.4160    1.4348 C.3     1  LIG1        0.0790
     18 H          -2.4424    3.8282    1.3723 H       1  LIG1        0.0660
     19 H          -4.1432    4.1937    1.7625 H       1  LIG1        0.0660
     20 H          -3.4628    2.5862    2.1497 H       1  LIG1        0.0660
     21 C          -6.4409    4.4703    0.4905 C.1     1  LIG1       -0.0622
     22 C          -6.5523    5.6166    0.8410 C.1     1  LIG1       -0.1137
     23 H          -6.6742    6.6342    1.1322 H       1  LIG1        0.1232
     24 C          -9.4951    3.1549   -0.6871 C.ar    1  LIG1        0.0363
     25 C         -10.8842    3.0391   -0.5843 C.ar    1  LIG1       -0.0315
     26 C          -8.6949    2.1485   -0.1147 C.ar    1  LIG1        0.0375
     27 C         -11.5116    1.9706    0.0479 C.ar    1  LIG1        0.0599
     28 H         -11.4982    3.8013   -1.0493 H       1  LIG1        0.0638
     29 C          -9.3159    1.0566    0.4922 C.ar    1  LIG1       -0.0076
     30 C         -10.6968    0.9566    0.5834 C.ar    1  LIG1        0.1282
     31 H          -8.6945    0.2727    0.9144 H       1  LIG1        0.0662
     32 C          -8.9565    4.2362   -1.4519 C.1     1  LIG1       -0.0689
     33 C          -8.5544    5.1444   -2.1317 C.1     1  LIG1       -0.1139
     34 H          -8.1722    5.9448   -2.7218 H       1  LIG1        0.1232
     35 O         -11.2903   -0.0879    1.2075 O.3     1  LIG1       -0.5060
     36 H         -10.6108   -0.6966    1.5215 H       1  LIG1        0.2922
     37 C         -12.9705    1.9586    0.1421 C.ar    1  LIG1        0.1420
     38 C         -13.8656    2.9834    0.2393 C.ar    1  LIG1        0.0259
     39 C         -15.1545    2.3779    0.2516 C.ar    1  LIG1        0.1550
     40 C         -14.9584    1.0355    0.1637 C.ar    1  LIG1        0.1338
     41 O         -13.6229    0.7729    0.0964 O.2     1  LIG1       -0.4591
     42 H         -15.6196    0.1846    0.1426 H       1  LIG1        0.1068
     43 H         -13.6494    4.0374    0.3190 H       1  LIG1        0.0692
     44 O         -16.3072    3.0884    0.3452 O.3     1  LIG1       -0.5036
     45 H         -17.0563    2.4819    0.3520 H       1  LIG1        0.2923
@<TRIPOS>BOND
     1    34    33    1
     2    33    32    3
     3    32    24    1
     4     8     2    1
     5    28    25    1
     6     7     3    1
     7     2     3   ar
     8     2     1   ar
     9     3     4   ar
    10     9     1    1
    11     1     6   ar
    12    24    25   ar
    13    24    26   ar
    14     4    10    1
    15     4     5   ar
    16    25    27   ar
    17     6     5   ar
    18     5    11    1
    19    15    11   ar
    20    15    14   ar
    21    11    12   ar
    22    14    26    1
    23    14    13   ar
    24    26    29   ar
    25    12    13   ar
    26    12    16    1
    27    27    37    1
    28    27    30   ar
    29    41    37   ar
    30    41    40   ar
    31    13    21    1
    32    16    17    1
    33    37    38   ar
    34    42    40    1
    35    40    39   ar
    36    38    39   ar
    37    38    43    1
    38    39    44    1
    39    44    45    1
    40    21    22    3
    41    29    30   ar
    42    29    31    1
    43    30    35    1
    44    22    23    1
    45    35    36    1
    46    18    17    1
    47    17    19    1
    48    17    20    1
