@<TRIPOS>MOLECULE
mol_data/opt/cam/geoms/mol2/6aa13ld13dl-6fe-6ea4ad4hh13ih.out
 98 105 0 0 0
SMALL
GASTEIGER

@<TRIPOS>ATOM
      1 C          -4.3907   -1.0275   -3.4439 C.ar    1  LIG1        0.0283
      2 C          -3.0302   -1.3056   -3.4506 C.ar    1  LIG1       -0.0436
      3 C          -2.2281   -0.6718   -2.5087 C.ar    1  LIG1       -0.0583
      4 C          -2.8040    0.2053   -1.6043 C.ar    1  LIG1       -0.0341
      5 C          -4.1824    0.4217   -1.6790 C.ar    1  LIG1        0.0907
      6 N          -4.9632   -0.1873   -2.5861 N.ar    1  LIG1       -0.2534
      7 H          -1.1600   -0.8613   -2.4775 H       1  LIG1        0.0619
      8 H          -2.6161   -1.9990   -4.1731 H       1  LIG1        0.0633
      9 H          -5.0542   -1.5022   -4.1626 H       1  LIG1        0.0830
     10 H          -2.2201    0.7182   -0.8512 H       1  LIG1        0.0639
     11 C          -4.8913    1.3260   -0.7837 C.ar    1  LIG1        0.1089
     12 C          -4.4962    2.1743    0.2355 C.ar    1  LIG1        0.1647
     13 C          -5.6656    2.8366    0.7205 C.ar    1  LIG1        0.1206
     14 C          -6.7408    2.3689   -0.0420 C.ar    1  LIG1        0.0860
     15 N          -6.2511    1.4587   -0.9148 N.ar    1  LIG1       -0.3478
     16 H          -6.7291    0.9906   -1.6735 H       1  LIG1        0.1661
     17 O          -3.2150    2.2647    0.6427 O.3     1  LIG1       -0.4916
     18 C          -2.8213    3.4143    1.3859 C.3     1  LIG1        0.0789
     19 H          -1.7329    3.3858    1.4230 H       1  LIG1        0.0660
     20 H          -3.1479    4.3329    0.8899 H       1  LIG1        0.0660
     21 H          -3.2219    3.3889    2.4015 H       1  LIG1        0.0660
     22 N          -5.9120    4.3569    2.7871 N.1     1  LIG1       -0.1907
     23 C          -5.7956    3.6875    1.8496 C.1     1  LIG1        0.1050
     24 C          -8.1514    2.6830    0.0387 C.ar    1  LIG1        0.0860
     25 C          -8.8018    3.9066    0.1783 C.ar    1  LIG1        0.1206
     26 C         -10.2054    3.6307    0.2183 C.ar    1  LIG1        0.1634
     27 C         -10.3757    2.2664    0.0802 C.ar    1  LIG1        0.0957
     28 N          -9.1061    1.7188   -0.0506 N.ar    1  LIG1       -0.3489
     29 H          -8.9193    0.7304    0.0409 H       1  LIG1        0.1661
     30 N          -7.6002    6.1846    0.0625 N.1     1  LIG1       -0.1907
     31 C          -8.1429    5.1645    0.1323 C.1     1  LIG1        0.1050
     32 O         -11.2567    4.4628    0.3386 O.3     1  LIG1       -0.4917
     33 C         -11.0170    5.8297    0.6543 C.3     1  LIG1        0.0789
     34 H         -11.9992    6.2690    0.8237 H       1  LIG1        0.0660
     35 H         -10.4108    5.9267    1.5594 H       1  LIG1        0.0660
     36 H         -10.5223    6.3484   -0.1702 H       1  LIG1        0.0660
     37 C         -11.6939    0.2354   -0.5942 C.ar    1  LIG1        0.2224
     38 C         -11.5884    1.4532    0.1103 C.ar    1  LIG1        0.0644
     39 C         -12.6999    1.8248    0.8543 C.ar    1  LIG1       -0.0299
     40 C         -13.8246    0.9978    0.9215 C.ar    1  LIG1        0.0516
     41 C         -13.7818   -0.2218    0.2239 C.ar    1  LIG1        0.0928
     42 N         -12.7300   -0.5675   -0.5209 N.ar    1  LIG1       -0.2111
     43 H         -12.6885    2.7587    1.4016 H       1  LIG1        0.0639
     44 O         -10.6856   -0.2002   -1.3989 O.3     1  LIG1       -0.4919
     45 H         -10.2137    0.5677   -1.7479 H       1  LIG1        0.2937
     46 C         -14.9401    1.3931    1.7256 C.1     1  LIG1       -0.0675
     47 C         -15.8579    1.7577    2.4137 C.1     1  LIG1       -0.1138
     48 H         -16.6719    2.0675    3.0281 H       1  LIG1        0.1232
     49 C         -14.7375   -2.5358    0.5825 C.ar    1  LIG1        0.1230
     50 C         -14.9127   -1.1833    0.2378 C.ar    1  LIG1        0.0355
     51 C         -16.1969   -0.7854   -0.1198 C.ar    1  LIG1       -0.0478
     52 C         -17.2270   -1.7076   -0.1566 C.ar    1  LIG1       -0.0350
     53 C         -16.9530   -3.0379    0.1675 C.ar    1  LIG1        0.0725
     54 N         -15.7328   -3.4247    0.5433 N.ar    1  LIG1       -0.2378
     55 H         -16.3854    0.2517   -0.3728 H       1  LIG1        0.0626
     56 C         -13.4728   -3.0385    1.0460 C.1     1  LIG1       -0.0491
     57 C         -12.4373   -3.4812    1.4667 C.1     1  LIG1       -0.1124
     58 H         -11.5176   -3.8794    1.8291 H       1  LIG1        0.1232
     59 H         -18.2277   -1.3904   -0.4214 H       1  LIG1        0.0639
     60 C         -19.2109   -3.9320   -0.5327 C.ar    1  LIG1       -0.0519
     61 C         -20.1658   -4.9364   -0.5400 C.ar    1  LIG1       -0.0521
     62 C         -17.9954   -4.0965    0.1350 C.ar    1  LIG1        0.0016
     63 C         -19.9579   -6.1532    0.1153 C.ar    1  LIG1        0.0013
     64 H         -21.1009   -4.7847   -1.0665 H       1  LIG1        0.0624
     65 C         -17.7621   -5.3090    0.7782 C.ar    1  LIG1       -0.0346
     66 C         -18.7216   -6.3211    0.7717 C.ar    1  LIG1        0.0601
     67 H         -16.8136   -5.4607    1.2783 H       1  LIG1        0.0637
     68 H         -19.4214   -3.0135   -1.0692 H       1  LIG1        0.0624
     69 N         -18.0894   -8.5213    1.9929 N.1     1  LIG1       -0.1908
     70 C         -18.3917   -7.5503    1.4418 C.1     1  LIG1        0.0998
     71 C         -21.6346   -7.6251   -1.0610 C.ar    1  LIG1        0.0331
     72 C         -22.6526   -8.5741   -0.9718 C.ar    1  LIG1       -0.0296
     73 C         -21.0164   -7.1931    0.1242 C.ar    1  LIG1        0.0058
     74 C         -23.0706   -9.1282    0.2368 C.ar    1  LIG1        0.0210
     75 H         -23.1641   -8.8708   -1.8812 H       1  LIG1        0.0643
     76 C         -21.4304   -7.7511    1.3360 C.ar    1  LIG1       -0.0309
     77 C         -22.4311   -8.7071    1.4207 C.ar    1  LIG1        0.0345
     78 H         -20.9479   -7.4230    2.2516 H       1  LIG1        0.0643
     79 N         -21.2957   -7.0914   -2.3127 N.pl3   1  LIG1       -0.3575
     80 H         -20.3334   -6.7931   -2.3928 H       1  LIG1        0.1423
     81 H         -21.5532   -7.6906   -3.0844 H       1  LIG1        0.1423
     82 N         -22.8367   -9.2078    2.6797 N.pl3   1  LIG1       -0.3574
     83 H         -22.9867  -10.2107    2.6607 H       1  LIG1        0.1423
     84 H         -22.1683   -8.9830    3.4062 H       1  LIG1        0.1423
     85 C         -24.1646  -10.1074    0.2558 C.ar    1  LIG1        0.0530
     86 C         -24.5151  -11.1068   -0.6416 C.ar    1  LIG1       -0.0045
     87 C         -25.7122  -11.7031   -0.1519 C.ar    1  LIG1        0.0456
     88 C         -26.0517  -11.0657    1.0181 C.ar    1  LIG1        0.0233
     89 N         -25.1027  -10.1045    1.2565 N.ar    1  LIG1       -0.3588
     90 H         -25.0704   -9.4728    2.0412 H       1  LIG1        0.1654
     91 H         -26.8831  -11.2205    1.6884 H       1  LIG1        0.0826
     92 C         -23.7865  -11.5494   -1.8718 C.3     1  LIG1       -0.0360
     93 H         -24.2739  -11.2072   -2.7923 H       1  LIG1        0.0279
     94 H         -23.7363  -12.6432   -1.9303 H       1  LIG1        0.0279
     95 H         -22.7582  -11.1837   -1.8803 H       1  LIG1        0.0279
     96 N         -26.4247  -12.7236   -0.8073 N.pl3   1  LIG1       -0.3566
     97 H         -25.8131  -13.3739   -1.2847 H       1  LIG1        0.1424
     98 H         -27.0309  -13.2384   -0.1820 H       1  LIG1        0.1424
@<TRIPOS>BOND
     1     8     2    1
     2     9     1    1
     3     2     1   ar
     4     2     3   ar
     5     1     6   ar
     6    81    79    1
     7    93    92    1
     8     6     5   ar
     9     3     7    1
    10     3     4   ar
    11    80    79    1
    12    79    71    1
    13    94    92    1
    14    75    72    1
    15    95    92    1
    16    92    86    1
    17    45    44    1
    18     5     4   ar
    19     5    11    1
    20    16    15    1
    21     4    10    1
    22    44    37    1
    23    97    96    1
    24    68    60    1
    25    64    61    1
    26    71    72   ar
    27    71    73   ar
    28    72    74   ar
    29    15    11   ar
    30    15    14   ar
    31    96    98    1
    32    96    87    1
    33    11    12   ar
    34    86    87   ar
    35    86    85   ar
    36    37    42   ar
    37    37    38   ar
    38    61    60   ar
    39    61    63   ar
    40    60    62   ar
    41    42    41   ar
    42    59    52    1
    43    55    51    1
    44    36    33    1
    45    52    51   ar
    46    52    53   ar
    47    87    88   ar
    48    51    50   ar
    49    28    24   ar
    50    28    29    1
    51    28    27   ar
    52    14    24    1
    53    14    13   ar
    54    24    25   ar
    55    30    31    3
    56    27    38    1
    57    27    26   ar
    58    38    39   ar
    59    63    73    1
    60    63    66   ar
    61    73    76   ar
    62    31    25    1
    63    62    53    1
    64    62    65   ar
    65    53    54   ar
    66    25    26   ar
    67    26    32    1
    68    41    50    1
    69    41    40   ar
    70    12    17    1
    71    12    13   ar
    72    74    85    1
    73    74    77   ar
    74    50    49   ar
    75    85    89   ar
    76    32    33    1
    77    54    49   ar
    78    49    56    1
    79    17    18    1
    80    33    34    1
    81    33    35    1
    82    13    23    1
    83    66    65   ar
    84    66    70    1
    85    65    67    1
    86    39    40   ar
    87    39    43    1
    88    20    18    1
    89    40    46    1
    90    88    89   ar
    91    88    91    1
    92    56    57    3
    93    89    90    1
    94    76    77   ar
    95    76    78    1
    96    18    19    1
    97    18    21    1
    98    77    82    1
    99    70    69    3
   100    57    58    1
   101    46    47    3
   102    23    22    3
   103    47    48    1
   104    83    82    1
   105    82    84    1
