@<TRIPOS>MOLECULE
mol_data/opt/cam/geoms/mol2/6aa4dd13aa12hf.out
 41 44 0 0 0
SMALL
GASTEIGER

@<TRIPOS>ATOM
      1 C          -4.1983   -2.1541   -0.5280 C.ar    1  LIG1        0.0283
      2 C          -2.8799   -2.2221   -0.0926 C.ar    1  LIG1       -0.0436
      3 C          -2.3010   -1.0655    0.4068 C.ar    1  LIG1       -0.0583
      4 C          -3.0462    0.1048    0.4403 C.ar    1  LIG1       -0.0357
      5 C          -4.3558    0.0829   -0.0430 C.ar    1  LIG1        0.0722
      6 N          -4.9211   -1.0401   -0.5065 N.ar    1  LIG1       -0.2549
      7 H          -1.2807   -1.0692    0.7755 H       1  LIG1        0.0619
      8 H          -2.3331   -3.1569   -0.1382 H       1  LIG1        0.0633
      9 H          -4.6979   -3.0394   -0.9141 H       1  LIG1        0.0830
     10 H          -2.6140    1.0104    0.8436 H       1  LIG1        0.0639
     11 C          -4.8155    2.6133   -0.1637 C.ar    1  LIG1        0.0616
     12 C          -5.7211    3.6671   -0.1426 C.ar    1  LIG1       -0.0334
     13 C          -5.2445    1.2758   -0.0365 C.ar    1  LIG1        0.0189
     14 C          -7.1010    3.4786    0.0112 C.ar    1  LIG1        0.0169
     15 H          -5.3354    4.6697   -0.2701 H       1  LIG1        0.0637
     16 C          -6.6129    1.0765    0.0809 C.ar    1  LIG1       -0.0333
     17 C          -7.5238    2.1329    0.1123 C.ar    1  LIG1        0.0615
     18 H          -6.9753    0.0583    0.1456 H       1  LIG1        0.0637
     19 N          -2.3451    3.3064   -0.5445 N.1     1  LIG1       -0.1908
     20 C          -3.4386    2.9699   -0.3743 C.1     1  LIG1        0.0998
     21 N         -10.0225    1.4923    0.3584 N.1     1  LIG1       -0.1908
     22 C          -8.9055    1.7792    0.2537 C.1     1  LIG1        0.0998
     23 C          -7.9644    4.6469    0.0479 C.ar    1  LIG1        0.0483
     24 C          -7.6013    5.9874    0.1006 C.ar    1  LIG1       -0.0357
     25 C          -8.7708    6.7626    0.1243 C.ar    1  LIG1       -0.0327
     26 C          -9.8435    5.8826    0.0837 C.ar    1  LIG1        0.0845
     27 N          -9.3441    4.6166    0.0382 N.ar    1  LIG1       -0.3517
     28 H          -9.9298    3.7942    0.0175 H       1  LIG1        0.1660
     29 H          -6.5929    6.3705    0.1434 H       1  LIG1        0.0639
     30 H          -8.8395    7.8361    0.2126 H       1  LIG1        0.0640
     31 C         -11.2585    6.1281    0.0783 C.ar    1  LIG1        0.1751
     32 C         -11.9979    7.2645   -0.0945 C.ar    1  LIG1        0.1145
     33 C         -13.3629    6.8503    0.0072 C.ar    1  LIG1        0.1763
     34 C         -13.3651    5.5107    0.2226 C.ar    1  LIG1        0.1359
     35 O         -12.0842    5.0523    0.2626 O.2     1  LIG1       -0.4558
     36 H         -14.1469    4.7809    0.3557 H       1  LIG1        0.1068
     37 N         -11.5705    8.5722   -0.3009 N.pl3   1  LIG1       -0.3522
     38 H         -10.7832    8.6469   -0.9324 H       1  LIG1        0.1425
     39 H         -12.3276    9.1769   -0.5920 H       1  LIG1        0.1425
     40 O         -14.3754    7.7476   -0.1258 O.3     1  LIG1       -0.5024
     41 H         -15.2249    7.3006   -0.0415 H       1  LIG1        0.2923
@<TRIPOS>BOND
     1    38    37    1
     2     9     1    1
     3    39    37    1
     4    19    20    3
     5     1     6   ar
     6     1     2   ar
     7     6     5   ar
     8    20    11    1
     9    37    32    1
    10    15    12    1
    11    11    12   ar
    12    11    13   ar
    13    12    14   ar
    14     8     2    1
    15    40    41    1
    16    40    33    1
    17    32    33   ar
    18    32    31   ar
    19     2     3   ar
    20     5    13    1
    21     5     4   ar
    22    13    16   ar
    23    33    34   ar
    24    14    23    1
    25    14    17   ar
    26    28    27    1
    27    27    23   ar
    28    27    26   ar
    29    23    24   ar
    30    31    26    1
    31    31    35   ar
    32    16    17   ar
    33    16    18    1
    34    26    25   ar
    35    24    25   ar
    36    24    29    1
    37    17    22    1
    38    25    30    1
    39    34    35   ar
    40    34    36    1
    41    22    21    3
    42     3     4   ar
    43     3     7    1
    44     4    10    1
