@<TRIPOS>MOLECULE
mol_data/opt/cam/geoms/mol2/6aa6aa6aa6aa-.out
 38 41 0 0 0
SMALL
GASTEIGER

@<TRIPOS>ATOM
      1 C          -4.5189   -2.2436   -0.0007 C.ar    1  LIG1        0.0283
      2 C          -3.1328   -2.3393   -0.0005 C.ar    1  LIG1       -0.0436
      3 C          -2.4039   -1.1587   -0.0002 C.ar    1  LIG1       -0.0583
      4 C          -3.0797    0.0517   -0.0001 C.ar    1  LIG1       -0.0356
      5 C          -4.4776    0.0528   -0.0003 C.ar    1  LIG1        0.0724
      6 N          -5.1767   -1.0898   -0.0006 N.ar    1  LIG1       -0.2549
      7 H          -1.3188   -1.1770   -0.0001 H       1  LIG1        0.0619
      8 H          -2.6465   -3.3080   -0.0006 H       1  LIG1        0.0633
      9 H          -5.1322   -3.1419   -0.0009 H       1  LIG1        0.0830
     10 H          -2.5207    0.9790    0.0001 H       1  LIG1        0.0639
     11 C          -6.6732    1.2469   -0.0001 C.ar    1  LIG1        0.0374
     12 C          -5.2746    1.3058   -0.0002 C.ar    1  LIG1        0.0185
     13 C          -4.7119    2.5807   -0.0003 C.ar    1  LIG1       -0.0491
     14 C          -5.5290    3.6979   -0.0002 C.ar    1  LIG1       -0.0350
     15 C          -6.9155    3.5329   -0.0000 C.ar    1  LIG1        0.0724
     16 N          -7.4641    2.3102    0.0000 N.ar    1  LIG1       -0.2543
     17 H          -3.6365    2.7190   -0.0004 H       1  LIG1        0.0625
     18 H          -7.1553    0.2754   -0.0000 H       1  LIG1        0.0836
     19 H          -5.0822    4.6842   -0.0002 H       1  LIG1        0.0639
     20 C          -9.2394    4.4482    0.0005 C.ar    1  LIG1        0.0374
     21 C          -7.8586    4.6771    0.0001 C.ar    1  LIG1        0.0185
     22 C          -7.4554    6.0114   -0.0003 C.ar    1  LIG1       -0.0491
     23 C          -8.4016    7.0212   -0.0001 C.ar    1  LIG1       -0.0350
     24 C          -9.7579    6.6886    0.0003 C.ar    1  LIG1        0.0724
     25 N         -10.1533    5.4083    0.0006 N.ar    1  LIG1       -0.2543
     26 H          -6.4045    6.2788   -0.0006 H       1  LIG1        0.0625
     27 H          -9.5992    3.4249    0.0008 H       1  LIG1        0.0836
     28 H          -8.0781    8.0541   -0.0004 H       1  LIG1        0.0639
     29 C         -10.5904    9.0816    0.0002 C.ar    1  LIG1        0.0367
     30 C         -10.8395    7.7068    0.0005 C.ar    1  LIG1        0.0184
     31 C         -12.1771    7.3064    0.0010 C.ar    1  LIG1       -0.0497
     32 C         -13.1731    8.2680    0.0012 C.ar    1  LIG1       -0.0430
     33 C         -12.8053    9.6082    0.0008 C.ar    1  LIG1        0.0276
     34 N         -11.5372   10.0167    0.0003 N.ar    1  LIG1       -0.2626
     35 H         -12.4024    6.2468    0.0013 H       1  LIG1        0.0625
     36 H         -13.5617   10.3897    0.0010 H       1  LIG1        0.0829
     37 H          -9.5721    9.4609   -0.0002 H       1  LIG1        0.0836
     38 H         -14.2206    7.9874    0.0016 H       1  LIG1        0.0633
@<TRIPOS>BOND
     1     9     1    1
     2     1     6   ar
     3     1     2   ar
     4    26    22    1
     5     8     2    1
     6     6     5   ar
     7     2     3   ar
     8    28    23    1
     9    17    13    1
    10     5    12    1
    11     5     4   ar
    12    13    12   ar
    13    13    14   ar
    14    22    23   ar
    15    22    21   ar
    16    37    29    1
    17     3     4   ar
    18     3     7    1
    19    12    11   ar
    20    19    14    1
    21    14    15   ar
    22     4    10    1
    23    23    24   ar
    24    11    18    1
    25    11    16   ar
    26    15    16   ar
    27    15    21    1
    28    21    20   ar
    29    29    34   ar
    30    29    30   ar
    31    24    30    1
    32    24    25   ar
    33    34    33   ar
    34    20    25   ar
    35    20    27    1
    36    30    31   ar
    37    33    36    1
    38    33    32   ar
    39    31    32   ar
    40    31    35    1
    41    32    38    1
