@<TRIPOS>MOLECULE
mol_data/opt/cam/geoms/mol2/6aa6aa.out
 20 21 0 0 0
SMALL
GASTEIGER

@<TRIPOS>ATOM
      1 C          -4.5277   -2.0840   -0.0001 C.ar    1  LIG1        0.0283
      2 C          -3.1389   -2.1210   -0.0001 C.ar    1  LIG1       -0.0436
      3 C          -2.4612   -0.9103   -0.0001 C.ar    1  LIG1       -0.0583
      4 C          -3.1884    0.2699   -0.0002 C.ar    1  LIG1       -0.0356
      5 C          -4.5851    0.2124   -0.0002 C.ar    1  LIG1        0.0724
      6 N          -5.2341   -0.9592   -0.0001 N.ar    1  LIG1       -0.2549
      7 H          -1.3763   -0.8819   -0.0001 H       1  LIG1        0.0619
      8 H          -2.6120   -3.0682   -0.0000 H       1  LIG1        0.0633
      9 H          -5.1025   -3.0075   -0.0000 H       1  LIG1        0.0830
     10 H          -2.6692    1.2200   -0.0002 H       1  LIG1        0.0639
     11 C          -6.8296    1.3114   -0.0000 C.ar    1  LIG1        0.0367
     12 C          -5.4347    1.4333   -0.0003 C.ar    1  LIG1        0.0184
     13 C          -4.9153    2.7274   -0.0006 C.ar    1  LIG1       -0.0497
     14 C          -5.7812    3.8101   -0.0006 C.ar    1  LIG1       -0.0430
     15 C          -7.1481    3.5672   -0.0004 C.ar    1  LIG1        0.0276
     16 N          -7.6715    2.3413   -0.0001 N.ar    1  LIG1       -0.2626
     17 H          -3.8452    2.9027   -0.0008 H       1  LIG1        0.0625
     18 H          -7.8555    4.3934   -0.0004 H       1  LIG1        0.0829
     19 H          -7.2659    0.3185    0.0002 H       1  LIG1        0.0836
     20 H          -5.4037    4.8265   -0.0009 H       1  LIG1        0.0633
@<TRIPOS>BOND
     1    20    14    1
     2    17    13    1
     3    14    13   ar
     4    14    15   ar
     5    13    12   ar
     6    18    15    1
     7    15    16   ar
     8    12     5    1
     9    12    11   ar
    10    10     4    1
    11     5     4   ar
    12     5     6   ar
    13     4     3   ar
    14     6     1   ar
    15     3     7    1
    16     3     2   ar
    17     1     2   ar
    18     1     9    1
    19    16    11   ar
    20     2     8    1
    21    11    19    1
