@<TRIPOS>MOLECULE
mol_data/opt/cam/geoms/mol2/6aa6aa6aa6aa.out
 38 41 0 0 0
SMALL
GASTEIGER

@<TRIPOS>ATOM
      1 C          -4.5124   -2.2497   -0.0007 C.ar    1  LIG1        0.0283
      2 C          -3.1262   -2.3440   -0.0006 C.ar    1  LIG1       -0.0436
      3 C          -2.3985   -1.1628   -0.0003 C.ar    1  LIG1       -0.0583
      4 C          -3.0754    0.0470   -0.0002 C.ar    1  LIG1       -0.0356
      5 C          -4.4733    0.0468   -0.0003 C.ar    1  LIG1        0.0724
      6 N          -5.1712   -1.0964   -0.0006 N.ar    1  LIG1       -0.2549
      7 H          -1.3134   -1.1801   -0.0002 H       1  LIG1        0.0619
      8 H          -2.6391   -3.3122   -0.0007 H       1  LIG1        0.0633
      9 H          -5.1250   -3.1484   -0.0008 H       1  LIG1        0.0830
     10 H          -2.5173    0.9749    0.0000 H       1  LIG1        0.0639
     11 C          -6.6702    1.2385   -0.0001 C.ar    1  LIG1        0.0374
     12 C          -5.2716    1.2989   -0.0002 C.ar    1  LIG1        0.0185
     13 C          -4.7104    2.5745   -0.0002 C.ar    1  LIG1       -0.0491
     14 C          -5.5287    3.6908   -0.0001 C.ar    1  LIG1       -0.0350
     15 C          -6.9150    3.5243    0.0000 C.ar    1  LIG1        0.0724
     16 N          -7.4622    2.3009    0.0000 N.ar    1  LIG1       -0.2543
     17 H          -3.6351    2.7139   -0.0004 H       1  LIG1        0.0625
     18 H          -7.1514    0.2665   -0.0001 H       1  LIG1        0.0836
     19 H          -5.0829    4.6776   -0.0001 H       1  LIG1        0.0639
     20 C          -9.2405    4.4364    0.0005 C.ar    1  LIG1        0.0374
     21 C          -7.8597    4.6671    0.0001 C.ar    1  LIG1        0.0185
     22 C          -7.4583    6.0018   -0.0001 C.ar    1  LIG1       -0.0491
     23 C          -8.4066    7.0098    0.0000 C.ar    1  LIG1       -0.0350
     24 C          -9.7626    6.6758    0.0004 C.ar    1  LIG1        0.0724
     25 N         -10.1558    5.3948    0.0007 N.ar    1  LIG1       -0.2543
     26 H          -6.4077    6.2706   -0.0005 H       1  LIG1        0.0625
     27 H          -9.5992    3.4127    0.0008 H       1  LIG1        0.0836
     28 H          -8.0840    8.0432   -0.0002 H       1  LIG1        0.0639
     29 C         -12.1822    7.2933    0.0014 C.ar    1  LIG1        0.0367
     30 C         -10.8410    7.6970    0.0006 C.ar    1  LIG1        0.0184
     31 C         -10.5957    9.0699   -0.0000 C.ar    1  LIG1       -0.0497
     32 C         -11.6640    9.9534    0.0002 C.ar    1  LIG1       -0.0430
     33 C         -12.9528    9.4371    0.0011 C.ar    1  LIG1        0.0276
     34 N         -13.2160    8.1304    0.0016 N.ar    1  LIG1       -0.2626
     35 H          -9.5835    9.4588   -0.0007 H       1  LIG1        0.0625
     36 H         -13.8134   10.1022    0.0013 H       1  LIG1        0.0829
     37 H         -12.4061    6.2321    0.0019 H       1  LIG1        0.0836
     38 H         -11.5016   11.0255   -0.0003 H       1  LIG1        0.0633
@<TRIPOS>BOND
     1     9     1    1
     2    35    31    1
     3     8     2    1
     4     1     2   ar
     5     1     6   ar
     6     2     3   ar
     7     6     5   ar
     8    26    22    1
     9    17    13    1
    10     5    12    1
    11     5     4   ar
    12     3     7    1
    13     3     4   ar
    14    38    32    1
    15    13    12   ar
    16    13    14   ar
    17    12    11   ar
    18     4    10    1
    19    28    23    1
    20    19    14    1
    21    22    23   ar
    22    22    21   ar
    23    14    15   ar
    24    11    18    1
    25    11    16   ar
    26    31    32   ar
    27    31    30   ar
    28    15    16   ar
    29    15    21    1
    30    23    24   ar
    31    21    20   ar
    32    32    33   ar
    33    24    30    1
    34    24    25   ar
    35    20    25   ar
    36    20    27    1
    37    30    29   ar
    38    33    36    1
    39    33    34   ar
    40    29    34   ar
    41    29    37    1
