@<TRIPOS>MOLECULE
mol_data/opt/cam/geoms/mol2/6aa6aa-4aa6aa.out
 39 42 0 0 0
SMALL
GASTEIGER

@<TRIPOS>ATOM
      1 C          -4.3605   -2.2265    0.3505 C.ar    1  LIG1        0.0283
      2 C          -3.0045   -2.2744    0.0516 C.ar    1  LIG1       -0.0436
      3 C          -2.3741   -1.0866   -0.2918 C.ar    1  LIG1       -0.0583
      4 C          -3.1129    0.0861   -0.3137 C.ar    1  LIG1       -0.0356
      5 C          -4.4693    0.0418    0.0218 C.ar    1  LIG1        0.0724
      6 N          -5.0784   -1.1079    0.3399 N.ar    1  LIG1       -0.2549
      7 H          -1.3198   -1.0725   -0.5486 H       1  LIG1        0.0619
      8 H          -2.4670   -3.2152    0.0804 H       1  LIG1        0.0633
      9 H          -4.8975   -3.1350    0.6139 H       1  LIG1        0.0830
     10 H          -2.6463    1.0190   -0.6055 H       1  LIG1        0.0639
     11 C          -4.7962    2.5471    0.1015 C.ar    1  LIG1        0.0374
     12 C          -5.3205    1.2557    0.0308 C.ar    1  LIG1        0.0185
     13 C          -6.7111    1.1494   -0.0045 C.ar    1  LIG1       -0.0491
     14 C          -7.4855    2.2940   -0.0033 C.ar    1  LIG1       -0.0351
     15 C          -6.8623    3.5458    0.0297 C.ar    1  LIG1        0.0710
     16 N          -5.5293    3.6532    0.0977 N.ar    1  LIG1       -0.2543
     17 H          -7.1597    0.1632   -0.0222 H       1  LIG1        0.0625
     18 H          -3.7231    2.7023    0.1840 H       1  LIG1        0.0836
     19 H          -8.5657    2.2154   -0.0091 H       1  LIG1        0.0639
     20 C          -7.0213    5.9991    0.4411 C.ar    1  LIG1       -0.0520
     21 C          -7.7193    7.1948    0.4473 C.ar    1  LIG1       -0.0534
     22 C          -7.6306    4.8158    0.0152 C.ar    1  LIG1        0.0004
     23 C          -9.0491    7.2566    0.0196 C.ar    1  LIG1       -0.0164
     24 H          -7.2329    8.0936    0.8130 H       1  LIG1        0.0624
     25 C          -8.9561    4.8768   -0.4207 C.ar    1  LIG1       -0.0520
     26 C          -9.6527    6.0755   -0.4192 C.ar    1  LIG1       -0.0534
     27 H          -9.4491    3.9875   -0.7975 H       1  LIG1        0.0624
     28 H          -5.9911    5.9573    0.7731 H       1  LIG1        0.0624
     29 H         -10.6711    6.1007   -0.7927 H       1  LIG1        0.0624
     30 C         -11.1437    8.5866    0.3873 C.ar    1  LIG1        0.0352
     31 C          -9.7934    8.5358    0.0260 C.ar    1  LIG1        0.0002
     32 C          -9.1887    9.7451   -0.3195 C.ar    1  LIG1       -0.0512
     33 C          -9.9363   10.9122   -0.2948 C.ar    1  LIG1       -0.0430
     34 C         -11.2744   10.8371    0.0713 C.ar    1  LIG1        0.0276
     35 N         -11.8754    9.6970    0.4102 N.ar    1  LIG1       -0.2627
     36 H          -8.1472    9.7636   -0.6242 H       1  LIG1        0.0625
     37 H         -11.8917   11.7321    0.0940 H       1  LIG1        0.0829
     38 H         -11.6517    7.6744    0.6923 H       1  LIG1        0.0836
     39 H          -9.4948   11.8652   -0.5645 H       1  LIG1        0.0633
@<TRIPOS>BOND
     1    27    25    1
     2    29    26    1
     3    36    32    1
     4    10     4    1
     5    39    33    1
     6     7     3    1
     7    25    26   ar
     8    25    22   ar
     9    26    23   ar
    10    32    33   ar
    11    32    31   ar
    12     4     3   ar
    13     4     5   ar
    14    33    34   ar
    15     3     2   ar
    16    17    13    1
    17    19    14    1
    18    13    14   ar
    19    13    12   ar
    20    14    15   ar
    21    22    15    1
    22    22    20   ar
    23    23    31    1
    24    23    21   ar
    25     5    12    1
    26     5     6   ar
    27    31    30   ar
    28    15    16   ar
    29    12    11   ar
    30     2     8    1
    31     2     1   ar
    32    34    37    1
    33    34    35   ar
    34    16    11   ar
    35    11    18    1
    36     6     1   ar
    37     1     9    1
    38    30    35   ar
    39    30    38    1
    40    20    21   ar
    41    20    28    1
    42    21    24    1
