@<TRIPOS>MOLECULE
mol_data/opt/cam/geoms/mol2/6aa6aa6aa.out
 29 31 0 0 0
SMALL
GASTEIGER

@<TRIPOS>ATOM
      1 C          -4.5073   -2.1634   -0.0004 C.ar    1  LIG1        0.0283
      2 C          -3.1194   -2.2273   -0.0003 C.ar    1  LIG1       -0.0436
      3 C          -2.4178   -1.0302   -0.0001 C.ar    1  LIG1       -0.0583
      4 C          -3.1213    0.1642   -0.0001 C.ar    1  LIG1       -0.0356
      5 C          -4.5189    0.1334   -0.0002 C.ar    1  LIG1        0.0724
      6 N          -5.1915   -1.0250   -0.0004 N.ar    1  LIG1       -0.2549
      7 H          -1.3326   -1.0236   -0.0000 H       1  LIG1        0.0619
      8 H          -2.6110   -3.1846   -0.0003 H       1  LIG1        0.0633
      9 H          -5.0999   -3.0754   -0.0005 H       1  LIG1        0.0830
     10 H          -2.5839    1.1042    0.0000 H       1  LIG1        0.0639
     11 C          -6.7402    1.2802   -0.0000 C.ar    1  LIG1        0.0374
     12 C          -5.3435    1.3684   -0.0002 C.ar    1  LIG1        0.0185
     13 C          -4.8084    2.6551   -0.0004 C.ar    1  LIG1       -0.0491
     14 C          -5.6491    3.7546   -0.0003 C.ar    1  LIG1       -0.0350
     15 C          -7.0319    3.5609   -0.0002 C.ar    1  LIG1        0.0724
     16 N          -7.5535    2.3267   -0.0000 N.ar    1  LIG1       -0.2543
     17 H          -3.7362    2.8165   -0.0005 H       1  LIG1        0.0625
     18 H          -7.2021    0.2988    0.0001 H       1  LIG1        0.0836
     19 H          -5.2225    4.7496   -0.0004 H       1  LIG1        0.0639
     20 C          -9.3757    4.4231    0.0004 C.ar    1  LIG1        0.0367
     21 C          -8.0002    4.6871   -0.0001 C.ar    1  LIG1        0.0184
     22 C          -7.6153    6.0275   -0.0006 C.ar    1  LIG1       -0.0497
     23 C          -8.5871    7.0160   -0.0005 C.ar    1  LIG1       -0.0430
     24 C          -9.9222    6.6347    0.0001 C.ar    1  LIG1        0.0276
     25 N         -10.3181    5.3619    0.0005 N.ar    1  LIG1       -0.2626
     26 H          -6.5684    6.3104   -0.0010 H       1  LIG1        0.0625
     27 H         -10.7100    7.3846    0.0001 H       1  LIG1        0.0829
     28 H          -9.7077    3.3906    0.0008 H       1  LIG1        0.0836
     29 H          -8.3156    8.0658   -0.0008 H       1  LIG1        0.0633
@<TRIPOS>BOND
     1    26    22    1
     2    29    23    1
     3    22    23   ar
     4    22    21   ar
     5    17    13    1
     6    23    24   ar
     7     9     1    1
     8    19    14    1
     9     1     6   ar
    10     1     2   ar
    11    13    14   ar
    12    13    12   ar
    13     6     5   ar
    14    14    15   ar
    15     8     2    1
    16     2     3   ar
    17     5    12    1
    18     5     4   ar
    19    12    11   ar
    20    15    21    1
    21    15    16   ar
    22     3     4   ar
    23     3     7    1
    24    21    20   ar
    25     4    10    1
    26    11    16   ar
    27    11    18    1
    28    24    27    1
    29    24    25   ar
    30    20    25   ar
    31    20    28    1
