@<TRIPOS>MOLECULE
mol_data/opt/cam/geoms/mol2/6aa6aa6aa-6aa.out
 38 41 0 0 0
SMALL
GASTEIGER

@<TRIPOS>ATOM
      1 C          -4.4767   -2.2421   -0.0006 C.ar    1  LIG1        0.0283
      2 C          -3.0896   -2.3217   -0.0006 C.ar    1  LIG1       -0.0436
      3 C          -2.3743   -1.1327   -0.0004 C.ar    1  LIG1       -0.0583
      4 C          -3.0641    0.0697   -0.0003 C.ar    1  LIG1       -0.0356
      5 C          -4.4619    0.0546   -0.0003 C.ar    1  LIG1        0.0724
      6 N          -5.1479   -1.0960   -0.0005 N.ar    1  LIG1       -0.2549
      7 H          -1.2892   -1.1385   -0.0003 H       1  LIG1        0.0619
      8 H          -2.5921   -3.2847   -0.0006 H       1  LIG1        0.0633
      9 H          -5.0795   -3.1474   -0.0007 H       1  LIG1        0.0830
     10 H          -2.5160    1.0035   -0.0001 H       1  LIG1        0.0639
     11 C          -6.6701    1.2256    0.0000 C.ar    1  LIG1        0.0374
     12 C          -5.2725    1.2988   -0.0002 C.ar    1  LIG1        0.0185
     13 C          -4.7231    2.5796   -0.0004 C.ar    1  LIG1       -0.0491
     14 C          -5.5508    3.6889   -0.0002 C.ar    1  LIG1       -0.0350
     15 C          -6.9356    3.5094    0.0000 C.ar    1  LIG1        0.0724
     16 N          -7.4717    2.2813    0.0001 N.ar    1  LIG1       -0.2543
     17 H          -3.6492    2.7291   -0.0006 H       1  LIG1        0.0625
     18 H          -7.1422    0.2491    0.0001 H       1  LIG1        0.0836
     19 H          -5.1140    4.6794   -0.0004 H       1  LIG1        0.0639
     20 C          -7.5025    5.9797    0.0001 C.ar    1  LIG1        0.0374
     21 C          -7.8953    4.6399    0.0002 C.ar    1  LIG1        0.0185
     22 C          -9.2702    4.3993    0.0004 C.ar    1  LIG1       -0.0491
     23 C         -10.1557    5.4602    0.0005 C.ar    1  LIG1       -0.0350
     24 C          -9.6612    6.7679    0.0004 C.ar    1  LIG1        0.0724
     25 N          -8.3434    7.0052    0.0002 N.ar    1  LIG1       -0.2543
     26 H          -9.6181    3.3734    0.0004 H       1  LIG1        0.0625
     27 H          -6.4501    6.2508   -0.0001 H       1  LIG1        0.0836
     28 H         -11.2205    5.2656    0.0007 H       1  LIG1        0.0639
     29 C         -11.9355    7.8828    0.0007 C.ar    1  LIG1        0.0367
     30 C         -10.5406    7.9651    0.0005 C.ar    1  LIG1        0.0184
     31 C          -9.9829    9.2451    0.0005 C.ar    1  LIG1       -0.0497
     32 C         -10.8177   10.3494    0.0006 C.ar    1  LIG1       -0.0430
     33 C         -12.1924   10.1452    0.0008 C.ar    1  LIG1        0.0276
     34 N         -12.7499    8.9353    0.0008 N.ar    1  LIG1       -0.2626
     35 H          -8.9041    9.3428    0.0004 H       1  LIG1        0.0625
     36 H         -12.8775   10.9899    0.0009 H       1  LIG1        0.0829
     37 H         -12.4339    6.9173    0.0007 H       1  LIG1        0.0836
     38 H         -10.4135   11.3558    0.0006 H       1  LIG1        0.0633
@<TRIPOS>BOND
     1     9     1    1
     2     8     2    1
     3     1     2   ar
     4     1     6   ar
     5    17    13    1
     6     2     3   ar
     7     6     5   ar
     8     3     7    1
     9     3     4   ar
    10    13    14   ar
    11    13    12   ar
    12    19    14    1
    13     5     4   ar
    14     5    12    1
    15     4    10    1
    16    14    15   ar
    17    12    11   ar
    18    27    20    1
    19    15    16   ar
    20    15    21    1
    21    11    18    1
    22    11    16   ar
    23    20    21   ar
    24    20    25   ar
    25    21    22   ar
    26    25    24   ar
    27    22    26    1
    28    22    23   ar
    29    35    31    1
    30    24    23   ar
    31    24    30    1
    32    23    28    1
    33    31    30   ar
    34    31    32   ar
    35    30    29   ar
    36    38    32    1
    37    32    33   ar
    38    29    37    1
    39    29    34   ar
    40    33    34   ar
    41    33    36    1
