@<TRIPOS>MOLECULE
mol_data/opt/cam/geoms/mol2/6aa6fh-13ah12fe-.out
 43 46 0 0 0
SMALL
GASTEIGER

@<TRIPOS>ATOM
      1 C          -4.5447   -2.2259    0.0153 C.ar    1  LIG1        0.0283
      2 C          -3.1635   -2.2942    0.0489 C.ar    1  LIG1       -0.0436
      3 C          -2.4598   -1.0934    0.0616 C.ar    1  LIG1       -0.0583
      4 C          -3.1498    0.1034    0.0322 C.ar    1  LIG1       -0.0355
      5 C          -4.5526    0.0950   -0.0196 C.ar    1  LIG1        0.0761
      6 N          -5.2164   -1.0761   -0.0192 N.ar    1  LIG1       -0.2548
      7 H          -1.3753   -1.0919    0.1020 H       1  LIG1        0.0619
      8 H          -2.6579   -3.2520    0.0733 H       1  LIG1        0.0633
      9 H          -5.1492   -3.1288    0.0163 H       1  LIG1        0.0830
     10 H          -2.6047    1.0373    0.0657 H       1  LIG1        0.0639
     11 C          -6.7775    1.3034    0.0507 C.ar    1  LIG1        0.2224
     12 C          -5.3622    1.3251   -0.0646 C.ar    1  LIG1        0.0634
     13 C          -4.7799    2.5836   -0.2370 C.ar    1  LIG1       -0.0246
     14 C          -5.5265    3.7495   -0.2405 C.ar    1  LIG1        0.0532
     15 C          -6.9144    3.6131   -0.0352 C.ar    1  LIG1        0.1115
     16 N          -7.4953    2.4134    0.0717 N.ar    1  LIG1       -0.2091
     17 H          -3.7093    2.6662   -0.3948 H       1  LIG1        0.0645
     18 O          -7.4744    0.1715    0.1504 O.3     1  LIG1       -0.4919
     19 H          -6.8206   -0.5731    0.0866 H       1  LIG1        0.2937
     20 N          -4.9294    5.0073   -0.4126 N.pl3   1  LIG1       -0.3563
     21 H          -3.9972    4.9491   -0.8007 H       1  LIG1        0.1424
     22 H          -5.5003    5.6388   -0.9611 H       1  LIG1        0.1424
     23 C          -7.8305    4.7435    0.0336 C.ar    1  LIG1        0.0692
     24 C          -7.6718    6.1170    0.1915 C.ar    1  LIG1       -0.0134
     25 C          -8.9599    6.6984    0.2355 C.ar    1  LIG1        0.0540
     26 C          -9.8785    5.6607    0.0881 C.ar    1  LIG1        0.1072
     27 N          -9.1653    4.4931   -0.0277 N.ar    1  LIG1       -0.3489
     28 H          -9.5313    3.5537   -0.0811 H       1  LIG1        0.1661
     29 H          -6.7425    6.6384    0.3597 H       1  LIG1        0.0658
     30 N          -9.2396    8.0429    0.4772 N.pl3   1  LIG1       -0.3562
     31 H          -8.5196    8.6642    0.1371 H       1  LIG1        0.1424
     32 H         -10.1576    8.3374    0.1676 H       1  LIG1        0.1424
     33 C         -11.3161    5.6556    0.0519 C.ar    1  LIG1        0.1951
     34 C         -12.2828    6.5957   -0.1460 C.ar    1  LIG1        0.1799
     35 C         -13.5542    5.9365   -0.0460 C.ar    1  LIG1        0.1045
     36 C         -13.2673    4.6257    0.1899 C.ar    1  LIG1        0.1117
     37 O         -11.9351    4.4435    0.2523 O.2     1  LIG1       -0.4563
     38 H         -13.8868    3.7548    0.3276 H       1  LIG1        0.1043
     39 O         -12.0870    7.9132   -0.4219 O.3     1  LIG1       -0.5024
     40 H         -12.9469    8.3551   -0.4157 H       1  LIG1        0.2923
     41 C         -14.8076    6.5863   -0.1882 C.1     1  LIG1       -0.0628
     42 C         -15.8316    7.2080   -0.3173 C.1     1  LIG1       -0.1137
     43 H         -16.7532    7.7316   -0.4291 H       1  LIG1        0.1232
@<TRIPOS>BOND
     1    22    20    1
     2    21    20    1
     3    43    42    1
     4    39    40    1
     5    39    34    1
     6    20    14    1
     7    17    13    1
     8    42    41    3
     9    14    13   ar
    10    14    15   ar
    11    13    12   ar
    12    41    35    1
    13    34    35   ar
    14    34    33   ar
    15    28    27    1
    16    12     5    1
    17    12    11   ar
    18    35    36   ar
    19    15    23    1
    20    15    16   ar
    21    27    23   ar
    22    27    26   ar
    23     5     6   ar
    24     5     4   ar
    25     6     1   ar
    26     1     9    1
    27     1     2   ar
    28     4     3   ar
    29     4    10    1
    30    23    24   ar
    31     2     3   ar
    32     2     8    1
    33    11    16   ar
    34    11    18    1
    35    33    26    1
    36    33    37   ar
    37     3     7    1
    38    19    18    1
    39    26    25   ar
    40    31    30    1
    41    32    30    1
    42    36    37   ar
    43    36    38    1
    44    24    25   ar
    45    24    29    1
    46    25    30    1
