@<TRIPOS>MOLECULE
mol_data/opt/cam/geoms/mol2/6aa6aa-6aa-6aa-.out
 38 41 0 0 0
SMALL
GASTEIGER

@<TRIPOS>ATOM
      1 C          -4.3891   -2.2400   -0.0003 C.ar    1  LIG1        0.0283
      2 C          -3.0003   -2.2737   -0.0005 C.ar    1  LIG1       -0.0436
      3 C          -2.3248   -1.0616   -0.0007 C.ar    1  LIG1       -0.0583
      4 C          -3.0533    0.1178   -0.0006 C.ar    1  LIG1       -0.0356
      5 C          -4.4499    0.0562   -0.0003 C.ar    1  LIG1        0.0724
      6 N          -5.0977   -1.1163   -0.0002 N.ar    1  LIG1       -0.2549
      7 H          -1.2401   -1.0314   -0.0008 H       1  LIG1        0.0619
      8 H          -2.4713   -3.2197   -0.0006 H       1  LIG1        0.0633
      9 H          -4.9616   -3.1649   -0.0002 H       1  LIG1        0.0830
     10 H          -2.5364    1.0690   -0.0007 H       1  LIG1        0.0639
     11 C          -4.7965    2.5694   -0.0002 C.ar    1  LIG1        0.0374
     12 C          -5.3064    1.2695   -0.0002 C.ar    1  LIG1        0.0185
     13 C          -6.6968    1.1515   -0.0000 C.ar    1  LIG1       -0.0491
     14 C          -7.4848    2.2868    0.0001 C.ar    1  LIG1       -0.0350
     15 C          -6.8766    3.5454    0.0000 C.ar    1  LIG1        0.0724
     16 N          -5.5430    3.6654   -0.0001 N.ar    1  LIG1       -0.2543
     17 H          -7.1343    0.1606   -0.0000 H       1  LIG1        0.0625
     18 H          -3.7246    2.7472   -0.0003 H       1  LIG1        0.0836
     19 H          -8.5631    2.1869    0.0002 H       1  LIG1        0.0639
     20 C          -6.9858    6.0422    0.0004 C.ar    1  LIG1        0.0374
     21 C          -7.6505    4.8103    0.0002 C.ar    1  LIG1        0.0185
     22 C          -9.0433    4.8623   -0.0000 C.ar    1  LIG1       -0.0491
     23 C          -9.6900    6.0858    0.0001 C.ar    1  LIG1       -0.0350
     24 C          -8.9355    7.2608    0.0004 C.ar    1  LIG1        0.0724
     25 N          -7.5962    7.2185    0.0006 N.ar    1  LIG1       -0.2543
     26 H          -9.6372    3.9551   -0.0002 H       1  LIG1        0.0625
     27 H          -5.9012    6.0511    0.0006 H       1  LIG1        0.0836
     28 H         -10.7723    6.1146    0.0000 H       1  LIG1        0.0639
     29 C          -8.7379    9.7503    0.0013 C.ar    1  LIG1        0.0367
     30 C          -9.5533    8.6115    0.0006 C.ar    1  LIG1        0.0184
     31 C         -10.9318    8.8229    0.0000 C.ar    1  LIG1       -0.0497
     32 C         -11.4227   10.1194    0.0002 C.ar    1  LIG1       -0.0430
     33 C         -10.5177   11.1723    0.0010 C.ar    1  LIG1        0.0276
     34 N          -9.1960   10.9991    0.0015 N.ar    1  LIG1       -0.2626
     35 H         -11.6269    7.9907   -0.0006 H       1  LIG1        0.0625
     36 H         -10.8690   12.2016    0.0012 H       1  LIG1        0.0829
     37 H          -7.6613    9.6194    0.0017 H       1  LIG1        0.0836
     38 H         -12.4897   10.3121   -0.0002 H       1  LIG1        0.0633
@<TRIPOS>BOND
     1     7     3    1
     2     3     4   ar
     3     3     2   ar
     4    10     4    1
     5     8     2    1
     6    35    31    1
     7     4     5   ar
     8     2     1   ar
     9     5     6   ar
    10     5    12    1
    11     1     9    1
    12     1     6   ar
    13    18    11    1
    14    26    22    1
    15    11    12   ar
    16    11    16   ar
    17    12    13   ar
    18    38    32    1
    19    16    15   ar
    20    13    17    1
    21    13    14   ar
    22    22    23   ar
    23    22    21   ar
    24    31    32   ar
    25    31    30   ar
    26    28    23    1
    27    15    14   ar
    28    15    21    1
    29    14    19    1
    30    23    24   ar
    31    21    20   ar
    32    32    33   ar
    33    24    25   ar
    34    24    30    1
    35    20    25   ar
    36    20    27    1
    37    30    29   ar
    38    33    36    1
    39    33    34   ar
    40    29    34   ar
    41    29    37    1
