@<TRIPOS>MOLECULE
mol_data/opt/cam/geoms/mol2/6aa6aa-6aa.out
 29 31 0 0 0
SMALL
GASTEIGER

@<TRIPOS>ATOM
      1 C          -4.4712   -2.1581   -0.0002 C.ar    1  LIG1        0.0283
      2 C          -3.0827   -2.2011   -0.0002 C.ar    1  LIG1       -0.0436
      3 C          -2.3991   -0.9935   -0.0003 C.ar    1  LIG1       -0.0583
      4 C          -3.1199    0.1906   -0.0003 C.ar    1  LIG1       -0.0356
      5 C          -4.5169    0.1385   -0.0002 C.ar    1  LIG1        0.0724
      6 N          -5.1723   -1.0297   -0.0002 N.ar    1  LIG1       -0.2549
      7 H          -1.3142   -0.9705   -0.0003 H       1  LIG1        0.0619
      8 H          -2.5601   -3.1507   -0.0002 H       1  LIG1        0.0633
      9 H          -5.0500   -3.0791   -0.0002 H       1  LIG1        0.0830
     10 H          -2.5969    1.1385   -0.0003 H       1  LIG1        0.0639
     11 C          -4.8469    2.6536   -0.0002 C.ar    1  LIG1        0.0374
     12 C          -5.3654    1.3575   -0.0002 C.ar    1  LIG1        0.0185
     13 C          -6.7567    1.2495   -0.0002 C.ar    1  LIG1       -0.0491
     14 C          -7.5373    2.3898   -0.0002 C.ar    1  LIG1       -0.0350
     15 C          -6.9208    3.6444   -0.0002 C.ar    1  LIG1        0.0724
     16 N          -5.5864    3.7548   -0.0002 N.ar    1  LIG1       -0.2543
     17 H          -7.2017    0.2619   -0.0002 H       1  LIG1        0.0625
     18 H          -3.7736    2.8240   -0.0002 H       1  LIG1        0.0836
     19 H          -8.6159    2.2971   -0.0002 H       1  LIG1        0.0639
     20 C          -9.0782    4.9714   -0.0001 C.ar    1  LIG1        0.0367
     21 C          -7.6817    4.9201   -0.0001 C.ar    1  LIG1        0.0184
     22 C          -7.0043    6.1410   -0.0002 C.ar    1  LIG1       -0.0497
     23 C          -7.7300    7.3200   -0.0001 C.ar    1  LIG1       -0.0430
     24 C          -9.1178    7.2480   -0.0001 C.ar    1  LIG1        0.0276
     25 N          -9.7883    6.0969   -0.0001 N.ar    1  LIG1       -0.2626
     26 H          -5.9211    6.1354   -0.0002 H       1  LIG1        0.0625
     27 H          -9.7191    8.1543   -0.0001 H       1  LIG1        0.0829
     28 H          -9.6666    4.0580   -0.0001 H       1  LIG1        0.0836
     29 H          -7.2315    8.2832   -0.0001 H       1  LIG1        0.0633
@<TRIPOS>BOND
     1     7     3    1
     2    10     4    1
     3     3     4   ar
     4     3     2   ar
     5     4     5   ar
     6     8     2    1
     7     2     1   ar
     8     5    12    1
     9     5     6   ar
    10    12    11   ar
    11    12    13   ar
    12     1     6   ar
    13     1     9    1
    14    17    13    1
    15    18    11    1
    16    11    16   ar
    17    13    14   ar
    18    16    15   ar
    19    14    15   ar
    20    14    19    1
    21    26    22    1
    22    15    21    1
    23    22    21   ar
    24    22    23   ar
    25    21    20   ar
    26    29    23    1
    27    23    24   ar
    28    20    28    1
    29    20    25   ar
    30    24    25   ar
    31    24    27    1
