@<TRIPOS>MOLECULE
mol_data/opt/cam/geoms/mol2/6aa6aa-6aa6aa-.out
 38 41 0 0 0
SMALL
GASTEIGER

@<TRIPOS>ATOM
      1 C          -4.4223   -2.2466   -0.0005 C.ar    1  LIG1        0.0283
      2 C          -3.0338   -2.2923   -0.0006 C.ar    1  LIG1       -0.0436
      3 C          -2.3476   -1.0862   -0.0005 C.ar    1  LIG1       -0.0583
      4 C          -3.0659    0.0995   -0.0004 C.ar    1  LIG1       -0.0356
      5 C          -4.4629    0.0501   -0.0003 C.ar    1  LIG1        0.0724
      6 N          -5.1210   -1.1166   -0.0004 N.ar    1  LIG1       -0.2549
      7 H          -1.2626   -1.0655   -0.0006 H       1  LIG1        0.0619
      8 H          -2.5132   -3.2430   -0.0006 H       1  LIG1        0.0633
      9 H          -5.0029   -3.1663   -0.0005 H       1  LIG1        0.0830
     10 H          -2.5408    1.0462   -0.0004 H       1  LIG1        0.0639
     11 C          -4.7879    2.5660   -0.0001 C.ar    1  LIG1        0.0374
     12 C          -5.3091    1.2707   -0.0002 C.ar    1  LIG1        0.0185
     13 C          -6.7006    1.1650   -0.0001 C.ar    1  LIG1       -0.0491
     14 C          -7.4793    2.3067   -0.0000 C.ar    1  LIG1       -0.0350
     15 C          -6.8599    3.5599    0.0000 C.ar    1  LIG1        0.0724
     16 N          -5.5252    3.6685   -0.0000 N.ar    1  LIG1       -0.2543
     17 H          -7.1470    0.1780   -0.0002 H       1  LIG1        0.0625
     18 H          -3.7143    2.7342   -0.0002 H       1  LIG1        0.0836
     19 H          -8.5582    2.2161    0.0000 H       1  LIG1        0.0639
     20 C          -9.0118    4.8980    0.0002 C.ar    1  LIG1        0.0374
     21 C          -7.6168    4.8353    0.0002 C.ar    1  LIG1        0.0185
     22 C          -6.9438    6.0580    0.0002 C.ar    1  LIG1       -0.0491
     23 C          -7.6601    7.2397    0.0003 C.ar    1  LIG1       -0.0350
     24 C          -9.0574    7.1960    0.0004 C.ar    1  LIG1        0.0724
     25 N          -9.7090    6.0262    0.0003 N.ar    1  LIG1       -0.2543
     26 H          -5.8606    6.0555    0.0002 H       1  LIG1        0.0625
     27 H          -9.6093    3.9903    0.0002 H       1  LIG1        0.0836
     28 H          -7.1306    8.1839    0.0004 H       1  LIG1        0.0639
     29 C          -9.3756    9.7089    0.0006 C.ar    1  LIG1        0.0367
     30 C          -9.9052    8.4157    0.0005 C.ar    1  LIG1        0.0184
     31 C         -11.2968    8.3026    0.0006 C.ar    1  LIG1       -0.0497
     32 C         -12.0713    9.4502    0.0007 C.ar    1  LIG1       -0.0430
     33 C         -11.4329   10.6846    0.0007 C.ar    1  LIG1        0.0276
     34 N         -10.1076   10.8202    0.0007 N.ar    1  LIG1       -0.2626
     35 H         -11.7388    7.3136    0.0006 H       1  LIG1        0.0625
     36 H         -12.0102   11.6063    0.0008 H       1  LIG1        0.0829
     37 H          -8.3007    9.8678    0.0005 H       1  LIG1        0.0836
     38 H         -13.1543    9.3936    0.0008 H       1  LIG1        0.0633
@<TRIPOS>BOND
     1     8     2    1
     2     7     3    1
     3     2     3   ar
     4     2     1   ar
     5     3     4   ar
     6     9     1    1
     7     1     6   ar
     8     4    10    1
     9     4     5   ar
    10     6     5   ar
    11     5    12    1
    12    12    13   ar
    13    12    11   ar
    14    17    13    1
    15    18    11    1
    16    13    14   ar
    17    11    16   ar
    18    14    19    1
    19    14    15   ar
    20    16    15   ar
    21    15    21    1
    22    21    22   ar
    23    21    20   ar
    24    26    22    1
    25    27    20    1
    26    22    23   ar
    27    20    25   ar
    28    25    24   ar
    29    23    28    1
    30    23    24   ar
    31    24    30    1
    32    37    29    1
    33    30    29   ar
    34    30    31   ar
    35    29    34   ar
    36    35    31    1
    37    31    32   ar
    38    34    33   ar
    39    32    33   ar
    40    32    38    1
    41    33    36    1
