@<TRIPOS>MOLECULE
mol_data/opt/cam/geoms/mol2/6aa6aa-.out
 20 21 0 0 0
SMALL
GASTEIGER

@<TRIPOS>ATOM
      1 C          -4.5303   -2.0734   -0.0001 C.ar    1  LIG1        0.0283
      2 C          -3.1419   -2.1159   -0.0001 C.ar    1  LIG1       -0.0436
      3 C          -2.4593   -0.9077   -0.0001 C.ar    1  LIG1       -0.0583
      4 C          -3.1808    0.2759   -0.0002 C.ar    1  LIG1       -0.0356
      5 C          -4.5778    0.2236   -0.0002 C.ar    1  LIG1        0.0724
      6 N          -5.2319   -0.9452   -0.0001 N.ar    1  LIG1       -0.2549
      7 H          -1.3743   -0.8838   -0.0001 H       1  LIG1        0.0619
      8 H          -2.6188   -3.0652    0.0000 H       1  LIG1        0.0633
      9 H          -5.1087   -2.9946   -0.0000 H       1  LIG1        0.0830
     10 H          -2.6583    1.2238   -0.0003 H       1  LIG1        0.0639
     11 C          -4.9011    2.7384   -0.0003 C.ar    1  LIG1        0.0367
     12 C          -5.4278    1.4444   -0.0003 C.ar    1  LIG1        0.0184
     13 C          -6.8189    1.3285   -0.0004 C.ar    1  LIG1       -0.0497
     14 C          -7.5958    2.4745   -0.0004 C.ar    1  LIG1       -0.0430
     15 C          -6.9602    3.7103   -0.0004 C.ar    1  LIG1        0.0276
     16 N          -5.6352    3.8484   -0.0004 N.ar    1  LIG1       -0.2626
     17 H          -7.2588    0.3387   -0.0003 H       1  LIG1        0.0625
     18 H          -7.5393    4.6309   -0.0005 H       1  LIG1        0.0829
     19 H          -3.8266    2.9005   -0.0003 H       1  LIG1        0.0836
     20 H          -8.6787    2.4155   -0.0005 H       1  LIG1        0.0633
@<TRIPOS>BOND
     1    18    15    1
     2    20    14    1
     3    15    14   ar
     4    15    16   ar
     5    14    13   ar
     6    16    11   ar
     7    13    17    1
     8    13    12   ar
     9    11    12   ar
    10    11    19    1
    11    12     5    1
    12    10     4    1
    13     5     4   ar
    14     5     6   ar
    15     4     3   ar
    16     6     1   ar
    17     3     7    1
    18     3     2   ar
    19     1     2   ar
    20     1     9    1
    21     2     8    1
