@<TRIPOS>MOLECULE
mol_data/opt/cam/geoms/mol2/6aa6aa6aa-6aa-.out
 38 41 0 0 0
SMALL
GASTEIGER

@<TRIPOS>ATOM
      1 C          -4.4787   -2.2424   -0.0005 C.ar    1  LIG1        0.0283
      2 C          -3.0917   -2.3237   -0.0005 C.ar    1  LIG1       -0.0436
      3 C          -2.3749   -1.1357   -0.0004 C.ar    1  LIG1       -0.0583
      4 C          -3.0632    0.0676   -0.0003 C.ar    1  LIG1       -0.0356
      5 C          -4.4610    0.0543   -0.0003 C.ar    1  LIG1        0.0724
      6 N          -5.1484   -1.0954   -0.0004 N.ar    1  LIG1       -0.2549
      7 H          -1.2897   -1.1428   -0.0004 H       1  LIG1        0.0619
      8 H          -2.5954   -3.2873   -0.0006 H       1  LIG1        0.0633
      9 H          -5.0826   -3.1469   -0.0006 H       1  LIG1        0.0830
     10 H          -2.5139    1.0007   -0.0002 H       1  LIG1        0.0639
     11 C          -6.6676    1.2284    0.0001 C.ar    1  LIG1        0.0374
     12 C          -5.2699    1.2997   -0.0002 C.ar    1  LIG1        0.0185
     13 C          -4.7186    2.5797   -0.0004 C.ar    1  LIG1       -0.0491
     14 C          -5.5447    3.6901   -0.0003 C.ar    1  LIG1       -0.0350
     15 C          -6.9297    3.5125    0.0000 C.ar    1  LIG1        0.0724
     16 N          -7.4677    2.2851    0.0002 N.ar    1  LIG1       -0.2543
     17 H          -3.6446    2.7277   -0.0007 H       1  LIG1        0.0625
     18 H          -7.1409    0.2525    0.0002 H       1  LIG1        0.0836
     19 H          -5.1066    4.6800   -0.0004 H       1  LIG1        0.0639
     20 C          -7.4930    5.9840    0.0001 C.ar    1  LIG1        0.0374
     21 C          -7.8877    4.6445    0.0002 C.ar    1  LIG1        0.0185
     22 C          -9.2628    4.4057    0.0004 C.ar    1  LIG1       -0.0491
     23 C         -10.1460    5.4686    0.0006 C.ar    1  LIG1       -0.0350
     24 C          -9.6501    6.7756    0.0004 C.ar    1  LIG1        0.0724
     25 N          -8.3319    7.0107    0.0002 N.ar    1  LIG1       -0.2543
     26 H          -9.6119    3.3803    0.0005 H       1  LIG1        0.0625
     27 H          -6.4403    6.2538   -0.0001 H       1  LIG1        0.0836
     28 H         -11.2113    5.2749    0.0008 H       1  LIG1        0.0639
     29 C          -9.9719    9.2531    0.0008 C.ar    1  LIG1        0.0367
     30 C         -10.5330    7.9700    0.0005 C.ar    1  LIG1        0.0184
     31 C         -11.9254    7.8907    0.0004 C.ar    1  LIG1       -0.0497
     32 C         -12.6746    9.0570    0.0005 C.ar    1  LIG1       -0.0430
     33 C         -12.0079   10.2749    0.0008 C.ar    1  LIG1        0.0276
     34 N         -10.6790   10.3798    0.0009 N.ar    1  LIG1       -0.2626
     35 H         -12.4320    6.9321    0.0002 H       1  LIG1        0.0625
     36 H         -12.5651   11.2089    0.0009 H       1  LIG1        0.0829
     37 H          -8.8916    9.3494    0.0009 H       1  LIG1        0.0836
     38 H         -13.7584    9.0240    0.0004 H       1  LIG1        0.0633
@<TRIPOS>BOND
     1    17    13    1
     2     9     1    1
     3     8     2    1
     4     1     2   ar
     5     1     6   ar
     6     2     3   ar
     7     6     5   ar
     8    19    14    1
     9     3     7    1
    10     3     4   ar
    11    13    14   ar
    12    13    12   ar
    13     5     4   ar
    14     5    12    1
    15     4    10    1
    16    14    15   ar
    17    12    11   ar
    18    27    20    1
    19    15    21    1
    20    15    16   ar
    21    11    16   ar
    22    11    18    1
    23    20    21   ar
    24    20    25   ar
    25    21    22   ar
    26    35    31    1
    27    25    24   ar
    28    31    32   ar
    29    31    30   ar
    30    24    30    1
    31    24    23   ar
    32    22    26    1
    33    22    23   ar
    34    38    32    1
    35    32    33   ar
    36    30    29   ar
    37    23    28    1
    38    29    37    1
    39    29    34   ar
    40    33    36    1
    41    33    34   ar
