@<TRIPOS>MOLECULE
mol_data/opt/cam/geoms/mol2/6aa6aa-6aa-6aa.out
 38 41 0 0 0
SMALL
GASTEIGER

@<TRIPOS>ATOM
      1 C          -4.3907   -2.2357   -0.0003 C.ar    1  LIG1        0.0283
      2 C          -3.0020   -2.2682   -0.0005 C.ar    1  LIG1       -0.0436
      3 C          -2.3275   -1.0555   -0.0006 C.ar    1  LIG1       -0.0583
      4 C          -3.0568    0.1233   -0.0005 C.ar    1  LIG1       -0.0356
      5 C          -4.4534    0.0605   -0.0003 C.ar    1  LIG1        0.0724
      6 N          -5.1002   -1.1125   -0.0002 N.ar    1  LIG1       -0.2549
      7 H          -1.2427   -1.0245   -0.0008 H       1  LIG1        0.0619
      8 H          -2.4722   -3.2137   -0.0006 H       1  LIG1        0.0633
      9 H          -4.9625   -3.1609   -0.0002 H       1  LIG1        0.0830
     10 H          -2.5407    1.0749   -0.0006 H       1  LIG1        0.0639
     11 C          -4.8025    2.5735   -0.0002 C.ar    1  LIG1        0.0374
     12 C          -5.3111    1.2730   -0.0002 C.ar    1  LIG1        0.0185
     13 C          -6.7014    1.1536   -0.0001 C.ar    1  LIG1       -0.0491
     14 C          -7.4905    2.2881    0.0000 C.ar    1  LIG1       -0.0350
     15 C          -6.8836    3.5473    0.0000 C.ar    1  LIG1        0.0724
     16 N          -5.5500    3.6688   -0.0001 N.ar    1  LIG1       -0.2543
     17 H          -7.1379    0.1623   -0.0000 H       1  LIG1        0.0625
     18 H          -3.7307    2.7522   -0.0003 H       1  LIG1        0.0836
     19 H          -8.5686    2.1872    0.0002 H       1  LIG1        0.0639
     20 C          -6.9963    6.0437    0.0004 C.ar    1  LIG1        0.0374
     21 C          -7.6591    4.8112    0.0001 C.ar    1  LIG1        0.0185
     22 C          -9.0522    4.8613   -0.0001 C.ar    1  LIG1       -0.0491
     23 C          -9.7015    6.0834    0.0000 C.ar    1  LIG1       -0.0350
     24 C          -8.9482    7.2592    0.0003 C.ar    1  LIG1        0.0724
     25 N          -7.6088    7.2192    0.0005 N.ar    1  LIG1       -0.2543
     26 H          -9.6449    3.9534   -0.0004 H       1  LIG1        0.0625
     27 H          -5.9116    6.0539    0.0006 H       1  LIG1        0.0836
     28 H         -10.7835    6.1111   -0.0002 H       1  LIG1        0.0639
     29 C         -10.9439    8.8200    0.0003 C.ar    1  LIG1        0.0367
     30 C          -9.5622    8.6118    0.0005 C.ar    1  LIG1        0.0184
     31 C          -8.7514    9.7485    0.0009 C.ar    1  LIG1       -0.0497
     32 C          -9.3399   11.0016    0.0010 C.ar    1  LIG1       -0.0430
     33 C         -10.7270   11.0864    0.0008 C.ar    1  LIG1        0.0276
     34 N         -11.5230   10.0181    0.0004 N.ar    1  LIG1       -0.2626
     35 H          -7.6759    9.6197    0.0011 H       1  LIG1        0.0625
     36 H         -11.2224   12.0545    0.0009 H       1  LIG1        0.0829
     37 H         -11.6317    7.9788   -0.0001 H       1  LIG1        0.0836
     38 H          -8.7361   11.9025    0.0014 H       1  LIG1        0.0633
@<TRIPOS>BOND
     1     7     3    1
     2    10     4    1
     3     3     4   ar
     4     3     2   ar
     5     8     2    1
     6     4     5   ar
     7     2     1   ar
     8    26    22    1
     9     5     6   ar
    10     5    12    1
    11     1     6   ar
    12     1     9    1
    13    18    11    1
    14    11    12   ar
    15    11    16   ar
    16    12    13   ar
    17    28    23    1
    18    22    23   ar
    19    22    21   ar
    20    16    15   ar
    21    13    17    1
    22    13    14   ar
    23    37    29    1
    24    23    24   ar
    25    15    14   ar
    26    15    21    1
    27    14    19    1
    28    21    20   ar
    29    29    34   ar
    30    29    30   ar
    31    24    30    1
    32    24    25   ar
    33    34    33   ar
    34    20    25   ar
    35    20    27    1
    36    30    31   ar
    37    33    36    1
    38    33    32   ar
    39    31    32   ar
    40    31    35    1
    41    32    38    1
