@<TRIPOS>MOLECULE
mol_data/opt/cam/geoms/mol2/6ad12fl-13ai-6hl.out
 50 53 0 0 0
SMALL
GASTEIGER

@<TRIPOS>ATOM
      1 C          -4.4708   -2.0649    0.9549 C.ar    1  LIG1        0.0285
      2 C          -3.0892   -2.2027    0.8185 C.ar    1  LIG1       -0.0423
      3 C          -2.3761   -1.0927    0.4163 C.ar    1  LIG1       -0.0407
      4 C          -3.0561    0.1070    0.1885 C.ar    1  LIG1        0.0808
      5 C          -4.4506    0.1744    0.4225 C.ar    1  LIG1        0.1270
      6 N          -5.1286   -0.9311    0.7761 N.ar    1  LIG1       -0.2505
      7 H          -1.3052   -1.1379    0.2511 H       1  LIG1        0.0631
      8 H          -2.6041   -3.1535    1.0013 H       1  LIG1        0.0633
      9 H          -5.0783   -2.9237    1.2321 H       1  LIG1        0.0830
     10 N          -1.7846    2.1437   -0.7660 N.1     1  LIG1       -0.1908
     11 C          -2.3395    1.2201   -0.3371 C.1     1  LIG1        0.1014
     12 C          -5.2394    1.3833    0.3043 C.ar    1  LIG1        0.2001
     13 C          -5.0330    2.7449    0.4544 C.ar    1  LIG1        0.2077
     14 C          -6.3116    3.3665    0.3462 C.ar    1  LIG1        0.2098
     15 C          -7.2202    2.3640    0.1447 C.ar    1  LIG1        0.1970
     16 O          -6.5861    1.1723    0.1251 O.2     1  LIG1       -0.4442
     17 O          -3.9365    3.4657    0.7516 O.3     1  LIG1       -0.5008
     18 H          -3.1373    3.1126    0.3284 H       1  LIG1        0.2924
     19 O          -6.6150    4.6798    0.4869 O.3     1  LIG1       -0.4884
     20 C          -5.9088    5.5613   -0.3836 C.3     1  LIG1        0.0791
     21 H          -6.2815    6.5631   -0.1697 H       1  LIG1        0.0660
     22 H          -4.8339    5.5198   -0.1963 H       1  LIG1        0.0660
     23 H          -6.1095    5.3145   -1.4321 H       1  LIG1        0.0660
     24 C          -8.6444    2.3565   -0.0314 C.ar    1  LIG1        0.0866
     25 C          -9.5620    3.3891   -0.0606 C.ar    1  LIG1       -0.0298
     26 C         -10.8407    2.8270   -0.2741 C.ar    1  LIG1       -0.0244
     27 C         -10.6700    1.4487   -0.3693 C.ar    1  LIG1        0.0533
     28 N          -9.3282    1.1896   -0.2265 N.ar    1  LIG1       -0.3514
     29 H          -8.9181    0.2659   -0.2514 H       1  LIG1        0.1660
     30 H          -9.3222    4.4353    0.0577 H       1  LIG1        0.0643
     31 C         -12.1165    3.6034   -0.3987 C.3     1  LIG1       -0.0377
     32 H         -12.6178    3.7387    0.5669 H       1  LIG1        0.0278
     33 H         -12.8253    3.1134   -1.0711 H       1  LIG1        0.0278
     34 H         -11.9170    4.6018   -0.7957 H       1  LIG1        0.0278
     35 C         -11.3346   -0.8190   -1.2426 C.ar    1  LIG1        0.1255
     36 C         -11.6423    0.3664   -0.5439 C.ar    1  LIG1        0.0415
     37 C         -12.9208    0.4637    0.0106 C.ar    1  LIG1       -0.0060
     38 C         -13.8232   -0.5829   -0.1336 C.ar    1  LIG1        0.1389
     39 C         -13.4033   -1.7157   -0.8240 C.ar    1  LIG1        0.0713
     40 N         -12.1969   -1.8239   -1.3666 N.ar    1  LIG1       -0.2364
     41 H         -13.1783    1.3467    0.5791 H       1  LIG1        0.0662
     42 H         -14.0856   -2.5538   -0.9369 H       1  LIG1        0.0868
     43 N         -10.0678   -1.0270   -1.8066 N.pl3   1  LIG1       -0.3426
     44 H         -10.0758   -1.8695   -2.3681 H       1  LIG1        0.1437
     45 H          -9.7148   -0.2340   -2.3291 H       1  LIG1        0.1437
     46 O         -15.0915   -0.6056    0.3602 O.3     1  LIG1       -0.4936
     47 C         -15.5351    0.5221    1.0809 C.3     1  LIG1        0.0789
     48 H         -16.5636    0.3126    1.3739 H       1  LIG1        0.0660
     49 H         -14.9331    0.6900    1.9823 H       1  LIG1        0.0660
     50 H         -15.5155    1.4300    0.4655 H       1  LIG1        0.0660
@<TRIPOS>BOND
     1    44    43    1
     2    45    43    1
     3    43    35    1
     4    23    20    1
     5    40    35   ar
     6    40    39   ar
     7    35    36   ar
     8    33    31    1
     9    42    39    1
    10    39    38   ar
    11    34    31    1
    12    10    11    3
    13    36    27    1
    14    36    37   ar
    15    31    26    1
    16    31    32    1
    17    20    22    1
    18    20    21    1
    19    20    19    1
    20    27    26   ar
    21    27    28   ar
    22    11     4    1
    23    26    25   ar
    24    29    28    1
    25    28    24   ar
    26    38    37   ar
    27    38    46    1
    28    25    24   ar
    29    25    30    1
    30    24    15    1
    31    37    41    1
    32    16    15   ar
    33    16    12   ar
    34    15    14   ar
    35     4     3   ar
    36     4     5   ar
    37     7     3    1
    38    12     5    1
    39    12    13   ar
    40    18    17    1
    41    14    13   ar
    42    14    19    1
    43    46    47    1
    44     3     2   ar
    45     5     6   ar
    46    13    17    1
    47    50    47    1
    48     6     1   ar
    49     2     1   ar
    50     2     8    1
    51     1     9    1
    52    47    48    1
    53    47    49    1
