@<TRIPOS>MOLECULE
mol_data/opt/cam/geoms/mol2/6ad12af6fa4ha.out
 42 45 0 0 0
SMALL
GASTEIGER

@<TRIPOS>ATOM
      1 C          -4.3119   -2.0941   -0.0805 C.ar    1  LIG1        0.0285
      2 C          -2.9212   -2.1163   -0.0460 C.ar    1  LIG1       -0.0423
      3 C          -2.2583   -0.9039   -0.0093 C.ar    1  LIG1       -0.0407
      4 C          -2.9969    0.2803   -0.0069 C.ar    1  LIG1        0.0807
      5 C          -4.4054    0.2025   -0.0470 C.ar    1  LIG1        0.1234
      6 N          -5.0321   -0.9801   -0.0834 N.ar    1  LIG1       -0.2506
      7 H          -1.1756   -0.8543    0.0209 H       1  LIG1        0.0631
      8 H          -2.3810   -3.0551   -0.0477 H       1  LIG1        0.0633
      9 H          -4.8762   -3.0229   -0.1097 H       1  LIG1        0.0830
     10 N          -1.7084    2.5232    0.0714 N.1     1  LIG1       -0.1908
     11 C          -2.2948    1.5263    0.0392 C.1     1  LIG1        0.1014
     12 C          -5.2750    1.3715   -0.0559 C.ar    1  LIG1        0.1587
     13 C          -5.1033    2.7209   -0.1881 C.ar    1  LIG1        0.0280
     14 C          -6.4018    3.2917   -0.1646 C.ar    1  LIG1        0.1634
     15 C          -7.3002    2.2682    0.0002 C.ar    1  LIG1        0.1820
     16 O          -6.6041    1.0971    0.0564 O.2     1  LIG1       -0.4493
     17 H          -4.1782    3.2613   -0.3056 H       1  LIG1        0.0693
     18 O          -6.6387    4.6208   -0.2967 O.3     1  LIG1       -0.5032
     19 H          -7.5228    4.7513   -0.6616 H       1  LIG1        0.2923
     20 C          -9.4903    1.0330   -0.2047 C.ar    1  LIG1        0.2239
     21 C          -8.7466    2.2069    0.0896 C.ar    1  LIG1        0.0822
     22 C          -9.4893    3.3276    0.4598 C.ar    1  LIG1       -0.0438
     23 C         -10.8735    3.2919    0.4696 C.ar    1  LIG1       -0.0347
     24 C         -11.5120    2.1022    0.1040 C.ar    1  LIG1        0.0766
     25 N         -10.8084    1.0048   -0.2048 N.ar    1  LIG1       -0.2124
     26 H          -8.9721    4.2259    0.7838 H       1  LIG1        0.0627
     27 O          -8.9115   -0.1372   -0.5106 O.3     1  LIG1       -0.4919
     28 H          -7.9492   -0.0932   -0.3924 H       1  LIG1        0.2938
     29 H         -11.4478    4.1507    0.7910 H       1  LIG1        0.0639
     30 C         -13.8825    2.9859   -0.2211 C.ar    1  LIG1        0.0338
     31 C         -15.2591    2.7448   -0.1410 C.ar    1  LIG1       -0.0404
     32 C         -12.9885    1.9469    0.1105 C.ar    1  LIG1        0.0211
     33 C         -15.7510    1.5094    0.2415 C.ar    1  LIG1       -0.0600
     34 H         -15.9451    3.5487   -0.3940 H       1  LIG1        0.0636
     35 C         -13.5123    0.6985    0.4628 C.ar    1  LIG1       -0.0508
     36 C         -14.8751    0.4700    0.5389 C.ar    1  LIG1       -0.0610
     37 H         -12.8057   -0.0941    0.6789 H       1  LIG1        0.0625
     38 H         -16.8242    1.3556    0.2956 H       1  LIG1        0.0618
     39 N         -13.4444    4.2549   -0.6100 N.pl3   1  LIG1       -0.3575
     40 H         -12.5612    4.2667   -1.1007 H       1  LIG1        0.1423
     41 H         -14.1469    4.7879   -1.1031 H       1  LIG1        0.1423
     42 H         -15.2510   -0.5051    0.8277 H       1  LIG1        0.0618
@<TRIPOS>BOND
     1    41    39    1
     2    40    39    1
     3    19    18    1
     4    39    30    1
     5    27    28    1
     6    27    20    1
     7    34    31    1
     8    17    13    1
     9    18    14    1
    10    30    31   ar
    11    30    32   ar
    12    25    20   ar
    13    25    24   ar
    14    20    21   ar
    15    13    14   ar
    16    13    12   ar
    17    14    15   ar
    18    31    33   ar
    19     9     1    1
    20     6     1   ar
    21     6     5   ar
    22     1     2   ar
    23    12     5    1
    24    12    16   ar
    25     8     2    1
    26     5     4   ar
    27     2     3   ar
    28     3     4   ar
    29     3     7    1
    30     4    11    1
    31    15    16   ar
    32    15    21    1
    33    11    10    3
    34    21    22   ar
    35    24    32    1
    36    24    23   ar
    37    32    35   ar
    38    33    38    1
    39    33    36   ar
    40    22    23   ar
    41    22    26    1
    42    35    36   ar
    43    35    37    1
    44    23    29    1
    45    36    42    1
