@<TRIPOS>MOLECULE
mol_data/opt/cam/geoms/mol2/6ad6ad.out
 22 23 0 0 0
SMALL
GASTEIGER

@<TRIPOS>ATOM
      1 C          -4.5819   -2.0796   -0.0005 C.ar    1  LIG1        0.0283
      2 C          -3.1963   -2.1848   -0.0003 C.ar    1  LIG1       -0.0423
      3 C          -2.4716   -1.0106   -0.0001 C.ar    1  LIG1       -0.0408
      4 C          -3.1397    0.2192   -0.0000 C.ar    1  LIG1        0.0777
      5 C          -4.5512    0.2344   -0.0002 C.ar    1  LIG1        0.0898
      6 N          -5.2251   -0.9213   -0.0004 N.ar    1  LIG1       -0.2536
      7 H          -1.3874   -1.0193    0.0001 H       1  LIG1        0.0631
      8 H          -2.7084   -3.1518   -0.0004 H       1  LIG1        0.0633
      9 H          -5.2051   -2.9704   -0.0006 H       1  LIG1        0.0830
     10 N          -1.5710    2.2790    0.0006 N.1     1  LIG1       -0.1908
     11 C          -2.3033    1.3832    0.0003 C.1     1  LIG1        0.1013
     12 C          -6.8098    1.2698    0.0004 C.ar    1  LIG1        0.0368
     13 C          -5.4165    1.4512   -0.0002 C.ar    1  LIG1        0.0209
     14 C          -4.9560    2.7658   -0.0008 C.ar    1  LIG1       -0.0322
     15 C          -5.8833    3.8077   -0.0007 C.ar    1  LIG1        0.0704
     16 C          -7.2446    3.5051   -0.0001 C.ar    1  LIG1        0.0449
     17 N          -7.6990    2.2574    0.0005 N.ar    1  LIG1       -0.2613
     18 H          -3.9046    3.0135   -0.0013 H       1  LIG1        0.0638
     19 H          -7.9827    4.3026   -0.0000 H       1  LIG1        0.0842
     20 H          -7.2037    0.2607    0.0008 H       1  LIG1        0.0836
     21 N          -5.1199    6.2830   -0.0018 N.1     1  LIG1       -0.1908
     22 C          -5.4524    5.1756   -0.0013 C.1     1  LIG1        0.1007
@<TRIPOS>BOND
     1    21    22    3
     2    22    15    1
     3    18    14    1
     4    14    15   ar
     5    14    13   ar
     6    15    16   ar
     7     9     1    1
     8     1     6   ar
     9     1     2   ar
    10     6     5   ar
    11     8     2    1
    12     2     3   ar
    13     5    13    1
    14     5     4   ar
    15    13    12   ar
    16     3     4   ar
    17     3     7    1
    18    16    19    1
    19    16    17   ar
    20     4    11    1
    21    11    10    3
    22    12    17   ar
    23    12    20    1
