@<TRIPOS>MOLECULE
mol_data/opt/cam/geoms/mol2/6ad6ad6ad-6ad.out
 42 45 0 0 0
SMALL
GASTEIGER

@<TRIPOS>ATOM
      1 C          -4.6966   -2.2021   -0.0009 C.ar    1  LIG1        0.0283
      2 C          -3.3276   -2.4412   -0.0006 C.ar    1  LIG1       -0.0423
      3 C          -2.4902   -1.3441   -0.0001 C.ar    1  LIG1       -0.0408
      4 C          -3.0351   -0.0553   -0.0000 C.ar    1  LIG1        0.0777
      5 C          -4.4377    0.0959   -0.0004 C.ar    1  LIG1        0.0898
      6 N          -5.2238   -0.9863   -0.0008 N.ar    1  LIG1       -0.2536
      7 H          -1.4122   -1.4597    0.0001 H       1  LIG1        0.0631
      8 H          -2.9369   -3.4514   -0.0007 H       1  LIG1        0.0633
      9 H          -5.4033   -3.0281   -0.0012 H       1  LIG1        0.0830
     10 N          -1.2914    1.8586    0.0011 N.1     1  LIG1       -0.1908
     11 C          -2.0959    1.0273    0.0006 C.1     1  LIG1        0.1013
     12 C          -6.5829    1.3536    0.0002 C.ar    1  LIG1        0.0375
     13 C          -5.1794    1.3891   -0.0003 C.ar    1  LIG1        0.0209
     14 C          -4.6114    2.6558   -0.0008 C.ar    1  LIG1       -0.0316
     15 C          -5.4207    3.7973   -0.0007 C.ar    1  LIG1        0.0783
     16 C          -6.8204    3.6552   -0.0001 C.ar    1  LIG1        0.0898
     17 N          -7.3523    2.4263    0.0003 N.ar    1  LIG1       -0.2530
     18 H          -3.5415    2.8067   -0.0013 H       1  LIG1        0.0638
     19 H          -7.0849    0.3934    0.0005 H       1  LIG1        0.0836
     20 N          -4.1205    6.0371   -0.0019 N.1     1  LIG1       -0.1908
     21 C          -4.7286    5.0531   -0.0013 C.1     1  LIG1        0.1013
     22 C          -7.5439    6.1259    0.0001 C.ar    1  LIG1        0.0375
     23 C          -7.8241    4.7551    0.0000 C.ar    1  LIG1        0.0209
     24 C          -9.1743    4.4168    0.0002 C.ar    1  LIG1       -0.0316
     25 C         -10.1617    5.3986    0.0004 C.ar    1  LIG1        0.0783
     26 C          -9.7784    6.7571    0.0005 C.ar    1  LIG1        0.0898
     27 N          -8.4791    7.0647    0.0003 N.ar    1  LIG1       -0.2530
     28 H          -9.4533    3.3712    0.0002 H       1  LIG1        0.0638
     29 H          -6.5286    6.5004    0.0001 H       1  LIG1        0.0836
     30 N         -12.5752    4.4594    0.0006 N.1     1  LIG1       -0.1908
     31 C         -11.5132    4.9179    0.0005 C.1     1  LIG1        0.1013
     32 C         -12.0880    7.8768    0.0009 C.ar    1  LIG1        0.0368
     33 C         -10.6894    7.9378    0.0007 C.ar    1  LIG1        0.0209
     34 C         -10.1127    9.2100    0.0007 C.ar    1  LIG1       -0.0322
     35 C         -10.9328   10.3306    0.0009 C.ar    1  LIG1        0.0704
     36 C         -12.3193   10.1484    0.0010 C.ar    1  LIG1        0.0449
     37 N         -12.8811    8.9492    0.0011 N.ar    1  LIG1       -0.2613
     38 H          -9.0349    9.3050    0.0005 H       1  LIG1        0.0638
     39 H         -12.9845   11.0077    0.0012 H       1  LIG1        0.0842
     40 H         -12.6120    6.9303    0.0009 H       1  LIG1        0.0836
     41 N          -9.9412   12.7238    0.0009 N.1     1  LIG1       -0.1908
     42 C         -10.3782   11.6534    0.0009 C.1     1  LIG1        0.1007
@<TRIPOS>BOND
     1    20    21    3
     2    21    15    1
     3    18    14    1
     4     9     1    1
     5     1     6   ar
     6     1     2   ar
     7    14    15   ar
     8    14    13   ar
     9     6     5   ar
    10    15    16   ar
    11     8     2    1
    12     2     3   ar
    13     5    13    1
    14     5     4   ar
    15    13    12   ar
    16    16    23    1
    17    16    17   ar
    18     3     4   ar
    19     3     7    1
    20     4    11    1
    21    23    22   ar
    22    23    24   ar
    23    29    22    1
    24    22    27   ar
    25    28    24    1
    26    12    17   ar
    27    12    19    1
    28    24    25   ar
    29    27    26   ar
    30    25    26   ar
    31    25    31    1
    32    26    33    1
    33    38    34    1
    34    31    30    3
    35    11    10    3
    36    34    33   ar
    37    34    35   ar
    38    33    32   ar
    39    35    42    1
    40    35    36   ar
    41    42    41    3
    42    32    40    1
    43    32    37   ar
    44    36    37   ar
    45    36    39    1
