@<TRIPOS>MOLECULE
mol_data/opt/cam/geoms/mol2/6ad6ad6ad-6ad-.out
 42 45 0 0 0
SMALL
GASTEIGER

@<TRIPOS>ATOM
      1 C          -4.4925   -2.1991   -0.0208 C.ar    1  LIG1        0.0283
      2 C          -3.1115   -2.3194    0.0839 C.ar    1  LIG1       -0.0423
      3 C          -2.3663   -1.1596    0.1823 C.ar    1  LIG1       -0.0408
      4 C          -3.0201    0.0750    0.1570 C.ar    1  LIG1        0.0777
      5 C          -4.4208    0.1001    0.0147 C.ar    1  LIG1        0.0898
      6 N          -5.1258   -1.0318   -0.0565 N.ar    1  LIG1       -0.2536
      7 H          -1.2879   -1.1897    0.2893 H       1  LIG1        0.0631
      8 H          -2.6399   -3.2945    0.0992 H       1  LIG1        0.0633
      9 H          -5.1211   -3.0837   -0.0812 H       1  LIG1        0.0830
     10 N          -1.5757    2.2054    0.4456 N.1     1  LIG1       -0.1908
     11 C          -2.2351    1.2641    0.3154 C.1     1  LIG1        0.1013
     12 C          -6.5269    1.3345    0.4756 C.ar    1  LIG1        0.0375
     13 C          -5.2251    1.3461   -0.0399 C.ar    1  LIG1        0.0209
     14 C          -4.7953    2.5282   -0.6257 C.ar    1  LIG1       -0.0316
     15 C          -5.6417    3.6390   -0.6441 C.ar    1  LIG1        0.0783
     16 C          -6.9103    3.5429   -0.0455 C.ar    1  LIG1        0.0898
     17 N          -7.3284    2.3876    0.4825 N.ar    1  LIG1       -0.2530
     18 H          -3.8226    2.6101   -1.0940 H       1  LIG1        0.0638
     19 H          -6.9203    0.4168    0.9005 H       1  LIG1        0.0836
     20 N          -4.8050    5.7445   -1.8996 N.1     1  LIG1       -0.1908
     21 C          -5.1924    4.8158   -1.3298 C.1     1  LIG1        0.1013
     22 C          -7.5239    6.0007    0.1677 C.ar    1  LIG1        0.0375
     23 C          -7.8845    4.6578    0.0305 C.ar    1  LIG1        0.0209
     24 C          -9.2445    4.3695    0.0433 C.ar    1  LIG1       -0.0316
     25 C         -10.1728    5.4028    0.1296 C.ar    1  LIG1        0.0783
     26 C          -9.7092    6.7321    0.2033 C.ar    1  LIG1        0.0898
     27 N          -8.4016    6.9925    0.2477 N.ar    1  LIG1       -0.2530
     28 H          -9.5734    3.3383    0.0026 H       1  LIG1        0.0638
     29 H          -6.4818    6.2956    0.2308 H       1  LIG1        0.0836
     30 N         -12.6776    4.7478    0.2169 N.1     1  LIG1       -0.1908
     31 C         -11.5643    5.0588    0.1797 C.1     1  LIG1        0.1013
     32 C         -10.1670    9.0369    0.9994 C.ar    1  LIG1        0.0368
     33 C         -10.5955    7.9194    0.2711 C.ar    1  LIG1        0.0209
     34 C         -11.8197    8.0073   -0.3825 C.ar    1  LIG1       -0.0322
     35 C         -12.5540    9.1872   -0.2696 C.ar    1  LIG1        0.0704
     36 C         -12.0366   10.2334    0.4968 C.ar    1  LIG1        0.0449
     37 N         -10.8658   10.1604    1.1202 N.ar    1  LIG1       -0.2613
     38 H         -12.2072    7.1942   -0.9830 H       1  LIG1        0.0638
     39 H         -12.5945   11.1601    0.5993 H       1  LIG1        0.0842
     40 H          -9.2062    9.0004    1.5025 H       1  LIG1        0.0836
     41 N         -14.8285    9.4750   -1.4745 N.1     1  LIG1       -0.1908
     42 C         -13.8141    9.3397   -0.9366 C.1     1  LIG1        0.1007
@<TRIPOS>BOND
     1    20    21    3
     2    41    42    3
     3    21    15    1
     4    18    14    1
     5    38    34    1
     6    42    35    1
     7    15    14   ar
     8    15    16   ar
     9    14    13   ar
    10    34    35   ar
    11    34    33   ar
    12    35    36   ar
    13     9     1    1
    14     6     1   ar
    15     6     5   ar
    16    16    23    1
    17    16    17   ar
    18    13     5    1
    19    13    12   ar
    20     1     2   ar
    21    28    24    1
    22     5     4   ar
    23    23    24   ar
    24    23    22   ar
    25    24    25   ar
    26     2     8    1
    27     2     3   ar
    28    25    31    1
    29    25    26   ar
    30     4     3   ar
    31     4    11    1
    32    22    29    1
    33    22    27   ar
    34    31    30    3
    35     3     7    1
    36    26    27   ar
    37    26    33    1
    38    33    32   ar
    39    11    10    3
    40    12    17   ar
    41    12    19    1
    42    36    39    1
    43    36    37   ar
    44    32    37   ar
    45    32    40    1
