@<TRIPOS>MOLECULE
mol_data/opt/cam/geoms/mol2/6ad6ad-6ad-6ad.out
 42 45 0 0 0
SMALL
GASTEIGER

@<TRIPOS>ATOM
      1 C          -4.3206   -2.1577    0.0016 C.ar    1  LIG1        0.0283
      2 C          -2.9320   -2.2144    0.0005 C.ar    1  LIG1       -0.0423
      3 C          -2.2467   -1.0166   -0.0010 C.ar    1  LIG1       -0.0408
      4 C          -2.9556    0.1903   -0.0012 C.ar    1  LIG1        0.0777
      5 C          -4.3657    0.1551    0.0001 C.ar    1  LIG1        0.0898
      6 N          -5.0021   -1.0213    0.0014 N.ar    1  LIG1       -0.2536
      7 H          -1.1629   -0.9894   -0.0020 H       1  LIG1        0.0631
      8 H          -2.4116   -3.1643    0.0008 H       1  LIG1        0.0633
      9 H          -4.9130   -3.0691    0.0027 H       1  LIG1        0.0830
     10 N          -1.4645    2.3068   -0.0045 N.1     1  LIG1       -0.1908
     11 C          -2.1627    1.3845   -0.0030 C.1     1  LIG1        0.1013
     12 C          -4.8786    2.6795    0.0006 C.ar    1  LIG1        0.0375
     13 C          -5.2748    1.3379    0.0001 C.ar    1  LIG1        0.0209
     14 C          -6.6487    1.1153   -0.0003 C.ar    1  LIG1       -0.0316
     15 C          -7.5474    2.1786   -0.0003 C.ar    1  LIG1        0.0783
     16 C          -7.0489    3.4987    0.0001 C.ar    1  LIG1        0.0898
     17 N          -5.7289    3.6965    0.0006 N.ar    1  LIG1       -0.2530
     18 H          -7.0158    0.0972   -0.0006 H       1  LIG1        0.0638
     19 H          -3.8351    2.9658    0.0012 H       1  LIG1        0.0836
     20 N         -10.0449    1.4930   -0.0009 N.1     1  LIG1       -0.1908
     21 C          -8.9380    1.8289   -0.0006 C.1     1  LIG1        0.1013
     22 C          -7.1866    5.9797    0.0019 C.ar    1  LIG1        0.0375
     23 C          -7.8585    4.7470    0.0001 C.ar    1  LIG1        0.0209
     24 C          -9.2450    4.8192   -0.0017 C.ar    1  LIG1       -0.0316
     25 C          -9.8923    6.0596   -0.0015 C.ar    1  LIG1        0.0783
     26 C          -9.1279    7.2418    0.0005 C.ar    1  LIG1        0.0898
     27 N          -7.7915    7.1527    0.0021 N.ar    1  LIG1       -0.2530
     28 H          -9.8666    3.9352   -0.0033 H       1  LIG1        0.0638
     29 H          -6.1029    5.9887    0.0032 H       1  LIG1        0.0836
     30 N         -12.4770    5.8981   -0.0058 N.1     1  LIG1       -0.1908
     31 C         -11.3256    6.0080   -0.0038 C.1     1  LIG1        0.1013
     32 C         -10.9998    9.0015    0.0022 C.ar    1  LIG1        0.0368
     33 C          -9.6469    8.6401    0.0011 C.ar    1  LIG1        0.0209
     34 C          -8.7161    9.6815    0.0007 C.ar    1  LIG1       -0.0322
     35 C          -9.1620   10.9966    0.0013 C.ar    1  LIG1        0.0704
     36 C         -10.5392   11.2385    0.0023 C.ar    1  LIG1        0.0449
     37 N         -11.4343   10.2626    0.0028 N.ar    1  LIG1       -0.2613
     38 H          -7.6595    9.4489   -0.0000 H       1  LIG1        0.0638
     39 H         -10.9165   12.2576    0.0027 H       1  LIG1        0.0842
     40 H         -11.7836    8.2559    0.0028 H       1  LIG1        0.0836
     41 N          -7.4946   12.9792    0.0005 N.1     1  LIG1       -0.1908
     42 C          -8.2350   12.0911    0.0008 C.1     1  LIG1        0.1007
@<TRIPOS>BOND
     1    30    31    3
     2    10    11    3
     3    31    25    1
     4    28    24    1
     5    11     4    1
     6     7     3    1
     7    24    25   ar
     8    24    23   ar
     9    25    26   ar
    10     4     3   ar
    11     4     5   ar
    12     3     2   ar
    13    20    21    3
    14    21    15    1
    15    18    14    1
    16    14    15   ar
    17    14    13   ar
    18    15    16   ar
    19    38    34    1
    20    13     5    1
    21    13    12   ar
    22     5     6   ar
    23    23    16    1
    24    23    22   ar
    25    16    17   ar
    26    41    42    3
    27     2     8    1
    28     2     1   ar
    29    26    33    1
    30    26    27   ar
    31    12    17   ar
    32    12    19    1
    33    34    33   ar
    34    34    35   ar
    35    42    35    1
    36    33    32   ar
    37    35    36   ar
    38     6     1   ar
    39     1     9    1
    40    22    27   ar
    41    22    29    1
    42    32    40    1
    43    32    37   ar
    44    36    39    1
    45    36    37   ar
