@<TRIPOS>MOLECULE
mol_data/opt/cam/geoms/mol2/6ad6ad-4ad6ad.out
 43 46 0 0 0
SMALL
GASTEIGER

@<TRIPOS>ATOM
      1 C          -4.1957   -2.1067    0.7148 C.ar    1  LIG1        0.0283
      2 C          -2.9086   -2.2133    0.2002 C.ar    1  LIG1       -0.0423
      3 C          -2.3681   -1.1046   -0.4227 C.ar    1  LIG1       -0.0408
      4 C          -3.1182    0.0725   -0.4952 C.ar    1  LIG1        0.0777
      5 C          -4.4001    0.0983    0.0871 C.ar    1  LIG1        0.0898
      6 N          -4.9151   -0.9916    0.6626 N.ar    1  LIG1       -0.2536
      7 H          -1.3793   -1.1337   -0.8666 H       1  LIG1        0.0631
      8 H          -2.3565   -3.1423    0.2754 H       1  LIG1        0.0633
      9 H          -4.6716   -2.9584    1.1938 H       1  LIG1        0.0830
     10 N          -2.0700    2.0616   -1.7809 N.1     1  LIG1       -0.1908
     11 C          -2.5573    1.1877   -1.2008 C.1     1  LIG1        0.1013
     12 C          -4.8248    2.6045    0.1888 C.ar    1  LIG1        0.0375
     13 C          -5.2856    1.2892    0.0940 C.ar    1  LIG1        0.0209
     14 C          -6.6638    1.1094    0.0836 C.ar    1  LIG1       -0.0316
     15 C          -7.5103    2.2144    0.1037 C.ar    1  LIG1        0.0783
     16 C          -6.9463    3.5062    0.1327 C.ar    1  LIG1        0.0883
     17 N          -5.6234    3.6638    0.2053 N.ar    1  LIG1       -0.2530
     18 H          -7.0726    0.1064    0.0783 H       1  LIG1        0.0638
     19 H          -3.7646    2.8200    0.2700 H       1  LIG1        0.0836
     20 N         -10.0561    1.7410    0.1795 N.1     1  LIG1       -0.1908
     21 C          -8.9241    1.9756    0.1434 C.1     1  LIG1        0.1013
     22 C          -7.2295    5.8793    0.7927 C.ar    1  LIG1       -0.0519
     23 C          -7.9228    7.0768    0.8008 C.ar    1  LIG1       -0.0521
     24 C          -7.7366    4.7635    0.1209 C.ar    1  LIG1        0.0029
     25 C          -9.1356    7.2208    0.1250 C.ar    1  LIG1        0.0010
     26 H          -7.5272    7.9192    1.3577 H       1  LIG1        0.0624
     27 C          -8.9369    4.8935   -0.5715 C.ar    1  LIG1       -0.0345
     28 C          -9.6283    6.1067   -0.5764 C.ar    1  LIG1        0.0601
     29 H          -9.3477    4.0692   -1.1397 H       1  LIG1        0.0637
     30 H          -6.2827    5.7894    1.3106 H       1  LIG1        0.0624
     31 N         -11.7897    6.2412   -2.0029 N.1     1  LIG1       -0.1908
     32 C         -10.8298    6.1924   -1.3598 C.1     1  LIG1        0.0998
     33 C         -11.2063    8.6160    0.4643 C.ar    1  LIG1        0.0354
     34 C          -9.8440    8.5222    0.1564 C.ar    1  LIG1        0.0027
     35 C          -9.1595    9.7093   -0.0815 C.ar    1  LIG1       -0.0337
     36 C          -9.8529   10.9158   -0.0117 C.ar    1  LIG1        0.0704
     37 C         -11.2148   10.8889    0.2994 C.ar    1  LIG1        0.0449
     38 N         -11.8755    9.7629    0.5369 N.ar    1  LIG1       -0.2614
     39 H          -8.1047    9.7010   -0.3333 H       1  LIG1        0.0637
     40 H         -11.7790   11.8155    0.3575 H       1  LIG1        0.0842
     41 H         -11.7789    7.7172    0.6751 H       1  LIG1        0.0836
     42 N          -8.6525   13.1695   -0.4450 N.1     1  LIG1       -0.1908
     43 C          -9.1885   12.1630   -0.2538 C.1     1  LIG1        0.1007
@<TRIPOS>BOND
     1    31    32    3
     2    10    11    3
     3    32    28    1
     4    11     4    1
     5    29    27    1
     6     7     3    1
     7    28    27   ar
     8    28    25   ar
     9    27    24   ar
    10     4     3   ar
    11     4     5   ar
    12    42    43    3
    13     3     2   ar
    14    39    35    1
    15    43    36    1
    16    35    36   ar
    17    35    34   ar
    18    36    37   ar
    19    18    14    1
    20    14    13   ar
    21    14    15   ar
    22     5    13    1
    23     5     6   ar
    24    13    12   ar
    25    15    16   ar
    26    15    21    1
    27    24    16    1
    28    24    22   ar
    29    25    34    1
    30    25    23   ar
    31    16    17   ar
    32    21    20    3
    33    34    33   ar
    34    12    17   ar
    35    12    19    1
    36     2     8    1
    37     2     1   ar
    38    37    40    1
    39    37    38   ar
    40    33    38   ar
    41    33    41    1
    42     6     1   ar
    43     1     9    1
    44    22    23   ar
    45    22    30    1
    46    23    26    1
