@<TRIPOS>MOLECULE
mol_data/opt/cam/geoms/mol2/6ad6ad-6ad-6ad-.out
 42 45 0 0 0
SMALL
GASTEIGER

@<TRIPOS>ATOM
      1 C          -3.9481   -1.9731    0.8390 C.ar    1  LIG1        0.0283
      2 C          -2.7782   -2.1192    0.1021 C.ar    1  LIG1       -0.0423
      3 C          -2.4041   -1.0809   -0.7294 C.ar    1  LIG1       -0.0408
      4 C          -3.1951    0.0701   -0.7841 C.ar    1  LIG1        0.0777
      5 C          -4.3439    0.1434    0.0265 C.ar    1  LIG1        0.0898
      6 N          -4.7031   -0.8810    0.8046 N.ar    1  LIG1       -0.2536
      7 H          -1.5164   -1.1466   -1.3484 H       1  LIG1        0.0631
      8 H          -2.1895   -3.0260    0.1707 H       1  LIG1        0.0633
      9 H          -4.2949   -2.7716    1.4896 H       1  LIG1        0.0830
     10 N          -2.4825    1.9168   -2.4546 N.1     1  LIG1       -0.1908
     11 C          -2.8179    1.1063   -1.7007 C.1     1  LIG1        0.1013
     12 C          -4.8308    2.6392   -0.0655 C.ar    1  LIG1        0.0375
     13 C          -5.2538    1.3153    0.0749 C.ar    1  LIG1        0.0209
     14 C          -6.6017    1.1145    0.3494 C.ar    1  LIG1       -0.0316
     15 C          -7.4679    2.2021    0.4142 C.ar    1  LIG1        0.0783
     16 C          -6.9541    3.4965    0.1972 C.ar    1  LIG1        0.0898
     17 N          -5.6495    3.6821   -0.0093 N.ar    1  LIG1       -0.2530
     18 H          -6.9678    0.1110    0.5287 H       1  LIG1        0.0638
     19 H          -3.7836    2.8781   -0.2174 H       1  LIG1        0.0836
     20 N          -9.9444    1.7228    1.0034 N.1     1  LIG1       -0.1908
     21 C          -8.8421    1.9534    0.7400 C.1     1  LIG1        0.1013
     22 C          -7.1820    5.9281    0.6420 C.ar    1  LIG1        0.0375
     23 C          -7.7712    4.7333    0.2100 C.ar    1  LIG1        0.0209
     24 C          -9.0921    4.8035   -0.2101 C.ar    1  LIG1       -0.0316
     25 C          -9.7587    6.0301   -0.1905 C.ar    1  LIG1        0.0783
     26 C          -9.0727    7.1784    0.2448 C.ar    1  LIG1        0.0898
     27 N          -7.8057    7.0950    0.6646 N.ar    1  LIG1       -0.2530
     28 H          -9.6266    3.9289   -0.5583 H       1  LIG1        0.0638
     29 H          -6.1507    5.9182    0.9795 H       1  LIG1        0.0836
     30 N         -12.2389    6.0463   -0.9372 N.1     1  LIG1       -0.1908
     31 C         -11.1333    6.0548   -0.5981 C.1     1  LIG1        0.1013
     32 C          -9.2459    9.4087    1.3135 C.ar    1  LIG1        0.0368
     33 C          -9.6682    8.5359    0.3022 C.ar    1  LIG1        0.0209
     34 C         -10.5966    9.0154   -0.6154 C.ar    1  LIG1       -0.0322
     35 C         -11.0618   10.3222   -0.4739 C.ar    1  LIG1        0.0704
     36 C         -10.5831   11.0989    0.5830 C.ar    1  LIG1        0.0449
     37 N          -9.6922   10.6514    1.4609 N.ar    1  LIG1       -0.2613
     38 H         -10.9543    8.4091   -1.4376 H       1  LIG1        0.0638
     39 H         -10.9354   12.1186    0.7118 H       1  LIG1        0.0842
     40 H          -8.5072    9.0651    2.0304 H       1  LIG1        0.0836
     41 N         -12.7607   11.3336   -2.1469 N.1     1  LIG1       -0.1908
     42 C         -12.0050   10.8752   -1.4016 C.1     1  LIG1        0.1007
@<TRIPOS>BOND
     1    10    11    3
     2    41    42    3
     3    11     4    1
     4    38    34    1
     5    42    35    1
     6     7     3    1
     7    30    31    3
     8     4     3   ar
     9     4     5   ar
    10     3     2   ar
    11    34    35   ar
    12    34    33   ar
    13    31    25    1
    14    28    24    1
    15    35    36   ar
    16    19    12    1
    17    24    25   ar
    18    24    23   ar
    19    25    26   ar
    20    12    17   ar
    21    12    13   ar
    22    17    16   ar
    23     5    13    1
    24     5     6   ar
    25    13    14   ar
    26     2     8    1
    27     2     1   ar
    28    16    23    1
    29    16    15   ar
    30    23    22   ar
    31    26    33    1
    32    26    27   ar
    33    33    32   ar
    34    14    15   ar
    35    14    18    1
    36    15    21    1
    37    36    39    1
    38    36    37   ar
    39    22    27   ar
    40    22    29    1
    41    21    20    3
    42     6     1   ar
    43     1     9    1
    44    32    37   ar
    45    32    40    1
