@<TRIPOS>MOLECULE
mol_data/opt/cam/geoms/mol2/6ad6ad-6ad6ad-.out
 42 45 0 0 0
SMALL
GASTEIGER

@<TRIPOS>ATOM
      1 C          -4.4748   -2.2170    0.0003 C.ar    1  LIG1        0.0283
      2 C          -3.0902   -2.3370   -0.0002 C.ar    1  LIG1       -0.0423
      3 C          -2.3510   -1.1718   -0.0007 C.ar    1  LIG1       -0.0408
      4 C          -3.0041    0.0663   -0.0008 C.ar    1  LIG1        0.0777
      5 C          -4.4143    0.0955   -0.0002 C.ar    1  LIG1        0.0898
      6 N          -5.1036   -1.0506    0.0002 N.ar    1  LIG1       -0.2536
      7 H          -1.2671   -1.1940   -0.0011 H       1  LIG1        0.0631
      8 H          -2.6137   -3.3097   -0.0001 H       1  LIG1        0.0633
      9 H          -5.1081   -3.1004    0.0007 H       1  LIG1        0.0830
     10 N          -1.4178    2.1123   -0.0020 N.1     1  LIG1       -0.1908
     11 C          -2.1577    1.2231   -0.0014 C.1     1  LIG1        0.1013
     12 C          -4.8123    2.6409    0.0002 C.ar    1  LIG1        0.0375
     13 C          -5.2687    1.3185   -0.0002 C.ar    1  LIG1        0.0209
     14 C          -6.6511    1.1583   -0.0004 C.ar    1  LIG1       -0.0316
     15 C          -7.5019    2.2606   -0.0003 C.ar    1  LIG1        0.0783
     16 C          -6.9443    3.5565    0.0000 C.ar    1  LIG1        0.0898
     17 N          -5.6167    3.6945    0.0003 N.ar    1  LIG1       -0.2530
     18 H          -7.0636    0.1578   -0.0007 H       1  LIG1        0.0638
     19 H          -3.7571    2.8804    0.0005 H       1  LIG1        0.0836
     20 N         -10.0238    1.6705   -0.0010 N.1     1  LIG1       -0.1908
     21 C          -8.9062    1.9688   -0.0007 C.1     1  LIG1        0.1013
     22 C          -9.0871    4.9788    0.0004 C.ar    1  LIG1        0.0375
     23 C          -7.6951    4.8422    0.0002 C.ar    1  LIG1        0.0209
     24 C          -6.9725    6.0319    0.0002 C.ar    1  LIG1       -0.0316
     25 C          -7.6195    7.2650    0.0003 C.ar    1  LIG1        0.0783
     26 C          -9.0308    7.2997    0.0005 C.ar    1  LIG1        0.0898
     27 N          -9.7084    6.1492    0.0005 N.ar    1  LIG1       -0.2530
     28 H          -5.8910    5.9893    0.0000 H       1  LIG1        0.0638
     29 H          -9.7444    4.1191    0.0004 H       1  LIG1        0.0836
     30 N          -6.0147    9.2977    0.0001 N.1     1  LIG1       -0.1908
     31 C          -6.7630    8.4157    0.0002 C.1     1  LIG1        0.1013
     32 C          -9.4211    9.8372    0.0010 C.ar    1  LIG1        0.0368
     33 C          -9.8906    8.5183    0.0007 C.ar    1  LIG1        0.0209
     34 C         -11.2762    8.3414    0.0005 C.ar    1  LIG1       -0.0322
     35 C         -12.1063    9.4545    0.0007 C.ar    1  LIG1        0.0704
     36 C         -11.5245   10.7262    0.0010 C.ar    1  LIG1        0.0449
     37 N         -10.2132   10.9104    0.0012 N.ar    1  LIG1       -0.2613
     38 H         -11.6836    7.3391    0.0003 H       1  LIG1        0.0638
     39 H         -12.1502   11.6147    0.0012 H       1  LIG1        0.0842
     40 H          -8.3624   10.0599    0.0012 H       1  LIG1        0.0836
     41 N         -14.6851    9.2084    0.0004 N.1     1  LIG1       -0.1908
     42 C         -13.5336    9.3127    0.0006 C.1     1  LIG1        0.1007
@<TRIPOS>BOND
     1    10    11    3
     2    11     4    1
     3     7     3    1
     4    20    21    3
     5     4     3   ar
     6     4     5   ar
     7     3     2   ar
     8    21    15    1
     9    18    14    1
    10    14    15   ar
    11    14    13   ar
    12    15    16   ar
    13     5    13    1
    14     5     6   ar
    15     2     8    1
    16     2     1   ar
    17    13    12   ar
    18    28    24    1
    19    16    23    1
    20    16    17   ar
    21    30    31    3
    22    24    23   ar
    23    24    25   ar
    24    23    22   ar
    25    12    17   ar
    26    12    19    1
    27    31    25    1
    28     6     1   ar
    29     1     9    1
    30    38    34    1
    31    25    26   ar
    32    22    29    1
    33    22    27   ar
    34    41    42    3
    35    26    27   ar
    36    26    33    1
    37    34    33   ar
    38    34    35   ar
    39    42    35    1
    40    33    32   ar
    41    35    36   ar
    42    32    40    1
    43    32    37   ar
    44    36    39    1
    45    36    37   ar
