@<TRIPOS>MOLECULE
mol_data/opt/cam/geoms/mol2/6ad6ad6ad.out
 32 34 0 0 0
SMALL
GASTEIGER

@<TRIPOS>ATOM
      1 C          -4.5094   -2.0038   -0.9173 C.ar    1  LIG1        0.0283
      2 C          -3.2136   -2.2512   -0.4794 C.ar    1  LIG1       -0.0423
      3 C          -2.5486   -1.2342    0.1791 C.ar    1  LIG1       -0.0408
      4 C          -3.1897   -0.0064    0.3628 C.ar    1  LIG1        0.0777
      5 C          -4.4923    0.1639   -0.1450 C.ar    1  LIG1        0.0898
      6 N          -5.1269   -0.8383   -0.7589 N.ar    1  LIG1       -0.2536
      7 H          -1.5448   -1.3739    0.5644 H       1  LIG1        0.0631
      8 H          -2.7483   -3.2160   -0.6412 H       1  LIG1        0.0633
      9 H          -5.0792   -2.7792   -1.4226 H       1  LIG1        0.0830
     10 N          -1.9178    1.8168    1.6917 N.1     1  LIG1       -0.1908
     11 C          -2.5008    1.0147    1.0962 C.1     1  LIG1        0.1013
     12 C          -6.6654    1.3408    0.0926 C.ar    1  LIG1        0.0375
     13 C          -5.2729    1.4206   -0.0291 C.ar    1  LIG1        0.0209
     14 C          -4.7206    2.6930   -0.0649 C.ar    1  LIG1       -0.0316
     15 C          -5.5545    3.8105    0.0137 C.ar    1  LIG1        0.0783
     16 C          -6.9449    3.6247    0.1155 C.ar    1  LIG1        0.0898
     17 N          -7.4642    2.3935    0.1679 N.ar    1  LIG1       -0.2530
     18 H          -3.6531    2.8484   -0.1555 H       1  LIG1        0.0638
     19 H          -7.1392    0.3650    0.1249 H       1  LIG1        0.0836
     20 N          -4.4234    6.1406   -0.0053 N.1     1  LIG1       -0.1908
     21 C          -4.9431    5.1076    0.0080 C.1     1  LIG1        0.1013
     22 C          -9.0943    4.5343    0.9523 C.ar    1  LIG1        0.0368
     23 C          -7.9318    4.7295    0.1953 C.ar    1  LIG1        0.0209
     24 C          -7.7950    5.9414   -0.4727 C.ar    1  LIG1       -0.0322
     25 C          -8.8069    6.8922   -0.3455 C.ar    1  LIG1        0.0704
     26 C          -9.9159    6.5959    0.4494 C.ar    1  LIG1        0.0449
     27 N         -10.0577    5.4393    1.0870 N.ar    1  LIG1       -0.2613
     28 H          -6.9357    6.1583   -1.0944 H       1  LIG1        0.0638
     29 H         -10.7138    7.3246    0.5633 H       1  LIG1        0.0842
     30 H          -9.2342    3.5896    1.4677 H       1  LIG1        0.0836
     31 N          -8.6777    9.1662   -1.5785 N.1     1  LIG1       -0.1908
     32 C          -8.7279    8.1509   -1.0277 C.1     1  LIG1        0.1007
@<TRIPOS>BOND
     1    31    32    3
     2     9     1    1
     3    28    24    1
     4    32    25    1
     5     1     6   ar
     6     1     2   ar
     7     6     5   ar
     8     8     2    1
     9     2     3   ar
    10    24    25   ar
    11    24    23   ar
    12    25    26   ar
    13    18    14    1
    14     5    13    1
    15     5     4   ar
    16    14    13   ar
    17    14    15   ar
    18    13    12   ar
    19    20    21    3
    20    21    15    1
    21    15    16   ar
    22    12    19    1
    23    12    17   ar
    24    16    17   ar
    25    16    23    1
    26     3     4   ar
    27     3     7    1
    28    23    22   ar
    29     4    11    1
    30    26    29    1
    31    26    27   ar
    32    22    27   ar
    33    22    30    1
    34    11    10    3
