@<TRIPOS>MOLECULE
mol_data/opt/cam/geoms/mol2/6ad6ad6ad6ad.out
 42 45 0 0 0
SMALL
GASTEIGER

@<TRIPOS>ATOM
      1 C          -4.4272   -1.9356   -1.3665 C.ar    1  LIG1        0.0283
      2 C          -3.2676   -2.3467   -0.7196 C.ar    1  LIG1       -0.0423
      3 C          -2.7110   -1.4938    0.2148 C.ar    1  LIG1       -0.0408
      4 C          -3.3180   -0.2592    0.4586 C.ar    1  LIG1        0.0777
      5 C          -4.4728    0.0865   -0.2696 C.ar    1  LIG1        0.0898
      6 N          -5.0089   -0.7606   -1.1520 N.ar    1  LIG1       -0.2536
      7 H          -1.8202   -1.7682    0.7684 H       1  LIG1        0.0631
      8 H          -2.8244   -3.3112   -0.9360 H       1  LIG1        0.0633
      9 H          -4.9119   -2.5805   -2.0948 H       1  LIG1        0.0830
     10 N          -2.2778    1.2462    2.2916 N.1     1  LIG1       -0.1908
     11 C          -2.7551    0.5864    1.4702 C.1     1  LIG1        0.1013
     12 C          -6.5888    1.3852   -0.2933 C.ar    1  LIG1        0.0375
     13 C          -5.2001    1.3710   -0.1150 C.ar    1  LIG1        0.0209
     14 C          -4.5934    2.5868    0.1661 C.ar    1  LIG1       -0.0316
     15 C          -5.3708    3.7437    0.2519 C.ar    1  LIG1        0.0783
     16 C          -6.7581    3.6559    0.0389 C.ar    1  LIG1        0.0898
     17 N          -7.3343    2.4758   -0.2135 N.ar    1  LIG1       -0.2530
     18 H          -3.5249    2.6678    0.3200 H       1  LIG1        0.0638
     19 H          -7.1040    0.4562   -0.5153 H       1  LIG1        0.0836
     20 N          -4.1570    5.9562    0.8352 N.1     1  LIG1       -0.1908
     21 C          -4.7119    4.9748    0.5777 C.1     1  LIG1        0.1013
     22 C          -9.0022    4.5911    0.5317 C.ar    1  LIG1        0.0375
     23 C          -7.6902    4.8077    0.0925 C.ar    1  LIG1        0.0209
     24 C          -7.3663    6.1003   -0.2958 C.ar    1  LIG1       -0.0316
     25 C          -8.3378    7.1017   -0.2397 C.ar    1  LIG1        0.0783
     26 C          -9.6340    6.7787    0.2004 C.ar    1  LIG1        0.0898
     27 N          -9.9292    5.5337    0.5897 N.ar    1  LIG1       -0.2530
     28 H          -6.3756    6.3588   -0.6467 H       1  LIG1        0.0638
     29 H          -9.2982    3.5951    0.8449 H       1  LIG1        0.0836
     30 N          -7.6233    9.4922   -0.9358 N.1     1  LIG1       -0.1908
     31 C          -7.9562    8.4312   -0.6182 C.1     1  LIG1        0.1013
     32 C         -11.6980    7.5822    1.3142 C.ar    1  LIG1        0.0368
     33 C         -10.7509    7.7505    0.2955 C.ar    1  LIG1        0.0209
     34 C         -10.9422    8.8023   -0.5938 C.ar    1  LIG1       -0.0322
     35 C         -12.0494    9.6316   -0.4189 C.ar    1  LIG1        0.0704
     36 C         -12.9211    9.3798    0.6424 C.ar    1  LIG1        0.0449
     37 N         -12.7493    8.3745    1.4936 N.ar    1  LIG1       -0.2613
     38 H         -10.2660    8.9839   -1.4193 H       1  LIG1        0.0638
     39 H         -13.7880   10.0163    0.7970 H       1  LIG1        0.0842
     40 H         -11.5818    6.7573    2.0096 H       1  LIG1        0.0836
     41 N         -12.5290   11.5940   -2.0397 N.1     1  LIG1       -0.1908
     42 C         -12.3073   10.7189   -1.3174 C.1     1  LIG1        0.1007
@<TRIPOS>BOND
     1     9     1    1
     2    41    42    3
     3    38    34    1
     4     1     6   ar
     5     1     2   ar
     6    42    35    1
     7     6     5   ar
     8     8     2    1
     9    30    31    3
    10     2     3   ar
    11    28    24    1
    12    31    25    1
    13    34    35   ar
    14    34    33   ar
    15    19    12    1
    16    35    36   ar
    17    24    25   ar
    18    24    23   ar
    19    12    17   ar
    20    12    13   ar
    21     5    13    1
    22     5     4   ar
    23    25    26   ar
    24    17    16   ar
    25    13    14   ar
    26    16    23    1
    27    16    15   ar
    28    23    22   ar
    29    14    15   ar
    30    14    18    1
    31    26    33    1
    32    26    27   ar
    33     3     4   ar
    34     3     7    1
    35    15    21    1
    36    33    32   ar
    37     4    11    1
    38    22    27   ar
    39    22    29    1
    40    21    20    3
    41    36    39    1
    42    36    37   ar
    43    32    37   ar
    44    32    40    1
    45    11    10    3
