@<TRIPOS>MOLECULE
mol_data/opt/cam/geoms/mol2/6ad6ad-.out
 22 23 0 0 0
SMALL
GASTEIGER

@<TRIPOS>ATOM
      1 C          -4.5857   -2.0232    0.0003 C.ar    1  LIG1        0.0283
      2 C          -3.2011   -2.1391    0.0001 C.ar    1  LIG1       -0.0423
      3 C          -2.4674   -0.9704   -0.0004 C.ar    1  LIG1       -0.0408
      4 C          -3.1247    0.2655   -0.0005 C.ar    1  LIG1        0.0777
      5 C          -4.5356    0.2912   -0.0001 C.ar    1  LIG1        0.0898
      6 N          -5.2186   -0.8592    0.0003 N.ar    1  LIG1       -0.2536
      7 H          -1.3833   -0.9879   -0.0006 H       1  LIG1        0.0631
      8 H          -2.7206   -3.1099    0.0002 H       1  LIG1        0.0633
      9 H          -5.2163   -2.9087    0.0007 H       1  LIG1        0.0830
     10 N          -1.5222    2.2988   -0.0015 N.1     1  LIG1       -0.1908
     11 C          -2.2743    1.4198   -0.0010 C.1     1  LIG1        0.1013
     12 C          -4.9317    2.8313    0.0003 C.ar    1  LIG1        0.0368
     13 C          -5.3977    1.5113   -0.0001 C.ar    1  LIG1        0.0209
     14 C          -6.7825    1.3329   -0.0005 C.ar    1  LIG1       -0.0322
     15 C          -7.6154    2.4443   -0.0006 C.ar    1  LIG1        0.0704
     16 C          -7.0368    3.7171   -0.0001 C.ar    1  LIG1        0.0449
     17 N          -5.7258    3.9032    0.0003 N.ar    1  LIG1       -0.2613
     18 H          -7.1888    0.3303   -0.0009 H       1  LIG1        0.0638
     19 H          -7.6640    4.6045   -0.0001 H       1  LIG1        0.0842
     20 H          -3.8737    3.0569    0.0007 H       1  LIG1        0.0836
     21 N         -10.1930    2.1851   -0.0014 N.1     1  LIG1       -0.1908
     22 C          -9.0422    2.2969   -0.0010 C.1     1  LIG1        0.1007
@<TRIPOS>BOND
     1    10    11    3
     2    21    22    3
     3    11     4    1
     4    22    15    1
     5    18    14    1
     6     7     3    1
     7    15    14   ar
     8    15    16   ar
     9    14    13   ar
    10     4     3   ar
    11     4     5   ar
    12     3     2   ar
    13    19    16    1
    14    16    17   ar
    15    13     5    1
    16    13    12   ar
    17     5     6   ar
    18     2     8    1
    19     2     1   ar
    20     6     1   ar
    21    17    12   ar
    22    12    20    1
    23     1     9    1
