@<TRIPOS>MOLECULE
mol_data/opt/cam/geoms/mol2/6ad6ad-6ad.out
 32 34 0 0 0
SMALL
GASTEIGER

@<TRIPOS>ATOM
      1 C          -4.5120   -2.1182    0.0005 C.ar    1  LIG1        0.0283
      2 C          -3.1264   -2.2265    0.0001 C.ar    1  LIG1       -0.0423
      3 C          -2.3975   -1.0547   -0.0004 C.ar    1  LIG1       -0.0408
      4 C          -3.0613    0.1775   -0.0006 C.ar    1  LIG1        0.0777
      5 C          -4.4718    0.1949   -0.0001 C.ar    1  LIG1        0.0898
      6 N          -5.1511   -0.9575    0.0004 N.ar    1  LIG1       -0.2536
      7 H          -1.3134   -1.0675   -0.0008 H       1  LIG1        0.0631
      8 H          -2.6415   -3.1950    0.0003 H       1  LIG1        0.0633
      9 H          -5.1376   -3.0070    0.0009 H       1  LIG1        0.0830
     10 N          -1.4899    2.2350   -0.0019 N.1     1  LIG1       -0.1908
     11 C          -2.2241    1.3410   -0.0013 C.1     1  LIG1        0.1013
     12 C          -4.8906    2.7365    0.0005 C.ar    1  LIG1        0.0375
     13 C          -5.3359    1.4107   -0.0001 C.ar    1  LIG1        0.0209
     14 C          -6.7170    1.2406   -0.0007 C.ar    1  LIG1       -0.0316
     15 C          -7.5769    2.3360   -0.0007 C.ar    1  LIG1        0.0783
     16 C          -7.0306    3.6374   -0.0001 C.ar    1  LIG1        0.0898
     17 N          -5.7036    3.7833    0.0005 N.ar    1  LIG1       -0.2530
     18 H          -7.1226    0.2374   -0.0011 H       1  LIG1        0.0638
     19 H          -3.8374    2.9847    0.0010 H       1  LIG1        0.0836
     20 N         -10.0871    1.6987   -0.0021 N.1     1  LIG1       -0.1908
     21 C          -8.9771    2.0242   -0.0014 C.1     1  LIG1        0.1013
     22 C          -9.1858    5.0315    0.0002 C.ar    1  LIG1        0.0368
     23 C          -7.7903    4.9208    0.0000 C.ar    1  LIG1        0.0209
     24 C          -7.0623    6.1128   -0.0001 C.ar    1  LIG1       -0.0322
     25 C          -7.7389    7.3254    0.0000 C.ar    1  LIG1        0.0704
     26 C          -9.1373    7.3144    0.0002 C.ar    1  LIG1        0.0449
     27 N          -9.8416    6.1930    0.0003 N.ar    1  LIG1       -0.2613
     28 H          -5.9809    6.0751   -0.0002 H       1  LIG1        0.0638
     29 H          -9.6923    8.2487    0.0003 H       1  LIG1        0.0842
     30 H          -9.8218    4.1563    0.0004 H       1  LIG1        0.0836
     31 N          -6.4600    9.5783   -0.0001 N.1     1  LIG1       -0.1908
     32 C          -7.0260    8.5701   -0.0001 C.1     1  LIG1        0.1007
@<TRIPOS>BOND
     1    20    21    3
     2    10    11    3
     3    21    15    1
     4    11     4    1
     5    18    14    1
     6     7     3    1
     7    15    14   ar
     8    15    16   ar
     9    14    13   ar
    10     4     3   ar
    11     4     5   ar
    12     3     2   ar
    13    28    24    1
    14    31    32    3
    15    13     5    1
    16    13    12   ar
    17     5     6   ar
    18    16    23    1
    19    16    17   ar
    20    24    23   ar
    21    24    25   ar
    22    32    25    1
    23    23    22   ar
    24    25    26   ar
    25     2     8    1
    26     2     1   ar
    27    26    29    1
    28    26    27   ar
    29    22    27   ar
    30    22    30    1
    31     6     1   ar
    32    12    17   ar
    33    12    19    1
    34     1     9    1
