@<TRIPOS>MOLECULE
mol_data/opt/cam/geoms/mol2/6ad6ad6ad6ad-.out
 42 45 0 0 0
SMALL
GASTEIGER

@<TRIPOS>ATOM
      1 C          -4.4566   -2.0474   -0.9235 C.ar    1  LIG1        0.0283
      2 C          -3.2332   -2.3462   -0.3350 C.ar    1  LIG1       -0.0423
      3 C          -2.6227   -1.3644    0.4224 C.ar    1  LIG1       -0.0408
      4 C          -3.2425   -0.1190    0.5527 C.ar    1  LIG1        0.0777
      5 C          -4.4662    0.1041   -0.1077 C.ar    1  LIG1        0.0898
      6 N          -5.0519   -0.8645   -0.8165 N.ar    1  LIG1       -0.2536
      7 H          -1.6792   -1.5452    0.9249 H       1  LIG1        0.0631
      8 H          -2.7821   -3.3231   -0.4594 H       1  LIG1        0.0633
      9 H          -4.9836   -2.7938   -1.5119 H       1  LIG1        0.0830
     10 N          -2.0910    1.6400    2.0652 N.1     1  LIG1       -0.1908
     11 C          -2.6186    0.8662    1.3866 C.1     1  LIG1        0.1013
     12 C          -6.6139    1.3500   -0.1141 C.ar    1  LIG1        0.0375
     13 C          -5.2151    1.3846   -0.0615 C.ar    1  LIG1        0.0209
     14 C          -4.6222    2.6377   -0.0014 C.ar    1  LIG1       -0.0316
     15 C          -5.4234    3.7816   -0.0005 C.ar    1  LIG1        0.0783
     16 C          -6.8205    3.6410   -0.0731 C.ar    1  LIG1        0.0898
     17 N          -7.3817    2.4279   -0.1131 N.ar    1  LIG1       -0.2530
     18 H          -3.5473    2.7577    0.0430 H       1  LIG1        0.0638
     19 H          -7.1185    0.3905   -0.1630 H       1  LIG1        0.0836
     20 N          -4.2344    6.0764    0.1715 N.1     1  LIG1       -0.1908
     21 C          -4.7775    5.0580    0.0976 C.1     1  LIG1        0.1013
     22 C          -9.0425    4.5988    0.4796 C.ar    1  LIG1        0.0375
     23 C          -7.7748    4.7756   -0.0882 C.ar    1  LIG1        0.0209
     24 C          -7.5230    6.0032   -0.6852 C.ar    1  LIG1       -0.0316
     25 C          -8.5042    6.9965   -0.6638 C.ar    1  LIG1        0.0783
     26 C          -9.7243    6.7410   -0.0126 C.ar    1  LIG1        0.0898
     27 N          -9.9699    5.5418    0.5260 N.ar    1  LIG1       -0.2530
     28 H          -6.5893    6.2081   -1.1930 H       1  LIG1        0.0638
     29 H          -9.2987    3.6383    0.9147 H       1  LIG1        0.0836
     30 N          -7.9916    9.1831   -1.9543 N.1     1  LIG1       -0.1908
     31 C          -8.2371    8.2180   -1.3664 C.1     1  LIG1        0.1013
     32 C         -10.6212    9.0989    0.2608 C.ar    1  LIG1        0.0368
     33 C         -10.8277    7.7246    0.1102 C.ar    1  LIG1        0.0209
     34 C         -12.1410    7.2621    0.1405 C.ar    1  LIG1       -0.0322
     35 C         -13.1745    8.1818    0.2782 C.ar    1  LIG1        0.0704
     36 C         -12.8538    9.5382    0.3996 C.ar    1  LIG1        0.0449
     37 N         -11.6058    9.9847    0.4025 N.ar    1  LIG1       -0.2613
     38 H         -12.3413    6.2005    0.0637 H       1  LIG1        0.0638
     39 H         -13.6436   10.2772    0.5046 H       1  LIG1        0.0842
     40 H          -9.6171    9.5090    0.2877 H       1  LIG1        0.0836
     41 N         -15.6506    7.4220    0.3163 N.1     1  LIG1       -0.1908
     42 C         -14.5444    7.7581    0.2997 C.1     1  LIG1        0.1007
@<TRIPOS>BOND
     1    30    31    3
     2     9     1    1
     3    31    25    1
     4    28    24    1
     5     1     6   ar
     6     1     2   ar
     7     6     5   ar
     8    24    25   ar
     9    24    23   ar
    10    25    26   ar
    11     8     2    1
    12     2     3   ar
    13    19    12    1
    14    12    17   ar
    15    12    13   ar
    16    17    16   ar
    17     5    13    1
    18     5     4   ar
    19    23    16    1
    20    23    22   ar
    21    16    15   ar
    22    13    14   ar
    23    26    33    1
    24    26    27   ar
    25    14    15   ar
    26    14    18    1
    27    15    21    1
    28    38    34    1
    29    21    20    3
    30    33    34   ar
    31    33    32   ar
    32    34    35   ar
    33    32    40    1
    34    32    37   ar
    35    35    42    1
    36    35    36   ar
    37    42    41    3
    38    36    37   ar
    39    36    39    1
    40     3     4   ar
    41     3     7    1
    42    22    27   ar
    43    22    29    1
    44     4    11    1
    45    11    10    3
