@<TRIPOS>MOLECULE
mol_data/opt/cam/geoms/mol2/6ae6ae-6ae.out
 35 37 0 0 0
SMALL
GASTEIGER

@<TRIPOS>ATOM
      1 C          -4.5129   -2.0939    0.5392 C.ar    1  LIG1        0.0283
      2 C          -3.1433   -2.1897    0.3271 C.ar    1  LIG1       -0.0424
      3 C          -2.4571   -1.0337    0.0056 C.ar    1  LIG1       -0.0428
      4 C          -3.1414    0.1838   -0.0788 C.ar    1  LIG1        0.0507
      5 C          -4.5263    0.1825    0.1930 C.ar    1  LIG1        0.0878
      6 N          -5.1811   -0.9483    0.4764 N.ar    1  LIG1       -0.2537
      7 H          -1.3920   -1.0521   -0.1968 H       1  LIG1        0.0631
      8 H          -2.6359   -3.1446    0.3994 H       1  LIG1        0.0633
      9 H          -5.1009   -2.9781    0.7726 H       1  LIG1        0.0830
     10 C          -2.4108    1.3470   -0.4812 C.1     1  LIG1       -0.0675
     11 C          -1.7432    2.2831   -0.8378 C.1     1  LIG1       -0.1138
     12 H          -1.1707    3.1255   -1.1527 H       1  LIG1        0.1232
     13 C          -4.9408    2.6563    0.5923 C.ar    1  LIG1        0.0375
     14 C          -5.3746    1.4006    0.1651 C.ar    1  LIG1        0.0208
     15 C          -6.6946    1.3058   -0.2580 C.ar    1  LIG1       -0.0336
     16 C          -7.5210    2.4296   -0.2664 C.ar    1  LIG1        0.0513
     17 C          -6.9849    3.6482    0.2016 C.ar    1  LIG1        0.0878
     18 N          -5.7159    3.7331    0.6112 N.ar    1  LIG1       -0.2530
     19 H          -7.0816    0.3503   -0.5898 H       1  LIG1        0.0637
     20 H          -3.9278    2.7974    0.9525 H       1  LIG1        0.0836
     21 C          -8.8461    2.2929   -0.7915 C.1     1  LIG1       -0.0675
     22 C          -9.9423    2.1197   -1.2573 C.1     1  LIG1       -0.1138
     23 H         -10.9182    1.9882   -1.6655 H       1  LIG1        0.1232
     24 C          -9.1011    4.9844    0.6054 C.ar    1  LIG1        0.0368
     25 C          -7.7484    4.9203    0.2645 C.ar    1  LIG1        0.0208
     26 C          -7.0852    6.1229    0.0354 C.ar    1  LIG1       -0.0342
     27 C          -7.7903    7.3216    0.1143 C.ar    1  LIG1        0.0434
     28 C          -9.1501    7.2574    0.4434 C.ar    1  LIG1        0.0430
     29 N          -9.7891    6.1221    0.6944 N.ar    1  LIG1       -0.2614
     30 H          -6.0269    6.1163   -0.1952 H       1  LIG1        0.0637
     31 H          -9.7306    8.1738    0.5101 H       1  LIG1        0.0842
     32 H          -9.6522    4.0785    0.8325 H       1  LIG1        0.0836
     33 C          -7.1583    8.5818   -0.1284 C.1     1  LIG1       -0.0681
     34 C          -6.6335    9.6455   -0.3320 C.1     1  LIG1       -0.1139
     35 H          -6.1681   10.5871   -0.5118 H       1  LIG1        0.1232
@<TRIPOS>BOND
     1    23    22    1
     2    22    21    3
     3    12    11    1
     4    11    10    3
     5    21    16    1
     6    19    15    1
     7    35    34    1
     8    10     4    1
     9    34    33    3
    10    16    15   ar
    11    16    17   ar
    12    15    14   ar
    13     7     3    1
    14    30    26    1
    15    33    27    1
    16     4     3   ar
    17     4     5   ar
    18     3     2   ar
    19    26    27   ar
    20    26    25   ar
    21    27    28   ar
    22    14     5    1
    23    14    13   ar
    24     5     6   ar
    25    17    25    1
    26    17    18   ar
    27    25    24   ar
    28     2     8    1
    29     2     1   ar
    30    28    31    1
    31    28    29   ar
    32     6     1   ar
    33     1     9    1
    34    13    18   ar
    35    13    20    1
    36    24    29   ar
    37    24    32    1
