@<TRIPOS>MOLECULE
mol_data/opt/cam/geoms/mol2/6ae6ae.out
 24 25 0 0 0
SMALL
GASTEIGER

@<TRIPOS>ATOM
      1 C          -4.5742   -2.0145   -0.5357 C.ar    1  LIG1        0.0283
      2 C          -3.1964   -2.1217   -0.3956 C.ar    1  LIG1       -0.0424
      3 C          -2.4928   -0.9860   -0.0406 C.ar    1  LIG1       -0.0428
      4 C          -3.1705    0.2228    0.1498 C.ar    1  LIG1        0.0507
      5 C          -4.5678    0.2361   -0.0501 C.ar    1  LIG1        0.0878
      6 N          -5.2373   -0.8756   -0.3714 N.ar    1  LIG1       -0.2537
      7 H          -1.4188   -1.0147    0.1059 H       1  LIG1        0.0631
      8 H          -2.6951   -3.0702   -0.5497 H       1  LIG1        0.0633
      9 H          -5.1742   -2.8834   -0.7949 H       1  LIG1        0.0830
     10 C          -2.4193    1.3642    0.5763 C.1     1  LIG1       -0.0675
     11 C          -1.7357    2.2839    0.9451 C.1     1  LIG1       -0.1138
     12 H          -1.1490    3.1105    1.2752 H       1  LIG1        0.1232
     13 C          -6.7023    1.3196    0.6166 C.ar    1  LIG1        0.0368
     14 C          -5.4086    1.4511    0.0998 C.ar    1  LIG1        0.0208
     15 C          -4.9986    2.7213   -0.2882 C.ar    1  LIG1       -0.0342
     16 C          -5.8739    3.7982   -0.1357 C.ar    1  LIG1        0.0434
     17 C          -7.1364    3.5446    0.4091 C.ar    1  LIG1        0.0430
     18 N          -7.5455    2.3350    0.7773 N.ar    1  LIG1       -0.2614
     19 H          -4.0184    2.8872   -0.7157 H       1  LIG1        0.0637
     20 H          -7.8386    4.3633    0.5433 H       1  LIG1        0.0842
     21 H          -7.0568    0.3358    0.9076 H       1  LIG1        0.0836
     22 C          -5.5017    5.1222   -0.5285 C.1     1  LIG1       -0.0681
     23 C          -5.1930    6.2382   -0.8572 C.1     1  LIG1       -0.1139
     24 H          -4.9224    7.2265   -1.1496 H       1  LIG1        0.1232
@<TRIPOS>BOND
     1    24    23    1
     2    23    22    3
     3     9     1    1
     4    19    15    1
     5     8     2    1
     6     1     2   ar
     7     1     6   ar
     8    22    16    1
     9     2     3   ar
    10     6     5   ar
    11    15    16   ar
    12    15    14   ar
    13    16    17   ar
    14     5    14    1
    15     5     4   ar
    16     3     7    1
    17     3     4   ar
    18    14    13   ar
    19     4    10    1
    20    17    20    1
    21    17    18   ar
    22    10    11    3
    23    13    18   ar
    24    13    21    1
    25    11    12    1
