@<TRIPOS>MOLECULE
mol_data/opt/cam/geoms/mol2/6ae6ae-6ae-6ae.out
 46 49 0 0 0
SMALL
GASTEIGER

@<TRIPOS>ATOM
      1 C          -4.1483   -1.9740    1.0783 C.ar    1  LIG1        0.0283
      2 C          -2.8951   -2.1222    0.4970 C.ar    1  LIG1       -0.0424
      3 C          -2.4036   -1.0723   -0.2555 C.ar    1  LIG1       -0.0428
      4 C          -3.1569    0.0985   -0.3960 C.ar    1  LIG1        0.0507
      5 C          -4.4013    0.1653    0.2661 C.ar    1  LIG1        0.0878
      6 N          -4.8757   -0.8688    0.9685 N.ar    1  LIG1       -0.2537
      7 H          -1.4433   -1.1414   -0.7543 H       1  LIG1        0.0631
      8 H          -2.3308   -3.0389    0.6218 H       1  LIG1        0.0633
      9 H          -4.5878   -2.7797    1.6612 H       1  LIG1        0.0830
     10 C          -2.6481    1.1384   -1.2376 C.1     1  LIG1       -0.0675
     11 C          -2.1740    1.9691   -1.9685 C.1     1  LIG1       -0.1138
     12 H          -1.7731    2.7187   -2.6119 H       1  LIG1        0.1232
     13 C          -4.8277    2.6675    0.2260 C.ar    1  LIG1        0.0375
     14 C          -5.2930    1.3514    0.2245 C.ar    1  LIG1        0.0208
     15 C          -6.6707    1.1763    0.2623 C.ar    1  LIG1       -0.0336
     16 C          -7.5279    2.2766    0.2424 C.ar    1  LIG1        0.0513
     17 C          -6.9511    3.5633    0.1832 C.ar    1  LIG1        0.0878
     18 N          -5.6252    3.7271    0.2037 N.ar    1  LIG1       -0.2530
     19 H          -7.0788    0.1750    0.3248 H       1  LIG1        0.0637
     20 H          -3.7642    2.8768    0.2587 H       1  LIG1        0.0836
     21 C          -8.9375    2.0405    0.3280 C.1     1  LIG1       -0.0675
     22 C         -10.1102    1.7820    0.4129 C.1     1  LIG1       -0.1138
     23 H         -11.1520    1.5707    0.4918 H       1  LIG1        0.1232
     24 C          -7.2194    5.9761    0.7246 C.ar    1  LIG1        0.0375
     25 C          -7.7354    4.8206    0.1282 C.ar    1  LIG1        0.0208
     26 C          -8.9451    4.9515   -0.5387 C.ar    1  LIG1       -0.0336
     27 C          -9.6100    6.1813   -0.5640 C.ar    1  LIG1        0.0513
     28 C          -9.0290    7.2661    0.1220 C.ar    1  LIG1        0.0878
     29 N          -7.8431    7.1440    0.7302 N.ar    1  LIG1       -0.2530
     30 H          -9.3828    4.1151   -1.0671 H       1  LIG1        0.0637
     31 H          -6.2537    5.9322    1.2179 H       1  LIG1        0.0836
     32 C         -10.8144    6.2802   -1.3322 C.1     1  LIG1       -0.0675
     33 C         -11.8123    6.3049   -2.0049 C.1     1  LIG1       -0.1138
     34 H         -12.6980    6.3516   -2.5961 H       1  LIG1        0.1232
     35 C         -11.0158    8.8256    0.3233 C.ar    1  LIG1        0.0368
     36 C          -9.6398    8.6162    0.2081 C.ar    1  LIG1        0.0208
     37 C          -8.8138    9.7368    0.2397 C.ar    1  LIG1       -0.0342
     38 C          -9.3814   11.0047    0.3431 C.ar    1  LIG1        0.0434
     39 C         -10.7766   11.0895    0.4297 C.ar    1  LIG1        0.0430
     40 N         -11.5754   10.0299    0.4318 N.ar    1  LIG1       -0.2614
     41 H          -7.7391    9.6120    0.1903 H       1  LIG1        0.0637
     42 H         -11.2520   12.0639    0.5081 H       1  LIG1        0.0842
     43 H         -11.6977    7.9827    0.3445 H       1  LIG1        0.0836
     44 C          -8.5773   12.1877    0.3632 C.1     1  LIG1       -0.0681
     45 C          -7.9069   13.1870    0.3801 C.1     1  LIG1       -0.1139
     46 H          -7.3119   14.0709    0.3955 H       1  LIG1        0.1232
@<TRIPOS>BOND
     1    12    11    1
     2    34    33    1
     3    33    32    3
     4    11    10    3
     5    32    27    1
     6    10     4    1
     7    30    26    1
     8     7     3    1
     9    27    26   ar
    10    27    28   ar
    11    26    25   ar
    12     4     3   ar
    13     4     5   ar
    14     3     2   ar
    15    28    36    1
    16    28    29   ar
    17    25    17    1
    18    25    24   ar
    19    17    18   ar
    20    17    16   ar
    21    41    37    1
    22    18    13   ar
    23    36    37   ar
    24    36    35   ar
    25    14    13   ar
    26    14    15   ar
    27    14     5    1
    28    13    20    1
    29    37    38   ar
    30    16    15   ar
    31    16    21    1
    32    15    19    1
    33     5     6   ar
    34    35    43    1
    35    35    40   ar
    36    21    22    3
    37    38    44    1
    38    38    39   ar
    39    44    45    3
    40    45    46    1
    41    22    23    1
    42    39    40   ar
    43    39    42    1
    44     2     8    1
    45     2     1   ar
    46    24    29   ar
    47    24    31    1
    48     6     1   ar
    49     1     9    1
