@<TRIPOS>MOLECULE
mol_data/opt/cam/geoms/mol2/6ae6ae-4ae6ae.out
 47 50 0 0 0
SMALL
GASTEIGER

@<TRIPOS>ATOM
      1 C          -4.3557   -2.0914   -0.8632 C.ar    1  LIG1        0.0283
      2 C          -2.9956   -2.1933   -0.5992 C.ar    1  LIG1       -0.0424
      3 C          -2.3476   -1.0750   -0.1093 C.ar    1  LIG1       -0.0428
      4 C          -3.0587    0.1138    0.0876 C.ar    1  LIG1        0.0507
      5 C          -4.4294    0.1265   -0.2481 C.ar    1  LIG1        0.0878
      6 N          -5.0484   -0.9711   -0.6959 N.ar    1  LIG1       -0.2537
      7 H          -1.2927   -1.1028    0.1402 H       1  LIG1        0.0631
      8 H          -2.4671   -3.1254   -0.7610 H       1  LIG1        0.0633
      9 H          -4.9152   -2.9492   -1.2285 H       1  LIG1        0.0830
     10 C          -2.3698    1.2295    0.6614 C.1     1  LIG1       -0.0675
     11 C          -1.7367    2.1239    1.1599 C.1     1  LIG1       -0.1138
     12 H          -1.1950    2.9290    1.6013 H       1  LIG1        0.1232
     13 C          -4.8745    2.6246   -0.3665 C.ar    1  LIG1        0.0375
     14 C          -5.3015    1.3202   -0.1147 C.ar    1  LIG1        0.0208
     15 C          -6.6374    1.1574    0.2301 C.ar    1  LIG1       -0.0336
     16 C          -7.4858    2.2598    0.3333 C.ar    1  LIG1        0.0512
     17 C          -6.9547    3.5353    0.0414 C.ar    1  LIG1        0.0864
     18 N          -5.6693    3.6842   -0.2932 N.ar    1  LIG1       -0.2531
     19 H          -7.0206    0.1635    0.4259 H       1  LIG1        0.0637
     20 H          -3.8490    2.8229   -0.6584 H       1  LIG1        0.0836
     21 C          -8.8297    2.0336    0.7733 C.1     1  LIG1       -0.0675
     22 C          -9.9400    1.7763    1.1607 C.1     1  LIG1       -0.1138
     23 H         -10.9281    1.5712    1.5037 H       1  LIG1        0.1232
     24 C          -7.0928    5.9757    0.4734 C.ar    1  LIG1       -0.0519
     25 C          -7.7833    7.1738    0.5178 C.ar    1  LIG1       -0.0522
     26 C          -7.7388    4.7969    0.0922 C.ar    1  LIG1        0.0027
     27 C          -9.1330    7.2543    0.1691 C.ar    1  LIG1       -0.0010
     28 H          -7.2731    8.0730    0.8472 H       1  LIG1        0.0624
     29 C          -9.0792    4.8664   -0.2744 C.ar    1  LIG1       -0.0365
     30 C          -9.7822    6.0755   -0.2456 C.ar    1  LIG1        0.0330
     31 H          -9.6014    3.9816   -0.6118 H       1  LIG1        0.0636
     32 H          -6.0424    5.9345    0.7345 H       1  LIG1        0.0624
     33 C         -11.1465    6.0728   -0.6873 C.1     1  LIG1       -0.0690
     34 C         -12.2864    6.0310   -1.0721 C.1     1  LIG1       -0.1139
     35 H         -13.2963    6.0099   -1.4118 H       1  LIG1        0.1232
     36 C         -11.0492    8.7252    0.8825 C.ar    1  LIG1        0.0354
     37 C          -9.8213    8.5659    0.2320 C.ar    1  LIG1        0.0025
     38 C          -9.2421    9.7030   -0.3216 C.ar    1  LIG1       -0.0357
     39 C          -9.8961   10.9318   -0.2189 C.ar    1  LIG1        0.0433
     40 C         -11.1238   10.9615    0.4507 C.ar    1  LIG1        0.0430
     41 N         -11.6870    9.8875    0.9926 N.ar    1  LIG1       -0.2614
     42 H          -8.2942    9.6384   -0.8447 H       1  LIG1        0.0637
     43 H         -11.6617   11.9009    0.5466 H       1  LIG1        0.0842
     44 H         -11.5307    7.8678    1.3428 H       1  LIG1        0.0836
     45 C          -9.3402   12.1242   -0.7798 C.1     1  LIG1       -0.0681
     46 C          -8.8750   13.1297   -1.2499 C.1     1  LIG1       -0.1139
     47 H          -8.4645   14.0206   -1.6666 H       1  LIG1        0.1232
@<TRIPOS>BOND
     1    47    46    1
     2    35    34    1
     3    46    45    3
     4     9     1    1
     5    34    33    3
     6     1     6   ar
     7     1     2   ar
     8    42    38    1
     9    45    39    1
    10     8     2    1
    11     6     5   ar
    12    33    30    1
    13    20    13    1
    14    31    29    1
    15     2     3   ar
    16    13    18   ar
    17    13    14   ar
    18    38    39   ar
    19    38    37   ar
    20    18    17   ar
    21    29    30   ar
    22    29    26   ar
    23     5    14    1
    24     5     4   ar
    25    30    27   ar
    26    39    40   ar
    27    14    15   ar
    28     3     4   ar
    29     3     7    1
    30    17    26    1
    31    17    16   ar
    32     4    10    1
    33    26    24   ar
    34    27    37    1
    35    27    25   ar
    36    15    16   ar
    37    15    19    1
    38    37    36   ar
    39    16    21    1
    40    40    43    1
    41    40    41   ar
    42    24    25   ar
    43    24    32    1
    44    25    28    1
    45    10    11    3
    46    21    22    3
    47    36    41   ar
    48    36    44    1
    49    11    12    1
    50    22    23    1
