@<TRIPOS>MOLECULE
mol_data/opt/cam/geoms/mol2/6ae6ae-.out
 24 25 0 0 0
SMALL
GASTEIGER

@<TRIPOS>ATOM
      1 C          -4.4866   -2.0348    0.4133 C.ar    1  LIG1        0.0283
      2 C          -3.1287   -2.0872    0.1251 C.ar    1  LIG1       -0.0424
      3 C          -2.4843   -0.8999   -0.1676 C.ar    1  LIG1       -0.0428
      4 C          -3.1971    0.3038   -0.1489 C.ar    1  LIG1        0.0507
      5 C          -4.5652    0.2558    0.1941 C.ar    1  LIG1        0.0878
      6 N          -5.1810   -0.9034    0.4484 N.ar    1  LIG1       -0.2537
      7 H          -1.4314   -0.8825   -0.4263 H       1  LIG1        0.0631
      8 H          -2.5991   -3.0328    0.1181 H       1  LIG1        0.0633
      9 H          -5.0430   -2.9440    0.6280 H       1  LIG1        0.0830
     10 C          -2.5146    1.5048   -0.5237 C.1     1  LIG1       -0.0675
     11 C          -1.8889    2.4759   -0.8620 C.1     1  LIG1       -0.1138
     12 H          -1.3559    3.3506   -1.1574 H       1  LIG1        0.1232
     13 C          -4.9992    2.6830    0.7786 C.ar    1  LIG1        0.0368
     14 C          -5.4364    1.4565    0.2747 C.ar    1  LIG1        0.0208
     15 C          -6.7712    1.3565   -0.1078 C.ar    1  LIG1       -0.0342
     16 C          -7.5974    2.4741   -0.0130 C.ar    1  LIG1        0.0434
     17 C          -7.0389    3.6569    0.4877 C.ar    1  LIG1        0.0430
     18 N          -5.7771    3.7594    0.8849 N.ar    1  LIG1       -0.2614
     19 H          -7.1569    0.4112   -0.4693 H       1  LIG1        0.0637
     20 H          -7.6550    4.5484    0.5717 H       1  LIG1        0.0842
     21 H          -3.9788    2.7995    1.1271 H       1  LIG1        0.0836
     22 C          -8.9712    2.4276   -0.4085 C.1     1  LIG1       -0.0681
     23 C         -10.1276    2.3956   -0.7404 C.1     1  LIG1       -0.1139
     24 H         -11.1516    2.3661   -1.0340 H       1  LIG1        0.1232
@<TRIPOS>BOND
     1    12    11    1
     2    24    23    1
     3    11    10    3
     4    23    22    3
     5    10     4    1
     6    19    15    1
     7     7     3    1
     8    22    16    1
     9     3     4   ar
    10     3     2   ar
    11     4     5   ar
    12    15    16   ar
    13    15    14   ar
    14    16    17   ar
    15     8     2    1
    16     2     1   ar
    17     5    14    1
    18     5     6   ar
    19    14    13   ar
    20     1     6   ar
    21     1     9    1
    22    17    20    1
    23    17    18   ar
    24    13    18   ar
    25    13    21    1
