@<TRIPOS>MOLECULE
mol_data/opt/cam/geoms/mol2/6ae6ae-6ae-6ae-.out
 46 49 0 0 0
SMALL
GASTEIGER

@<TRIPOS>ATOM
      1 C          -3.8607   -1.9162    0.8472 C.ar    1  LIG1        0.0283
      2 C          -2.6821   -2.0128    0.1178 C.ar    1  LIG1       -0.0424
      3 C          -2.3280   -0.9429   -0.6825 C.ar    1  LIG1       -0.0428
      4 C          -3.1394    0.1963   -0.7240 C.ar    1  LIG1        0.0507
      5 C          -4.2964    0.2118    0.0838 C.ar    1  LIG1        0.0878
      6 N          -4.6400   -0.8414    0.8325 N.ar    1  LIG1       -0.2537
      7 H          -1.4331   -0.9724   -1.2939 H       1  LIG1        0.0631
      8 H          -2.0703   -2.9058    0.1681 H       1  LIG1        0.0633
      9 H          -4.1936   -2.7396    1.4743 H       1  LIG1        0.0830
     10 C          -2.7780    1.2569   -1.6146 C.1     1  LIG1       -0.0675
     11 C          -2.4291    2.1068   -2.3924 C.1     1  LIG1       -0.1138
     12 H          -2.1389    2.8730   -3.0746 H       1  LIG1        0.1232
     13 C          -4.8266    2.6946    0.1063 C.ar    1  LIG1        0.0375
     14 C          -5.2338    1.3604    0.1575 C.ar    1  LIG1        0.0208
     15 C          -6.5880    1.1287    0.3647 C.ar    1  LIG1       -0.0336
     16 C          -7.4858    2.1924    0.4543 C.ar    1  LIG1        0.0513
     17 C          -6.9745    3.5018    0.3274 C.ar    1  LIG1        0.0878
     18 N          -5.6641    3.7203    0.1853 N.ar    1  LIG1       -0.2530
     19 H          -6.9435    0.1115    0.4742 H       1  LIG1        0.0637
     20 H          -3.7768    2.9481    0.0091 H       1  LIG1        0.0836
     21 C          -8.8626    1.8974    0.7144 C.1     1  LIG1       -0.0675
     22 C         -10.0035    1.5900    0.9447 C.1     1  LIG1       -0.1138
     23 H         -11.0173    1.3352    1.1535 H       1  LIG1        0.1232
     24 C          -7.2748    5.8970    0.9233 C.ar    1  LIG1        0.0375
     25 C          -7.8084    4.7272    0.3716 C.ar    1  LIG1        0.0208
     26 C          -9.0968    4.8096   -0.1361 C.ar    1  LIG1       -0.0336
     27 C          -9.8009    6.0167   -0.0865 C.ar    1  LIG1        0.0513
     28 C          -9.1617    7.1388    0.4767 C.ar    1  LIG1        0.0878
     29 N          -7.9243    7.0492    0.9791 N.ar    1  LIG1       -0.2530
     30 H          -9.5783    3.9469   -0.5768 H       1  LIG1        0.0637
     31 H          -6.2693    5.8804    1.3314 H       1  LIG1        0.0836
     32 C         -11.1453    6.0310   -0.5793 C.1     1  LIG1       -0.0675
     33 C         -12.2729    5.9782   -0.9977 C.1     1  LIG1       -0.1138
     34 H         -13.2744    5.9525   -1.3618 H       1  LIG1        0.1232
     35 C          -9.4825    9.2788    1.6953 C.ar    1  LIG1        0.0368
     36 C          -9.7855    8.4810    0.5858 C.ar    1  LIG1        0.0208
     37 C         -10.6295    9.0188   -0.3791 C.ar    1  LIG1       -0.0342
     38 C         -11.1440   10.3039   -0.1975 C.ar    1  LIG1        0.0434
     39 C         -10.7830   10.9972    0.9617 C.ar    1  LIG1        0.0430
     40 N          -9.9706   10.5004    1.8887 N.ar    1  LIG1       -0.2614
     41 H         -10.8850    8.4635   -1.2718 H       1  LIG1        0.0637
     42 H         -11.1706   11.9982    1.1326 H       1  LIG1        0.0842
     43 H          -8.8079    8.8931    2.4531 H       1  LIG1        0.0836
     44 C         -12.0090   10.9038   -1.1662 C.1     1  LIG1       -0.0681
     45 C         -12.7375   11.4126   -1.9780 C.1     1  LIG1       -0.1139
     46 H         -13.3808   11.8654   -2.6968 H       1  LIG1        0.1232
@<TRIPOS>BOND
     1    12    11    1
     2    46    45    1
     3    11    10    3
     4    45    44    3
     5    10     4    1
     6    34    33    1
     7     7     3    1
     8    41    37    1
     9    44    38    1
    10    33    32    3
    11     4     3   ar
    12     4     5   ar
    13     3     2   ar
    14    32    27    1
    15    30    26    1
    16    37    38   ar
    17    37    36   ar
    18    38    39   ar
    19    26    27   ar
    20    26    25   ar
    21    27    28   ar
    22    20    13    1
    23     5    14    1
    24     5     6   ar
    25    13    14   ar
    26    13    18   ar
    27     2     8    1
    28     2     1   ar
    29    14    15   ar
    30    18    17   ar
    31    17    25    1
    32    17    16   ar
    33    15    16   ar
    34    15    19    1
    35    25    24   ar
    36    16    21    1
    37    28    36    1
    38    28    29   ar
    39    36    35   ar
    40    21    22    3
    41     6     1   ar
    42     1     9    1
    43    24    29   ar
    44    24    31    1
    45    22    23    1
    46    39    42    1
    47    39    40   ar
    48    35    40   ar
    49    35    43    1
