@<TRIPOS>MOLECULE
mol_data/opt/cam/geoms/mol2/6ae6ae6ae6ae-.out
 46 49 0 0 0
SMALL
GASTEIGER

@<TRIPOS>ATOM
      1 C          -4.0981   -1.7535   -1.5630 C.ar    1  LIG1        0.0283
      2 C          -3.0123   -2.1427   -0.7887 C.ar    1  LIG1       -0.0424
      3 C          -2.6221   -1.3092    0.2426 C.ar    1  LIG1       -0.0428
      4 C          -3.3065   -0.1097    0.4673 C.ar    1  LIG1        0.0507
      5 C          -4.3751    0.2122   -0.3966 C.ar    1  LIG1        0.0878
      6 N          -4.7555   -0.6152   -1.3757 N.ar    1  LIG1       -0.2537
      7 H          -1.7965   -1.5725    0.8943 H       1  LIG1        0.0631
      8 H          -2.4981   -3.0765   -0.9838 H       1  LIG1        0.0633
      9 H          -4.4554   -2.3838   -2.3736 H       1  LIG1        0.0830
     10 C          -2.9134    0.6983    1.5814 C.1     1  LIG1       -0.0675
     11 C          -2.5436    1.3269    2.5392 C.1     1  LIG1       -0.1138
     12 H          -2.2331    1.8959    3.3857 H       1  LIG1        0.1232
     13 C          -6.5377    1.4197   -0.6153 C.ar    1  LIG1        0.0375
     14 C          -5.1775    1.4561   -0.2907 C.ar    1  LIG1        0.0208
     15 C          -4.6585    2.6877    0.0803 C.ar    1  LIG1       -0.0336
     16 C          -5.4786    3.8198    0.1167 C.ar    1  LIG1        0.0513
     17 C          -6.8319    3.6736   -0.2467 C.ar    1  LIG1        0.0878
     18 N          -7.3306    2.4792   -0.5882 N.ar    1  LIG1       -0.2530
     19 H          -3.6155    2.7956    0.3464 H       1  LIG1        0.0637
     20 H          -6.9878    0.4781   -0.9137 H       1  LIG1        0.0836
     21 C          -4.8996    5.0534    0.5561 C.1     1  LIG1       -0.0675
     22 C          -4.3592    6.0568    0.9443 C.1     1  LIG1       -0.1138
     23 H          -3.9000    6.9557    1.2869 H       1  LIG1        0.1232
     24 C          -9.1506    4.5168    0.0498 C.ar    1  LIG1        0.0375
     25 C          -7.8143    4.7842   -0.2675 C.ar    1  LIG1        0.0208
     26 C          -7.5074    6.0912   -0.6169 C.ar    1  LIG1       -0.0336
     27 C          -8.5061    7.0698   -0.6454 C.ar    1  LIG1        0.0513
     28 C          -9.8235    6.6863   -0.3274 C.ar    1  LIG1        0.0878
     29 N         -10.1103    5.4281    0.0281 N.ar    1  LIG1       -0.2530
     30 H          -6.4959    6.3770   -0.8721 H       1  LIG1        0.0637
     31 H          -9.4381    3.5081    0.3291 H       1  LIG1        0.0836
     32 C          -8.1210    8.4135   -0.9563 C.1     1  LIG1       -0.0675
     33 C          -7.7330    9.5245   -1.2098 C.1     1  LIG1       -0.1138
     34 H          -7.4145   10.5165   -1.4347 H       1  LIG1        0.1232
     35 C         -11.1386    8.6412   -1.2634 C.ar    1  LIG1        0.0368
     36 C         -10.9831    7.6134   -0.3307 C.ar    1  LIG1        0.0208
     37 C         -12.0056    7.4257    0.5958 C.ar    1  LIG1       -0.0342
     38 C         -13.1067    8.2788    0.5849 C.ar    1  LIG1        0.0434
     39 C         -13.1397    9.2884   -0.3852 C.ar    1  LIG1        0.0430
     40 N         -12.1887    9.4609   -1.2942 N.ar    1  LIG1       -0.2614
     41 H         -11.9388    6.6151    1.3109 H       1  LIG1        0.0637
     42 H         -13.9829    9.9735   -0.4193 H       1  LIG1        0.0842
     43 H         -10.3898    8.8017   -2.0310 H       1  LIG1        0.0836
     44 C         -14.1749    8.1378    1.5259 C.1     1  LIG1       -0.0681
     45 C         -15.0766    8.0254    2.3150 C.1     1  LIG1       -0.1139
     46 H         -15.8748    7.9237    3.0137 H       1  LIG1        0.1232
@<TRIPOS>BOND
     1     9     1    1
     2    43    35    1
     3     1     6   ar
     4     1     2   ar
     5    34    33    1
     6     6     5   ar
     7    40    35   ar
     8    40    39   ar
     9    35    36   ar
    10    33    32    3
    11     8     2    1
    12    32    27    1
    13    20    13    1
    14    30    26    1
    15     2     3   ar
    16    27    26   ar
    17    27    28   ar
    18    26    25   ar
    19    13    18   ar
    20    13    14   ar
    21    18    17   ar
    22    42    39    1
    23     5    14    1
    24     5     4   ar
    25    39    38   ar
    26    36    28    1
    27    36    37   ar
    28    28    29   ar
    29    14    15   ar
    30    25    17    1
    31    25    24   ar
    32    17    16   ar
    33    29    24   ar
    34    24    31    1
    35    15    16   ar
    36    15    19    1
    37    16    21    1
    38     3     4   ar
    39     3     7    1
    40     4    10    1
    41    21    22    3
    42    38    37   ar
    43    38    44    1
    44    37    41    1
    45    22    23    1
    46    44    45    3
    47    10    11    3
    48    45    46    1
    49    11    12    1
