@<TRIPOS>MOLECULE
mol_data/opt/cam/geoms/mol2/6ae6ae-6ae6ae-.out
 46 49 0 0 0
SMALL
GASTEIGER

@<TRIPOS>ATOM
      1 C          -4.4271   -2.1364    0.7018 C.ar    1  LIG1        0.0283
      2 C          -3.0650   -2.2440    0.4499 C.ar    1  LIG1       -0.0424
      3 C          -2.3919   -1.1081    0.0412 C.ar    1  LIG1       -0.0428
      4 C          -3.0809    0.1028   -0.0888 C.ar    1  LIG1        0.0507
      5 C          -4.4558    0.1167    0.2285 C.ar    1  LIG1        0.0878
      6 N          -5.0991   -0.9961    0.5968 N.ar    1  LIG1       -0.2537
      7 H          -1.3342   -1.1380   -0.1953 H       1  LIG1        0.0631
      8 H          -2.5540   -3.1934    0.5590 H       1  LIG1        0.0633
      9 H          -5.0053   -3.0061    1.0041 H       1  LIG1        0.0830
     10 C          -2.3664    1.2416   -0.5801 C.1     1  LIG1       -0.0675
     11 C          -1.7132    2.1562   -1.0112 C.1     1  LIG1       -0.1138
     12 H          -1.1528    2.9793   -1.3920 H       1  LIG1        0.1232
     13 C          -4.8616    2.6096    0.4998 C.ar    1  LIG1        0.0375
     14 C          -5.3070    1.3312    0.1601 C.ar    1  LIG1        0.0208
     15 C          -6.6404    1.2122   -0.2114 C.ar    1  LIG1       -0.0336
     16 C          -7.4695    2.3333   -0.2558 C.ar    1  LIG1        0.0513
     17 C          -6.9204    3.5767    0.1237 C.ar    1  LIG1        0.0878
     18 N          -5.6383    3.6850    0.4840 N.ar    1  LIG1       -0.2530
     19 H          -7.0363    0.2391   -0.4744 H       1  LIG1        0.0637
     20 H          -3.8371    2.7716    0.8159 H       1  LIG1        0.0836
     21 C          -8.8109    2.1643   -0.7270 C.1     1  LIG1       -0.0675
     22 C          -9.9215    1.9611   -1.1446 C.1     1  LIG1       -0.1138
     23 H         -10.9089    1.8004   -1.5127 H       1  LIG1        0.1232
     24 C          -9.0291    4.9464    0.4895 C.ar    1  LIG1        0.0375
     25 C          -7.6807    4.8508    0.1417 C.ar    1  LIG1        0.0208
     26 C          -7.0263    6.0406   -0.1539 C.ar    1  LIG1       -0.0336
     27 C          -7.7093    7.2562   -0.1189 C.ar    1  LIG1        0.0513
     28 C          -9.0682    7.2404    0.2612 C.ar    1  LIG1        0.0878
     29 N          -9.6920    6.0945    0.5486 N.ar    1  LIG1       -0.2530
     30 H          -5.9766    6.0196   -0.4197 H       1  LIG1        0.0637
     31 H          -9.5964    4.0598    0.7494 H       1  LIG1        0.0836
     32 C          -7.0074    8.4399   -0.5150 C.1     1  LIG1       -0.0675
     33 C          -6.3705    9.3969   -0.8718 C.1     1  LIG1       -0.1138
     34 H          -5.8249   10.2577   -1.1840 H       1  LIG1        0.1232
     35 C          -9.4433    9.6853    0.8173 C.ar    1  LIG1        0.0368
     36 C          -9.9171    8.4549    0.3568 C.ar    1  LIG1        0.0208
     37 C         -11.2686    8.3664    0.0338 C.ar    1  LIG1       -0.0342
     38 C         -12.0758    9.4965    0.1419 C.ar    1  LIG1        0.0434
     39 C         -11.4815   10.6810    0.5948 C.ar    1  LIG1        0.0430
     40 N         -10.2026   10.7740    0.9355 N.ar    1  LIG1       -0.2614
     41 H         -11.6810    7.4193   -0.2916 H       1  LIG1        0.0637
     42 H         -12.0821   11.5823    0.6875 H       1  LIG1        0.0842
     43 H          -8.4078    9.7948    1.1196 H       1  LIG1        0.0836
     44 C         -13.4661    9.4609   -0.1932 C.1     1  LIG1       -0.0681
     45 C         -14.6362    9.4383   -0.4740 C.1     1  LIG1       -0.1139
     46 H         -15.6723    9.4174   -0.7222 H       1  LIG1        0.1232
@<TRIPOS>BOND
     1    23    22    1
     2    12    11    1
     3    34    33    1
     4    22    21    3
     5    11    10    3
     6    33    32    3
     7    21    16    1
     8    46    45    1
     9    10     4    1
    10    32    27    1
    11    19    15    1
    12    45    44    3
    13    30    26    1
    14    41    37    1
    15    16    15   ar
    16    16    17   ar
    17    15    14   ar
    18     7     3    1
    19    44    38    1
    20    26    27   ar
    21    26    25   ar
    22    27    28   ar
    23     4     3   ar
    24     4     5   ar
    25    37    38   ar
    26    37    36   ar
    27     3     2   ar
    28    17    25    1
    29    17    18   ar
    30    25    24   ar
    31    38    39   ar
    32    14     5    1
    33    14    13   ar
    34     5     6   ar
    35    28    36    1
    36    28    29   ar
    37    36    35   ar
    38     2     8    1
    39     2     1   ar
    40    18    13   ar
    41    24    29   ar
    42    24    31    1
    43    13    20    1
    44    39    42    1
    45    39    40   ar
    46     6     1   ar
    47     1     9    1
    48    35    40   ar
    49    35    43    1
