@<TRIPOS>MOLECULE
mol_data/opt/cam/geoms/mol2/6ae6ae6ae-6ae-.out
 46 49 0 0 0
SMALL
GASTEIGER

@<TRIPOS>ATOM
      1 C          -4.4898   -2.1748   -0.0218 C.ar    1  LIG1        0.0283
      2 C          -3.1087   -2.2841    0.0818 C.ar    1  LIG1       -0.0424
      3 C          -2.3751   -1.1186    0.1997 C.ar    1  LIG1       -0.0428
      4 C          -3.0271    0.1192    0.1965 C.ar    1  LIG1        0.0507
      5 C          -4.4310    0.1255    0.0524 C.ar    1  LIG1        0.0878
      6 N          -5.1292   -1.0113   -0.0383 N.ar    1  LIG1       -0.2537
      7 H          -1.2964   -1.1436    0.3068 H       1  LIG1        0.0631
      8 H          -2.6275   -3.2551    0.0811 H       1  LIG1        0.0633
      9 H          -5.1120   -3.0632   -0.0978 H       1  LIG1        0.0830
     10 C          -2.2423    1.3018    0.3814 C.1     1  LIG1       -0.0675
     11 C          -1.5298    2.2570    0.5521 C.1     1  LIG1       -0.1138
     12 H          -0.9160    3.1151    0.7057 H       1  LIG1        0.1232
     13 C          -6.5406    1.3446    0.5533 C.ar    1  LIG1        0.0375
     14 C          -5.2491    1.3630    0.0160 C.ar    1  LIG1        0.0208
     15 C          -4.8387    2.5473   -0.5782 C.ar    1  LIG1       -0.0336
     16 C          -5.6820    3.6628   -0.5903 C.ar    1  LIG1        0.0513
     17 C          -6.9401    3.5516    0.0337 C.ar    1  LIG1        0.0878
     18 N          -7.3462    2.3947    0.5706 N.ar    1  LIG1       -0.2530
     19 H          -3.8730    2.6234   -1.0600 H       1  LIG1        0.0637
     20 H          -6.9221    0.4257    0.9871 H       1  LIG1        0.0836
     21 C          -5.2401    4.8349   -1.2838 C.1     1  LIG1       -0.0675
     22 C          -4.8214    5.7850   -1.8928 C.1     1  LIG1       -0.1138
     23 H          -4.4720    6.6377   -2.4287 H       1  LIG1        0.1232
     24 C          -7.5571    5.9982    0.3023 C.ar    1  LIG1        0.0375
     25 C          -7.9192    4.6616    0.1266 C.ar    1  LIG1        0.0208
     26 C          -9.2801    4.3797    0.1164 C.ar    1  LIG1       -0.0336
     27 C         -10.2186    5.4064    0.2179 C.ar    1  LIG1        0.0513
     28 C          -9.7423    6.7304    0.3311 C.ar    1  LIG1        0.0878
     29 N          -8.4335    6.9896    0.3978 N.ar    1  LIG1       -0.2530
     30 H          -9.6094    3.3504    0.0454 H       1  LIG1        0.0637
     31 H          -6.5132    6.2809    0.3812 H       1  LIG1        0.0836
     32 C         -11.6070    5.0571    0.2459 C.1     1  LIG1       -0.0675
     33 C         -12.7575    4.7042    0.2749 C.1     1  LIG1       -0.1138
     34 H         -13.7811    4.4083    0.3065 H       1  LIG1        0.1232
     35 C         -10.2204    9.0064    1.2059 C.ar    1  LIG1        0.0368
     36 C         -10.6231    7.9217    0.4183 C.ar    1  LIG1        0.0208
     37 C         -11.8195    8.0446   -0.2790 C.ar    1  LIG1       -0.0342
     38 C         -12.5643    9.2191   -0.1564 C.ar    1  LIG1        0.0434
     39 C         -12.0664   10.2277    0.6741 C.ar    1  LIG1        0.0430
     40 N         -10.9212   10.1282    1.3411 N.ar    1  LIG1       -0.2614
     41 H         -12.1768    7.2507   -0.9216 H       1  LIG1        0.0637
     42 H         -12.6257   11.1522    0.7919 H       1  LIG1        0.0842
     43 H          -9.2804    8.9456    1.7449 H       1  LIG1        0.0836
     44 C         -13.7964    9.3970   -0.8610 C.1     1  LIG1       -0.0681
     45 C         -14.8338    9.5511   -1.4515 C.1     1  LIG1       -0.1139
     46 H         -15.7517    9.6895   -1.9748 H       1  LIG1        0.1232
@<TRIPOS>BOND
     1    23    22    1
     2    46    45    1
     3    22    21    3
     4    45    44    3
     5    21    16    1
     6    19    15    1
     7    41    37    1
     8    44    38    1
     9    16    15   ar
    10    16    17   ar
    11    15    14   ar
    12    37    38   ar
    13    37    36   ar
    14    38    39   ar
    15     9     1    1
    16     6     1   ar
    17     6     5   ar
    18     1     2   ar
    19    14     5    1
    20    14    13   ar
    21    17    25    1
    22    17    18   ar
    23    30    26    1
    24     5     4   ar
    25     8     2    1
    26     2     3   ar
    27    26    25   ar
    28    26    27   ar
    29    25    24   ar
    30     4     3   ar
    31     4    10    1
    32     3     7    1
    33    27    32    1
    34    27    28   ar
    35    32    33    3
    36    33    34    1
    37    24    31    1
    38    24    29   ar
    39    28    29   ar
    40    28    36    1
    41    10    11    3
    42    36    35   ar
    43    11    12    1
    44    13    18   ar
    45    13    20    1
    46    39    42    1
    47    39    40   ar
    48    35    40   ar
    49    35    43    1
