@<TRIPOS>MOLECULE
mol_data/opt/cam/geoms/mol2/6ae6ae6ae.out
 35 37 0 0 0
SMALL
GASTEIGER

@<TRIPOS>ATOM
      1 C          -4.5593   -1.9458   -1.1023 C.ar    1  LIG1        0.0283
      2 C          -3.2472   -2.2032   -0.7255 C.ar    1  LIG1       -0.0424
      3 C          -2.5556   -1.2027   -0.0684 C.ar    1  LIG1       -0.0428
      4 C          -3.1763    0.0258    0.1821 C.ar    1  LIG1        0.0507
      5 C          -4.5015    0.2008   -0.2714 C.ar    1  LIG1        0.0878
      6 N          -5.1650   -0.7843   -0.8856 N.ar    1  LIG1       -0.2537
      7 H          -1.5369   -1.3549    0.2702 H       1  LIG1        0.0631
      8 H          -2.7887   -3.1631   -0.9321 H       1  LIG1        0.0633
      9 H          -5.1513   -2.7071   -1.6044 H       1  LIG1        0.0830
     10 C          -2.4509    1.0155    0.9190 C.1     1  LIG1       -0.0675
     11 C          -1.7945    1.8014    1.5521 C.1     1  LIG1       -0.1138
     12 H          -1.2311    2.5099    2.1153 H       1  LIG1        0.1232
     13 C          -6.6578    1.3745    0.1210 C.ar    1  LIG1        0.0375
     14 C          -5.2776    1.4528   -0.0917 C.ar    1  LIG1        0.0208
     15 C          -4.7281    2.7248   -0.1553 C.ar    1  LIG1       -0.0336
     16 C          -5.5403    3.8541   -0.0118 C.ar    1  LIG1        0.0513
     17 C          -6.9223    3.6608    0.1827 C.ar    1  LIG1        0.0878
     18 N          -7.4440    2.4307    0.2586 N.ar    1  LIG1       -0.2530
     19 H          -3.6678    2.8666   -0.3164 H       1  LIG1        0.0637
     20 H          -7.1326    0.3999    0.1755 H       1  LIG1        0.0836
     21 C          -4.9128    5.1409   -0.0357 C.1     1  LIG1       -0.0675
     22 C          -4.3275    6.1928   -0.0530 C.1     1  LIG1       -0.1138
     23 H          -3.8287    7.1348   -0.0641 H       1  LIG1        0.1232
     24 C          -8.9939    4.5839    1.1942 C.ar    1  LIG1        0.0368
     25 C          -7.9003    4.7660    0.3400 C.ar    1  LIG1        0.0208
     26 C          -7.8194    5.9698   -0.3506 C.ar    1  LIG1       -0.0342
     27 C          -8.8071    6.9371   -0.1556 C.ar    1  LIG1        0.0434
     28 C          -9.8424    6.6464    0.7380 C.ar    1  LIG1        0.0430
     29 N          -9.9379    5.4975    1.3990 N.ar    1  LIG1       -0.2614
     30 H          -7.0117    6.1647   -1.0436 H       1  LIG1        0.0637
     31 H         -10.6239    7.3812    0.9132 H       1  LIG1        0.0842
     32 H          -9.0944    3.6447    1.7289 H       1  LIG1        0.0836
     33 C          -8.7729    8.1872   -0.8500 C.1     1  LIG1       -0.0681
     34 C          -8.7483    9.2406   -1.4317 C.1     1  LIG1       -0.1139
     35 H          -8.7297   10.1729   -1.9477 H       1  LIG1        0.1232
@<TRIPOS>BOND
     1    35    34    1
     2     9     1    1
     3    34    33    3
     4     1     6   ar
     5     1     2   ar
     6    30    26    1
     7     8     2    1
     8     6     5   ar
     9    33    27    1
    10     2     3   ar
    11    26    27   ar
    12    26    25   ar
    13    19    15    1
    14     5    14    1
    15     5     4   ar
    16    27    28   ar
    17    15    14   ar
    18    15    16   ar
    19    14    13   ar
    20     3     4   ar
    21     3     7    1
    22    23    22    1
    23    22    21    3
    24    21    16    1
    25    16    17   ar
    26    13    20    1
    27    13    18   ar
    28     4    10    1
    29    17    18   ar
    30    17    25    1
    31    25    24   ar
    32    28    31    1
    33    28    29   ar
    34    10    11    3
    35    24    29   ar
    36    24    32    1
    37    11    12    1
