@<TRIPOS>MOLECULE
mol_data/opt/cam/geoms/mol2/6ae6ae6ae6ae.out
 46 49 0 0 0
SMALL
GASTEIGER

@<TRIPOS>ATOM
      1 C          -4.5014   -1.8603   -1.6312 C.ar    1  LIG1        0.0283
      2 C          -3.3182   -2.2856   -1.0404 C.ar    1  LIG1       -0.0424
      3 C          -2.7237   -1.4524   -0.1114 C.ar    1  LIG1       -0.0428
      4 C          -3.3081   -0.2184    0.1938 C.ar    1  LIG1        0.0507
      5 C          -4.4926    0.1372   -0.4863 C.ar    1  LIG1        0.0878
      6 N          -5.0682   -0.6892   -1.3657 N.ar    1  LIG1       -0.2537
      7 H          -1.8119   -1.7421    0.3989 H       1  LIG1        0.0631
      8 H          -2.8850   -3.2459   -1.2947 H       1  LIG1        0.0633
      9 H          -5.0174   -2.4880   -2.3535 H       1  LIG1        0.0830
     10 C          -2.6984    0.5907    1.2050 C.1     1  LIG1       -0.0675
     11 C          -2.1465    1.2195    2.0706 C.1     1  LIG1       -0.1138
     12 H          -1.6743    1.7891    2.8381 H       1  LIG1        0.1232
     13 C          -6.6078    1.4382   -0.3634 C.ar    1  LIG1        0.0375
     14 C          -5.2117    1.4185   -0.2780 C.ar    1  LIG1        0.0208
     15 C          -4.5851    2.6315   -0.0339 C.ar    1  LIG1       -0.0336
     16 C          -5.3385    3.8004    0.1137 C.ar    1  LIG1        0.0513
     17 C          -6.7393    3.7091   -0.0067 C.ar    1  LIG1        0.0878
     18 N          -7.3392    2.5330   -0.2271 N.ar    1  LIG1       -0.2530
     19 H          -3.5082    2.6962    0.0463 H       1  LIG1        0.0637
     20 H          -7.1416    0.5130   -0.5560 H       1  LIG1        0.0836
     21 C          -4.6420    5.0147    0.4144 C.1     1  LIG1       -0.0675
     22 C          -4.0022    6.0001    0.6771 C.1     1  LIG1       -0.1138
     23 H          -3.4544    6.8837    0.9123 H       1  LIG1        0.1232
     24 C          -8.9306    4.6634    0.6736 C.ar    1  LIG1        0.0375
     25 C          -7.6626    4.8628    0.1168 C.ar    1  LIG1        0.0208
     26 C          -7.3688    6.1469   -0.3186 C.ar    1  LIG1       -0.0336
     27 C          -8.3140    7.1697   -0.1941 C.ar    1  LIG1        0.0513
     28 C          -9.5665    6.8553    0.3693 C.ar    1  LIG1        0.0878
     29 N          -9.8389    5.6180    0.8008 N.ar    1  LIG1       -0.2530
     30 H          -6.4091    6.3795   -0.7602 H       1  LIG1        0.0637
     31 H          -9.2065    3.6741    1.0246 H       1  LIG1        0.0836
     32 C          -7.9390    8.4862   -0.6144 C.1     1  LIG1       -0.0675
     33 C          -7.5630    9.5719   -0.9740 C.1     1  LIG1       -0.1138
     34 H          -7.2496   10.5417   -1.2860 H       1  LIG1        0.1232
     35 C         -11.4967    7.7165    1.6726 C.ar    1  LIG1        0.0368
     36 C         -10.6630    7.8381    0.5550 C.ar    1  LIG1        0.0208
     37 C         -10.9432    8.8592   -0.3459 C.ar    1  LIG1       -0.0342
     38 C         -12.0160    9.7165   -0.0949 C.ar    1  LIG1        0.0434
     39 C         -12.7660    9.5063    1.0662 C.ar    1  LIG1        0.0430
     40 N         -12.5164    8.5295    1.9320 N.ar    1  LIG1       -0.2614
     41 H         -10.3519    8.9931   -1.2420 H       1  LIG1        0.0637
     42 H         -13.6050   10.1599    1.2902 H       1  LIG1        0.0842
     43 H         -11.3153    6.9140    2.3804 H       1  LIG1        0.0836
     44 C         -12.3496   10.7760   -0.9964 C.1     1  LIG1       -0.0681
     45 C         -12.6340   11.6690   -1.7516 C.1     1  LIG1       -0.1139
     46 H         -12.8886   12.4584   -2.4206 H       1  LIG1        0.1232
@<TRIPOS>BOND
     1    46    45    1
     2     9     1    1
     3    45    44    3
     4     1     6   ar
     5     1     2   ar
     6     6     5   ar
     7     8     2    1
     8    34    33    1
     9    41    37    1
    10     2     3   ar
    11    44    38    1
    12    33    32    3
    13    30    26    1
    14    32    27    1
    15    20    13    1
    16     5    14    1
    17     5     4   ar
    18    13    14   ar
    19    13    18   ar
    20    37    38   ar
    21    37    36   ar
    22    26    27   ar
    23    26    25   ar
    24    14    15   ar
    25    18    17   ar
    26    27    28   ar
    27     3     4   ar
    28     3     7    1
    29    38    39   ar
    30    15    19    1
    31    15    16   ar
    32    17    16   ar
    33    17    25    1
    34    16    21    1
    35    25    24   ar
    36     4    10    1
    37    28    36    1
    38    28    29   ar
    39    21    22    3
    40    36    35   ar
    41    24    29   ar
    42    24    31    1
    43    22    23    1
    44    39    42    1
    45    39    40   ar
    46    10    11    3
    47    35    40   ar
    48    35    43    1
    49    11    12    1
