@<TRIPOS>MOLECULE
mol_data/opt/cam/geoms/mol2/6ae6ae6ae-6ae.out
 46 49 0 0 0
SMALL
GASTEIGER

@<TRIPOS>ATOM
      1 C          -4.5542   -2.1730   -0.3171 C.ar    1  LIG1        0.0283
      2 C          -3.2090   -2.3331   -0.0089 C.ar    1  LIG1       -0.0424
      3 C          -2.4889   -1.2080    0.3465 C.ar    1  LIG1       -0.0428
      4 C          -3.1163    0.0423    0.3717 C.ar    1  LIG1        0.0507
      5 C          -4.4787    0.1047    0.0091 C.ar    1  LIG1        0.0878
      6 N          -5.1678   -0.9956   -0.3107 N.ar    1  LIG1       -0.2537
      7 H          -1.4417   -1.2756    0.6194 H       1  LIG1        0.0631
      8 H          -2.7463   -3.3126   -0.0369 H       1  LIG1        0.0633
      9 H          -5.1674   -3.0301   -0.5842 H       1  LIG1        0.0830
     10 C          -2.3565    1.1763    0.8023 C.1     1  LIG1       -0.0675
     11 C          -1.6691    2.0881    1.1837 C.1     1  LIG1       -0.1138
     12 H          -1.0771    2.9075    1.5225 H       1  LIG1        0.1232
     13 C          -6.6246    1.3295    0.2977 C.ar    1  LIG1        0.0375
     14 C          -5.2642    1.3632   -0.0259 C.ar    1  LIG1        0.0208
     15 C          -4.7490    2.5882   -0.4237 C.ar    1  LIG1       -0.0336
     16 C          -5.5647    3.7236   -0.4536 C.ar    1  LIG1        0.0513
     17 C          -6.9073    3.5885   -0.0483 C.ar    1  LIG1        0.0878
     18 N          -7.4083    2.3963    0.2970 N.ar    1  LIG1       -0.2530
     19 H          -3.7182    2.6831   -0.7383 H       1  LIG1        0.0637
     20 H          -7.0827    0.3837    0.5690 H       1  LIG1        0.0836
     21 C          -5.0010    4.9434   -0.9479 C.1     1  LIG1       -0.0675
     22 C          -4.4746    5.9334   -1.3859 C.1     1  LIG1       -0.1138
     23 H          -4.0286    6.8206   -1.7737 H       1  LIG1        0.1232
     24 C          -7.5341    6.0156    0.3582 C.ar    1  LIG1        0.0375
     25 C          -7.8772    4.7096    0.0049 C.ar    1  LIG1        0.0208
     26 C          -9.2196    4.4659   -0.2595 C.ar    1  LIG1       -0.0336
     27 C         -10.1566    5.4968   -0.1892 C.ar    1  LIG1        0.0513
     28 C          -9.7037    6.7774    0.1935 C.ar    1  LIG1        0.0878
     29 N          -8.4125    7.0058    0.4504 N.ar    1  LIG1       -0.2530
     30 H          -9.5368    3.4659   -0.5281 H       1  LIG1        0.0637
     31 H          -6.5075    6.2718    0.5949 H       1  LIG1        0.0836
     32 C         -11.5110    5.2081   -0.5534 C.1     1  LIG1       -0.0675
     33 C         -12.6289    4.9089   -0.8844 C.1     1  LIG1       -0.1138
     34 H         -13.6251    4.6643   -1.1740 H       1  LIG1        0.1232
     35 C         -11.8905    7.8973    0.8193 C.ar    1  LIG1        0.0368
     36 C         -10.5861    7.9644    0.3247 C.ar    1  LIG1        0.0208
     37 C         -10.0851    9.2227    0.0015 C.ar    1  LIG1       -0.0342
     38 C         -10.9000   10.3435    0.1429 C.ar    1  LIG1        0.0434
     39 C         -12.1990   10.1476    0.6285 C.ar    1  LIG1        0.0430
     40 N         -12.6810    8.9595    0.9696 N.ar    1  LIG1       -0.2614
     41 H          -9.0653    9.3193   -0.3504 H       1  LIG1        0.0637
     42 H         -12.8624   11.0003    0.7477 H       1  LIG1        0.0842
     43 H         -12.3126    6.9457    1.1226 H       1  LIG1        0.0836
     44 C         -10.4373   11.6553   -0.1910 C.1     1  LIG1       -0.0681
     45 C         -10.0548   12.7617   -0.4703 C.1     1  LIG1       -0.1139
     46 H          -9.7155   13.7411   -0.7177 H       1  LIG1        0.1232
@<TRIPOS>BOND
     1    23    22    1
     2    22    21    3
     3    34    33    1
     4    21    16    1
     5    33    32    3
     6    19    15    1
     7    46    45    1
     8     9     1    1
     9    32    27    1
    10    30    26    1
    11    45    44    3
    12    16    15   ar
    13    16    17   ar
    14    15    14   ar
    15    41    37    1
    16     1     6   ar
    17     1     2   ar
    18     6     5   ar
    19    26    27   ar
    20    26    25   ar
    21    44    38    1
    22    27    28   ar
    23    17    25    1
    24    17    18   ar
    25     8     2    1
    26    14     5    1
    27    14    13   ar
    28     2     3   ar
    29    37    38   ar
    30    37    36   ar
    31    25    24   ar
    32     5     4   ar
    33    38    39   ar
    34    28    36    1
    35    28    29   ar
    36    18    13   ar
    37    13    20    1
    38    36    35   ar
    39     3     4   ar
    40     3     7    1
    41    24    29   ar
    42    24    31    1
    43     4    10    1
    44    39    42    1
    45    39    40   ar
    46    10    11    3
    47    35    40   ar
    48    35    43    1
    49    11    12    1
