@<TRIPOS>MOLECULE
mol_data/opt/cam/geoms/mol2/6af13hi-12ah12fd.out
 43 46 0 0 0
SMALL
GASTEIGER

@<TRIPOS>ATOM
      1 C          -4.6803   -2.0976   -0.1081 C.ar    1  LIG1        0.0286
      2 C          -3.3013   -2.2792   -0.1262 C.ar    1  LIG1       -0.0401
      3 C          -2.4934   -1.1588   -0.1243 C.ar    1  LIG1       -0.0166
      4 C          -3.0601    0.1180   -0.1044 C.ar    1  LIG1        0.1442
      5 C          -4.4685    0.2060   -0.0868 C.ar    1  LIG1        0.1301
      6 N          -5.2366   -0.8959   -0.0892 N.ar    1  LIG1       -0.2498
      7 H          -1.4114   -1.2292   -0.1378 H       1  LIG1        0.0655
      8 H          -2.8754   -3.2763   -0.1415 H       1  LIG1        0.0634
      9 H          -5.3585   -2.9467   -0.1089 H       1  LIG1        0.0830
     10 O          -2.2197    1.1575   -0.1040 O.3     1  LIG1       -0.5046
     11 H          -2.6981    2.0359   -0.0876 H       1  LIG1        0.2922
     12 C          -5.2449    1.4570   -0.0655 C.ar    1  LIG1        0.0902
     13 C          -4.9693    2.8208   -0.0535 C.ar    1  LIG1        0.0555
     14 C          -6.1970    3.5308   -0.0329 C.ar    1  LIG1       -0.0009
     15 C          -7.1980    2.5715   -0.0329 C.ar    1  LIG1        0.0874
     16 N          -6.6015    1.3442   -0.0529 N.ar    1  LIG1       -0.3488
     17 H          -7.0527    0.4396   -0.0553 H       1  LIG1        0.1661
     18 N          -3.6560    3.3920   -0.0596 N.pl3   1  LIG1       -0.3561
     19 H          -3.5053    3.9825   -0.8730 H       1  LIG1        0.1424
     20 H          -3.4882    3.9603    0.7661 H       1  LIG1        0.1424
     21 C          -6.3669    5.0160   -0.0134 C.3     1  LIG1       -0.0358
     22 H          -6.9110    5.3535    0.8752 H       1  LIG1        0.0279
     23 H          -6.9175    5.3768   -0.8888 H       1  LIG1        0.0279
     24 H          -5.3963    5.5185   -0.0106 H       1  LIG1        0.0279
     25 C          -8.6313    2.6999   -0.0175 C.ar    1  LIG1        0.1541
     26 C          -9.4853    3.7654    0.0001 C.ar    1  LIG1        0.0071
     27 C         -10.8101    3.2308    0.0252 C.ar    1  LIG1        0.0749
     28 C         -10.6666    1.8657    0.0112 C.ar    1  LIG1        0.1948
     29 O          -9.3300    1.5399   -0.0166 O.2     1  LIG1       -0.4482
     30 H          -9.2149    4.8096    0.0131 H       1  LIG1        0.0675
     31 N         -11.9803    3.9627    0.1283 N.pl3   1  LIG1       -0.3549
     32 H         -11.9072    4.9043   -0.2274 H       1  LIG1        0.1424
     33 H         -12.8063    3.4866   -0.2134 H       1  LIG1        0.1424
     34 C         -11.6123    0.7887    0.0106 C.ar    1  LIG1        0.2139
     35 C         -12.9277    0.7025   -0.3402 C.ar    1  LIG1        0.1836
     36 C         -13.3471   -0.6403   -0.0608 C.ar    1  LIG1        0.1315
     37 C         -12.2451   -1.2820    0.4240 C.ar    1  LIG1        0.1138
     38 O         -11.2074   -0.4378    0.4777 O.2     1  LIG1       -0.4546
     39 H         -12.0743   -2.2963    0.7463 H       1  LIG1        0.1044
     40 O         -13.6726    1.7059   -0.8749 O.3     1  LIG1       -0.5023
     41 H         -14.5882    1.4137   -0.9721 H       1  LIG1        0.2923
     42 N         -15.7388   -1.4893   -0.4939 N.1     1  LIG1       -0.1906
     43 C         -14.6520   -1.1492   -0.2854 C.1     1  LIG1        0.1060
@<TRIPOS>BOND
     1    41    40    1
     2    23    21    1
     3    40    35    1
     4    19    18    1
     5    42    43    3
     6    35    36   ar
     7    35    34   ar
     8    43    36    1
     9    32    31    1
    10    33    31    1
    11     8     2    1
    12     7     3    1
    13     2     3   ar
    14     2     1   ar
    15     3     4   ar
    16     9     1    1
    17     1     6   ar
    18     4    10    1
    19     4     5   ar
    20    10    11    1
    21     6     5   ar
    22     5    12    1
    23    12    13   ar
    24    12    16   ar
    25    36    37   ar
    26    18    13    1
    27    18    20    1
    28    17    16    1
    29    13    14   ar
    30    16    15   ar
    31    14    15   ar
    32    14    21    1
    33    15    25    1
    34    25    29   ar
    35    25    26   ar
    36    29    28   ar
    37    21    24    1
    38    21    22    1
    39    26    30    1
    40    26    27   ar
    41    34    28    1
    42    34    38   ar
    43    28    27   ar
    44    27    31    1
    45    37    38   ar
    46    37    39    1
