@<TRIPOS>MOLECULE
mol_data/opt/cam/geoms/mol2/6af4dd13la-12ha-.out
 45 48 0 0 0
SMALL
GASTEIGER

@<TRIPOS>ATOM
      1 C          -4.2673   -2.3545   -1.0885 C.ar    1  LIG1        0.0285
      2 C          -3.0802   -2.6103   -0.4118 C.ar    1  LIG1       -0.0401
      3 C          -2.5781   -1.6223    0.4174 C.ar    1  LIG1       -0.0166
      4 C          -3.2554   -0.4132    0.5288 C.ar    1  LIG1        0.1427
      5 C          -4.4321   -0.2315   -0.2148 C.ar    1  LIG1        0.1135
      6 N          -4.9249   -1.2058   -0.9910 N.ar    1  LIG1       -0.2513
      7 H          -1.6763   -1.7652    1.0029 H       1  LIG1        0.0655
      8 H          -2.5753   -3.5634   -0.5221 H       1  LIG1        0.0634
      9 H          -4.7111   -3.1079   -1.7342 H       1  LIG1        0.0830
     10 O          -2.8182    0.5181    1.4322 O.3     1  LIG1       -0.5046
     11 H          -2.2439    1.1639    0.9938 H       1  LIG1        0.2922
     12 C          -4.7798    2.3177   -0.2126 C.ar    1  LIG1        0.0617
     13 C          -5.6241    3.4189   -0.1635 C.ar    1  LIG1       -0.0332
     14 C          -5.2660    0.9978   -0.1506 C.ar    1  LIG1        0.0225
     15 C          -7.0191    3.2886   -0.0528 C.ar    1  LIG1        0.0205
     16 H          -5.1954    4.4083   -0.2207 H       1  LIG1        0.0637
     17 C          -6.6429    0.8577   -0.0772 C.ar    1  LIG1       -0.0332
     18 C          -7.5038    1.9555   -0.0228 C.ar    1  LIG1        0.0617
     19 H          -7.0601   -0.1417   -0.0693 H       1  LIG1        0.0637
     20 N          -2.2439    2.7648   -0.5161 N.1     1  LIG1       -0.1908
     21 C          -3.3789    2.5751   -0.3869 C.1     1  LIG1        0.0998
     22 N         -10.0293    1.3979    0.1302 N.1     1  LIG1       -0.1908
     23 C          -8.9005    1.6491    0.0623 C.1     1  LIG1        0.0998
     24 C          -7.8425    4.4777    0.0087 C.ar    1  LIG1        0.0905
     25 C          -7.4730    5.8283   -0.0144 C.ar    1  LIG1        0.1460
     26 C          -8.6283    6.6260    0.0743 C.ar    1  LIG1        0.0091
     27 C          -9.7046    5.7498    0.1515 C.ar    1  LIG1        0.0879
     28 N          -9.2279    4.4834    0.1095 N.ar    1  LIG1       -0.3487
     29 H          -9.8238    3.6695    0.1504 H       1  LIG1        0.1661
     30 O          -6.1890    6.2494   -0.1001 O.3     1  LIG1       -0.4930
     31 C          -5.9831    7.6489   -0.0763 C.3     1  LIG1        0.0789
     32 H          -4.9078    7.8029   -0.1579 H       1  LIG1        0.0660
     33 H          -6.4857    8.1361   -0.9190 H       1  LIG1        0.0660
     34 H          -6.3439    8.0855    0.8613 H       1  LIG1        0.0660
     35 H          -8.6836    7.6997    0.1490 H       1  LIG1        0.0677
     36 C         -11.1103    6.0235    0.2504 C.ar    1  LIG1        0.1715
     37 C         -11.8563    7.1509    0.0320 C.ar    1  LIG1        0.0724
     38 C         -13.2135    6.7842    0.3013 C.ar    1  LIG1       -0.0025
     39 C         -13.1910    5.4736    0.6462 C.ar    1  LIG1        0.0945
     40 O         -11.9328    4.9892    0.6197 O.2     1  LIG1       -0.4596
     41 H         -13.9631    4.7744    0.9251 H       1  LIG1        0.1030
     42 N         -11.3874    8.4061   -0.3473 N.pl3   1  LIG1       -0.3550
     43 H         -10.5816    8.3634   -0.9584 H       1  LIG1        0.1424
     44 H         -12.1038    8.9961   -0.7469 H       1  LIG1        0.1424
     45 H         -14.0834    7.4215    0.2396 H       1  LIG1        0.0668
@<TRIPOS>BOND
     1     9     1    1
     2     1     6   ar
     3     1     2   ar
     4     6     5   ar
     5    43    42    1
     6    33    31    1
     7    44    42    1
     8     8     2    1
     9    20    21    3
    10     2     3   ar
    11    21    12    1
    12    42    37    1
    13    16    13    1
    14     5    14    1
    15     5     4   ar
    16    12    13   ar
    17    12    14   ar
    18    13    15   ar
    19    32    31    1
    20    14    17   ar
    21    30    31    1
    22    30    25    1
    23    17    19    1
    24    17    18   ar
    25    31    34    1
    26    15    18   ar
    27    15    24    1
    28    18    23    1
    29    25    24   ar
    30    25    26   ar
    31    24    28   ar
    32    37    36   ar
    33    37    38   ar
    34    23    22    3
    35    26    35    1
    36    26    27   ar
    37    28    29    1
    38    28    27   ar
    39    27    36    1
    40    45    38    1
    41    36    40   ar
    42    38    39   ar
    43     3     4   ar
    44     3     7    1
    45     4    10    1
    46    40    39   ar
    47    39    41    1
    48    11    10    1
