@<TRIPOS>MOLECULE
mol_data/opt/cam/geoms/mol2/6af4fl12ff-13ee13fd-4ia12ai-12eh-.out
 92 99 0 0 0
SMALL
GASTEIGER

@<TRIPOS>ATOM
      1 C          -3.8554   -0.5117    3.6746 C.ar    1  LIG1        0.0285
      2 C          -2.6719   -0.2172    4.3428 C.ar    1  LIG1       -0.0401
      3 C          -2.1820    1.0718    4.2605 C.ar    1  LIG1       -0.0166
      4 C          -2.8737    2.0302    3.5213 C.ar    1  LIG1        0.1428
      5 C          -4.0644    1.6445    2.8731 C.ar    1  LIG1        0.1158
      6 N          -4.5251    0.3895    2.9705 N.ar    1  LIG1       -0.2512
      7 H          -1.2698    1.3771    4.7610 H       1  LIG1        0.0655
      8 H          -2.1518   -0.9803    4.9113 H       1  LIG1        0.0634
      9 H          -4.2838   -1.5102    3.7123 H       1  LIG1        0.0830
     10 O          -2.3768    3.2866    3.5316 O.3     1  LIG1       -0.5046
     11 H          -2.5770    3.7169    2.6799 H       1  LIG1        0.2922
     12 C          -4.5530    3.6040    1.2768 C.ar    1  LIG1        0.1270
     13 C          -5.4622    4.4005    0.6023 C.ar    1  LIG1       -0.0052
     14 C          -4.9621    2.5717    2.1266 C.ar    1  LIG1        0.0488
     15 C          -6.8419    4.2099    0.7381 C.ar    1  LIG1        0.0661
     16 H          -5.1009    5.1826   -0.0576 H       1  LIG1        0.0662
     17 C          -6.3404    2.3813    2.2415 C.ar    1  LIG1       -0.0064
     18 C          -7.2680    3.1700    1.5836 C.ar    1  LIG1        0.1317
     19 H          -6.6995    1.5694    2.8619 H       1  LIG1        0.0662
     20 O          -3.2002    3.7991    1.0891 O.3     1  LIG1       -0.5061
     21 H          -3.0593    4.5326    0.4783 H       1  LIG1        0.2922
     22 O          -8.6043    2.8914    1.7725 O.3     1  LIG1       -0.4944
     23 C          -9.1919    3.6137    2.8439 C.3     1  LIG1        0.0788
     24 H         -10.2198    3.2594    2.9398 H       1  LIG1        0.0660
     25 H          -8.6603    3.4279    3.7841 H       1  LIG1        0.0660
     26 H          -9.2008    4.6906    2.6421 H       1  LIG1        0.0660
     27 C          -7.7405    5.0711   -0.0085 C.ar    1  LIG1        0.1844
     28 C          -7.5315    6.1894   -0.7701 C.ar    1  LIG1        0.2060
     29 C          -8.7893    6.6029   -1.2892 C.ar    1  LIG1        0.2073
     30 C          -9.7132    5.7156   -0.8131 C.ar    1  LIG1        0.1980
     31 O          -9.0788    4.7897   -0.0346 O.2     1  LIG1       -0.4456
     32 O          -6.3594    6.8185   -1.0241 O.3     1  LIG1       -0.5008
     33 H          -6.5593    7.5830   -1.5830 H       1  LIG1        0.2924
     34 O          -8.8664    7.6775   -2.1003 O.3     1  LIG1       -0.5008
     35 H          -9.7955    7.8970   -2.2950 H       1  LIG1        0.2924
     36 C         -11.1255    5.5055   -0.9639 C.ar    1  LIG1        0.1032
     37 C         -12.1390    6.2587   -1.5371 C.ar    1  LIG1        0.0691
     38 C         -13.3588    5.5133   -1.3861 C.ar    1  LIG1        0.0675
     39 C         -13.0447    4.3457   -0.7132 C.ar    1  LIG1        0.0838
     40 N         -11.6898    4.3605   -0.4776 N.ar    1  LIG1       -0.3485
     41 H         -11.1675    3.6844    0.0612 H       1  LIG1        0.1661
     42 C         -12.0002    7.5275   -2.1537 C.1     1  LIG1       -0.0662
     43 C         -11.8895    8.6101   -2.6773 C.1     1  LIG1       -0.1138
     44 H         -11.8348    9.5730   -3.1319 H       1  LIG1        0.1232
     45 C         -14.6340    5.8938   -1.8764 C.1     1  LIG1       -0.0662
     46 C         -15.7076    6.2239   -2.3085 C.1     1  LIG1       -0.1138
     47 H         -16.6616    6.5142   -2.6833 H       1  LIG1        0.1232
     48 C         -13.8758    3.2354   -0.2999 C.ar    1  LIG1        0.1079
     49 C         -15.0940    3.1988    0.3373 C.ar    1  LIG1        0.1615
     50 C         -15.4398    1.8296    0.5426 C.ar    1  LIG1        0.1189
     51 C         -14.4096    1.0471    0.0231 C.ar    1  LIG1        0.0684
     52 N         -13.4890    1.9108   -0.4714 N.ar    1  LIG1       -0.3490
     53 H         -12.6495    1.6148   -0.9450 H       1  LIG1        0.1661
     54 O         -15.8015    4.2800    0.7171 O.3     1  LIG1       -0.5034
     55 H         -16.6349    3.9941    1.1137 H       1  LIG1        0.2923
     56 N         -17.6830    1.1525    1.6053 N.1     1  LIG1       -0.1907
     57 C         -16.6637    1.4138    1.1185 C.1     1  LIG1        0.1050
     58 C         -14.3724   -1.3014    0.9564 C.ar    1  LIG1       -0.0406
     59 C         -14.1761   -2.6563    0.7147 C.ar    1  LIG1       -0.0475
     60 C         -14.2427   -0.4067   -0.1230 C.ar    1  LIG1        0.0026
     61 C         -13.8519   -3.1541   -0.5493 C.ar    1  LIG1        0.0176
     62 H         -14.2693   -3.3455    1.5480 H       1  LIG1        0.0627
     63 C         -13.9103   -0.9035   -1.3887 C.ar    1  LIG1       -0.0517
     64 C         -13.7148   -2.2544   -1.6088 C.ar    1  LIG1       -0.0504
     65 H         -13.8326   -0.2130   -2.2231 H       1  LIG1        0.0624
     66 C         -14.6886   -0.8439    2.3562 C.3     1  LIG1       -0.0391
     67 H         -14.3689   -1.5930    3.0832 H       1  LIG1        0.0278
     68 H         -15.7614   -0.6836    2.4939 H       1  LIG1        0.0278
     69 H         -14.1890    0.0977    2.5950 H       1  LIG1        0.0278
     70 H         -13.4653   -2.6214   -2.5968 H       1  LIG1        0.0625
     71 C         -13.6551   -4.5823   -0.7566 C.ar    1  LIG1        0.1361
     72 C         -13.6890   -5.6675    0.0685 C.ar    1  LIG1       -0.0122
     73 C         -13.3974   -6.8162   -0.7246 C.ar    1  LIG1       -0.0010
     74 C         -13.2191   -6.3415   -1.9957 C.ar    1  LIG1        0.1747
     75 O         -13.3686   -4.9860   -2.0204 O.2     1  LIG1       -0.4514
     76 H         -13.8799   -5.6625    1.1316 H       1  LIG1        0.0658
     77 C         -13.2696   -8.2229   -0.2372 C.3     1  LIG1       -0.0360
     78 H         -12.6298   -8.8134   -0.8947 H       1  LIG1        0.0279
     79 H         -14.2403   -8.7253   -0.1964 H       1  LIG1        0.0279
     80 H         -12.8403   -8.2397    0.7676 H       1  LIG1        0.0279
     81 C         -12.9003   -6.9714   -3.2536 C.ar    1  LIG1        0.1871
     82 C         -13.2379   -8.1852   -3.8038 C.ar    1  LIG1        0.0940
     83 C         -12.5907   -8.2352   -5.0920 C.ar    1  LIG1        0.0792
     84 C         -11.9351   -7.0539   -5.2237 C.ar    1  LIG1        0.1145
     85 O         -12.1180   -6.2825   -4.1070 O.2     1  LIG1       -0.4567
     86 H         -11.3242   -6.6277   -6.0016 H       1  LIG1        0.1049
     87 C         -14.1192   -9.1804   -3.3112 C.1     1  LIG1       -0.0639
     88 C         -14.8714  -10.0538   -2.9586 C.1     1  LIG1       -0.1137
     89 H         -15.5417  -10.8148   -2.6312 H       1  LIG1        0.1232
     90 N         -12.6402   -9.3275   -5.9471 N.pl3   1  LIG1       -0.3546
     91 H         -13.4401   -9.9230   -5.7800 H       1  LIG1        0.1424
     92 H         -12.5410   -9.1029   -6.9264 H       1  LIG1        0.1424
@<TRIPOS>BOND
     1    92    90    1
     2    86    84    1
     3    90    91    1
     4    90    83    1
     5    84    83   ar
     6    84    85   ar
     7    83    82   ar
     8    85    81   ar
     9    82    87    1
    10    82    81   ar
    11    87    88    3
    12    81    74    1
    13    44    43    1
    14    88    89    1
    15    47    46    1
    16    43    42    3
    17    70    64    1
    18    46    45    3
    19    35    34    1
    20    65    63    1
    21    42    37    1
    22    34    29    1
    23    75    74   ar
    24    75    71   ar
    25    74    73   ar
    26    45    38    1
    27    64    63   ar
    28    64    61   ar
    29    33    32    1
    30    37    38   ar
    31    37    36   ar
    32    63    60   ar
    33    38    39   ar
    34    29    30   ar
    35    29    28   ar
    36    32    28    1
    37    36    30    1
    38    36    40   ar
    39    53    52    1
    40    78    77    1
    41    30    31   ar
    42    28    27   ar
    43    71    61    1
    44    71    72   ar
    45    73    77    1
    46    73    72   ar
    47    39    40   ar
    48    39    48    1
    49    61    59   ar
    50    40    41    1
    51    52    48   ar
    52    52    51   ar
    53    48    49   ar
    54    77    79    1
    55    77    80    1
    56    60    51    1
    57    60    58   ar
    58    16    13    1
    59    31    27   ar
    60    27    15    1
    61    51    50   ar
    62    72    76    1
    63    49    50   ar
    64    49    54    1
    65    21    20    1
    66    50    57    1
    67    13    15   ar
    68    13    12   ar
    69    59    58   ar
    70    59    62    1
    71    54    55    1
    72    15    18   ar
    73    58    66    1
    74    20    12    1
    75    57    56    3
    76    12    14   ar
    77    18    22    1
    78    18    17   ar
    79    22    23    1
    80    14    17   ar
    81    14     5    1
    82    17    19    1
    83    66    68    1
    84    66    69    1
    85    66    67    1
    86    26    23    1
    87    11    10    1
    88    23    24    1
    89    23    25    1
    90     5     6   ar
    91     5     4   ar
    92     6     1   ar
    93     4    10    1
    94     4     3   ar
    95     1     9    1
    96     1     2   ar
    97     3     2   ar
    98     3     7    1
    99     2     8    1
