@<TRIPOS>MOLECULE
mol_data/opt/cam/geoms/mol2/6af6af6af.out
 32 34 0 0 0
SMALL
GASTEIGER

@<TRIPOS>ATOM
      1 C          -4.3844   -1.9945   -0.9802 C.ar    1  LIG1        0.0285
      2 C          -3.1202   -2.1877   -0.4323 C.ar    1  LIG1       -0.0401
      3 C          -2.5606   -1.1671    0.3153 C.ar    1  LIG1       -0.0166
      4 C          -3.2708    0.0176    0.4743 C.ar    1  LIG1        0.1428
      5 C          -4.5229    0.1453   -0.1493 C.ar    1  LIG1        0.1138
      6 N          -5.0642   -0.8630   -0.8407 N.ar    1  LIG1       -0.2513
      7 H          -1.5919   -1.2628    0.7927 H       1  LIG1        0.0655
      8 H          -2.5940   -3.1244   -0.5783 H       1  LIG1        0.0634
      9 H          -4.8669   -2.7792   -1.5565 H       1  LIG1        0.0830
     10 O          -2.7066    0.9860    1.2416 O.3     1  LIG1       -0.5046
     11 H          -3.3664    1.6598    1.4508 H       1  LIG1        0.2922
     12 C          -6.7247    1.2911    0.1034 C.ar    1  LIG1        0.0378
     13 C          -5.3352    1.3833   -0.0494 C.ar    1  LIG1        0.0255
     14 C          -4.7866    2.6603   -0.1153 C.ar    1  LIG1       -0.0073
     15 C          -5.6193    3.7722   -0.0353 C.ar    1  LIG1        0.1434
     16 C          -7.0020    3.5767    0.0892 C.ar    1  LIG1        0.1138
     17 N          -7.5203    2.3457    0.1748 N.ar    1  LIG1       -0.2506
     18 H          -3.7245    2.8274   -0.2628 H       1  LIG1        0.0662
     19 H          -7.1908    0.3127    0.1568 H       1  LIG1        0.0836
     20 O          -5.0263    4.9919   -0.0793 O.3     1  LIG1       -0.5046
     21 H          -5.6687    5.6736    0.1586 H       1  LIG1        0.2922
     22 C          -9.0432    4.6345    1.0516 C.ar    1  LIG1        0.0371
     23 C          -7.9601    4.7072    0.1660 C.ar    1  LIG1        0.0255
     24 C          -7.8463    5.8453   -0.6302 C.ar    1  LIG1       -0.0079
     25 C          -8.7960    6.8538   -0.4998 C.ar    1  LIG1        0.1355
     26 C          -9.8239    6.6857    0.4229 C.ar    1  LIG1        0.0690
     27 N          -9.9473    5.5973    1.1783 N.ar    1  LIG1       -0.2590
     28 H          -7.0719    5.9499   -1.3835 H       1  LIG1        0.0661
     29 H         -10.5800    7.4612    0.5474 H       1  LIG1        0.0867
     30 H          -9.1683    3.7492    1.6664 H       1  LIG1        0.0836
     31 O          -8.6760    7.9522   -1.2860 O.3     1  LIG1       -0.5052
     32 H          -9.4118    8.5534   -1.1173 H       1  LIG1        0.2922
@<TRIPOS>BOND
     1     9     1    1
     2    28    24    1
     3    31    32    1
     4    31    25    1
     5     1     6   ar
     6     1     2   ar
     7     6     5   ar
     8    24    25   ar
     9    24    23   ar
    10     8     2    1
    11    25    26   ar
    12     2     3   ar
    13    18    14    1
    14     5    13    1
    15     5     4   ar
    16    14    13   ar
    17    14    15   ar
    18    20    15    1
    19    20    21    1
    20    13    12   ar
    21    15    16   ar
    22    16    23    1
    23    16    17   ar
    24    12    19    1
    25    12    17   ar
    26    23    22   ar
    27     3     4   ar
    28     3     7    1
    29    26    29    1
    30    26    27   ar
    31     4    10    1
    32    22    27   ar
    33    22    30    1
    34    10    11    1
