@<TRIPOS>MOLECULE
mol_data/opt/cam/geoms/mol2/6af6af6af6af.out
 42 45 0 0 0
SMALL
GASTEIGER

@<TRIPOS>ATOM
      1 C          -4.1842   -1.8925   -1.4182 C.ar    1  LIG1        0.0285
      2 C          -3.0873   -2.2529   -0.6418 C.ar    1  LIG1       -0.0401
      3 C          -2.7008   -1.4126    0.3869 C.ar    1  LIG1       -0.0166
      4 C          -3.4073   -0.2330    0.5937 C.ar    1  LIG1        0.1428
      5 C          -4.4755    0.0755   -0.2647 C.ar    1  LIG1        0.1138
      6 N          -4.8573   -0.7638   -1.2331 N.ar    1  LIG1       -0.2513
      7 H          -1.8729   -1.6472    1.0465 H       1  LIG1        0.0655
      8 H          -2.5581   -3.1798   -0.8326 H       1  LIG1        0.0634
      9 H          -4.5319   -2.5352   -2.2224 H       1  LIG1        0.0830
     10 O          -3.0217    0.5521    1.6328 O.3     1  LIG1       -0.5046
     11 H          -3.7016    1.2154    1.8084 H       1  LIG1        0.2922
     12 C          -6.6533    1.2909   -0.3241 C.ar    1  LIG1        0.0378
     13 C          -5.2661    1.3242   -0.1302 C.ar    1  LIG1        0.0255
     14 C          -4.6958    2.5577    0.1681 C.ar    1  LIG1       -0.0073
     15 C          -5.5037    3.6873    0.2533 C.ar    1  LIG1        0.1434
     16 C          -6.8787    3.5577    0.0121 C.ar    1  LIG1        0.1138
     17 N          -7.4240    2.3634   -0.2499 N.ar    1  LIG1       -0.2506
     18 H          -3.6267    2.6832    0.3058 H       1  LIG1        0.0662
     19 H          -7.1356    0.3478   -0.5596 H       1  LIG1        0.0836
     20 O          -4.8959    4.8578    0.5736 O.3     1  LIG1       -0.5046
     21 H          -5.5635    5.5229    0.7871 H       1  LIG1        0.2922
     22 C          -9.0808    4.5529    0.6267 C.ar    1  LIG1        0.0378
     23 C          -7.8087    4.7114    0.0617 C.ar    1  LIG1        0.0255
     24 C          -7.4894    5.9678   -0.4443 C.ar    1  LIG1       -0.0073
     25 C          -8.4253    6.9950   -0.3762 C.ar    1  LIG1        0.1434
     26 C          -9.6832    6.7307    0.1840 C.ar    1  LIG1        0.1138
     27 N          -9.9751    5.5259    0.6883 N.ar    1  LIG1       -0.2506
     28 H          -6.5412    6.1731   -0.9310 H       1  LIG1        0.0662
     29 H          -9.3689    3.5873    1.0291 H       1  LIG1        0.0836
     30 O          -8.0499    8.2051   -0.8609 O.3     1  LIG1       -0.5046
     31 H          -8.7026    8.8721   -0.6095 H       1  LIG1        0.2922
     32 C         -11.5307    7.8421    1.4348 C.ar    1  LIG1        0.0371
     33 C         -10.7423    7.7654    0.2794 C.ar    1  LIG1        0.0255
     34 C         -11.0105    8.6634   -0.7521 C.ar    1  LIG1       -0.0079
     35 C         -12.0296    9.5955   -0.5829 C.ar    1  LIG1        0.1355
     36 C         -12.7416    9.5942    0.6127 C.ar    1  LIG1        0.0690
     37 N         -12.5004    8.7329    1.5977 N.ar    1  LIG1       -0.2590
     38 H         -10.4860    8.6279   -1.7017 H       1  LIG1        0.0661
     39 H         -13.5436   10.3151    0.7730 H       1  LIG1        0.0867
     40 H         -11.3581    7.1398    2.2438 H       1  LIG1        0.0836
     41 O         -12.2836   10.4582   -1.5975 O.3     1  LIG1       -0.5052
     42 H         -13.0291   11.0245   -1.3629 H       1  LIG1        0.2922
@<TRIPOS>BOND
     1     9     1    1
     2    38    34    1
     3    41    42    1
     4    41    35    1
     5     1     6   ar
     6     1     2   ar
     7     6     5   ar
     8    28    24    1
     9    30    31    1
    10    30    25    1
    11     8     2    1
    12    34    35   ar
    13    34    33   ar
    14     2     3   ar
    15    35    36   ar
    16    19    12    1
    17    24    25   ar
    18    24    23   ar
    19    25    26   ar
    20    12    17   ar
    21    12    13   ar
    22     5    13    1
    23     5     4   ar
    24    17    16   ar
    25    13    14   ar
    26    16    23    1
    27    16    15   ar
    28    23    22   ar
    29    14    15   ar
    30    14    18    1
    31    26    33    1
    32    26    27   ar
    33    15    20    1
    34    33    32   ar
    35     3     4   ar
    36     3     7    1
    37    20    21    1
    38     4    10    1
    39    36    39    1
    40    36    37   ar
    41    22    27   ar
    42    22    29    1
    43    32    37   ar
    44    32    40    1
    45    10    11    1
