@<TRIPOS>MOLECULE
mol_data/opt/cam/geoms/mol2/6af6af-4af6af.out
 43 46 0 0 0
SMALL
GASTEIGER

@<TRIPOS>ATOM
      1 C          -4.0013   -1.9804   -1.0581 C.ar    1  LIG1        0.0285
      2 C          -2.8554   -2.1789   -0.2943 C.ar    1  LIG1       -0.0401
      3 C          -2.4982   -1.2079    0.6231 C.ar    1  LIG1       -0.0166
      4 C          -3.2793   -0.0621    0.7335 C.ar    1  LIG1        0.1428
      5 C          -4.3935    0.0806   -0.1104 C.ar    1  LIG1        0.1138
      6 N          -4.7463   -0.8865   -0.9652 N.ar    1  LIG1       -0.2513
      7 H          -1.6354   -1.3130    1.2713 H       1  LIG1        0.0655
      8 H          -2.2670   -3.0825   -0.4076 H       1  LIG1        0.0634
      9 H          -4.3296   -2.7294   -1.7738 H       1  LIG1        0.0830
     10 O          -2.9157    0.8472    1.6725 O.3     1  LIG1       -0.5046
     11 H          -3.6248    1.4916    1.7973 H       1  LIG1        0.2922
     12 C          -4.8039    2.5765    0.1291 C.ar    1  LIG1        0.0378
     13 C          -5.2695    1.2777   -0.0830 C.ar    1  LIG1        0.0255
     14 C          -6.6331    1.1415   -0.3301 C.ar    1  LIG1       -0.0073
     15 C          -7.4599    2.2506   -0.3212 C.ar    1  LIG1        0.1433
     16 C          -6.9109    3.5238   -0.0490 C.ar    1  LIG1        0.1124
     17 N          -5.5969    3.6414    0.1482 N.ar    1  LIG1       -0.2507
     18 H          -7.0291    0.1546   -0.5518 H       1  LIG1        0.0662
     19 H          -3.7417    2.7783    0.2463 H       1  LIG1        0.0836
     20 O          -8.7902    2.1335   -0.5803 O.3     1  LIG1       -0.5046
     21 H          -8.9844    1.2194   -0.8213 H       1  LIG1        0.2922
     22 C          -7.0211    5.9978   -0.1810 C.ar    1  LIG1       -0.0516
     23 C          -7.7120    7.1946   -0.1176 C.ar    1  LIG1       -0.0499
     24 C          -7.6937    4.7864    0.0028 C.ar    1  LIG1        0.0074
     25 C          -9.0845    7.2528    0.1389 C.ar    1  LIG1        0.0252
     26 H          -7.1720    8.1262   -0.2522 H       1  LIG1        0.0625
     27 C          -9.0642    4.8246    0.2632 C.ar    1  LIG1       -0.0103
     28 C          -9.7475    6.0336    0.3335 C.ar    1  LIG1        0.1252
     29 H          -9.6153    3.9042    0.4108 H       1  LIG1        0.0661
     30 H          -5.9542    5.9824   -0.3601 H       1  LIG1        0.0624
     31 O         -11.0881    6.0615    0.5803 O.3     1  LIG1       -0.5061
     32 H         -11.4142    5.1562    0.6433 H       1  LIG1        0.2922
     33 C         -10.7350    8.8672    1.1616 C.ar    1  LIG1        0.0356
     34 C          -9.7836    8.5591    0.1793 C.ar    1  LIG1        0.0072
     35 C          -9.4766    9.5488   -0.7501 C.ar    1  LIG1       -0.0094
     36 C         -10.1129   10.7802   -0.6645 C.ar    1  LIG1        0.1354
     37 C         -11.0402   10.9805    0.3529 C.ar    1  LIG1        0.0690
     38 N         -11.3438   10.0444    1.2474 N.ar    1  LIG1       -0.2590
     39 H          -8.7653    9.3741   -1.5497 H       1  LIG1        0.0661
     40 H         -11.5565   11.9370    0.4435 H       1  LIG1        0.0867
     41 H         -11.0073    8.1250    1.9033 H       1  LIG1        0.0836
     42 O          -9.8043   11.7333   -1.5836 O.3     1  LIG1       -0.5052
     43 H         -10.3278   12.5248   -1.4093 H       1  LIG1        0.2922
@<TRIPOS>BOND
     1     9     1    1
     2    42    43    1
     3    42    36    1
     4    39    35    1
     5     1     6   ar
     6     1     2   ar
     7     6     5   ar
     8    21    20    1
     9    35    36   ar
    10    35    34   ar
    11    36    37   ar
    12    20    15    1
    13    18    14    1
    14     8     2    1
    15    30    22    1
    16    14    15   ar
    17    14    13   ar
    18    15    16   ar
    19     2     3   ar
    20    26    23    1
    21    22    23   ar
    22    22    24   ar
    23    23    25   ar
    24     5    13    1
    25     5     4   ar
    26    13    12   ar
    27    16    24    1
    28    16    17   ar
    29    24    27   ar
    30    12    17   ar
    31    12    19    1
    32    25    34    1
    33    25    28   ar
    34    34    33   ar
    35    27    28   ar
    36    27    29    1
    37    28    31    1
    38    37    40    1
    39    37    38   ar
    40    31    32    1
    41     3     4   ar
    42     3     7    1
    43     4    10    1
    44    33    38   ar
    45    33    41    1
    46    10    11    1
