@<TRIPOS>MOLECULE
mol_data/opt/cam/geoms/mol2/6af6af6af-6af-.out
 42 45 0 0 0
SMALL
GASTEIGER

@<TRIPOS>ATOM
      1 C          -4.4038   -2.2287   -0.1321 C.ar    1  LIG1        0.0285
      2 C          -3.0248   -2.2771    0.0479 C.ar    1  LIG1       -0.0401
      3 C          -2.3417   -1.0906    0.2439 C.ar    1  LIG1       -0.0166
      4 C          -3.0520    0.1050    0.2342 C.ar    1  LIG1        0.1428
      5 C          -4.4370    0.0669    0.0035 C.ar    1  LIG1        0.1138
      6 N          -5.0873   -1.0914   -0.1517 N.ar    1  LIG1       -0.2513
      7 H          -1.2718   -1.0599    0.4169 H       1  LIG1        0.0655
      8 H          -2.5025   -3.2272    0.0476 H       1  LIG1        0.0634
      9 H          -4.9791   -3.1402   -0.2694 H       1  LIG1        0.0830
     10 O          -2.3537    1.2471    0.4603 O.3     1  LIG1       -0.5046
     11 H          -2.9647    1.9732    0.6413 H       1  LIG1        0.2922
     12 C          -6.5622    1.2811    0.4869 C.ar    1  LIG1        0.0378
     13 C          -5.2667    1.2958   -0.0469 C.ar    1  LIG1        0.0255
     14 C          -4.8443    2.4764   -0.6494 C.ar    1  LIG1       -0.0073
     15 C          -5.6862    3.5846   -0.6660 C.ar    1  LIG1        0.1434
     16 C          -6.9421    3.4912   -0.0489 C.ar    1  LIG1        0.1138
     17 N          -7.3605    2.3349    0.4835 N.ar    1  LIG1       -0.2506
     18 H          -3.8931    2.5530   -1.1662 H       1  LIG1        0.0662
     19 H          -6.9466    0.3655    0.9241 H       1  LIG1        0.0836
     20 O          -5.2311    4.6883   -1.3089 O.3     1  LIG1       -0.5046
     21 H          -5.9564    5.3118   -1.4473 H       1  LIG1        0.2922
     22 C          -7.5150    5.9575    0.1505 C.ar    1  LIG1        0.0378
     23 C          -7.8980    4.6221    0.0114 C.ar    1  LIG1        0.0255
     24 C          -9.2674    4.3680   -0.0212 C.ar    1  LIG1       -0.0073
     25 C         -10.1716    5.4121    0.0477 C.ar    1  LIG1        0.1434
     26 C          -9.6939    6.7378    0.1415 C.ar    1  LIG1        0.1138
     27 N          -8.3811    6.9627    0.2054 N.ar    1  LIG1       -0.2506
     28 H          -9.6076    3.3381   -0.0792 H       1  LIG1        0.0662
     29 H          -6.4692    6.2318    0.2673 H       1  LIG1        0.0836
     30 O         -11.5124    5.1856    0.0344 O.3     1  LIG1       -0.5046
     31 H         -11.6728    4.2339    0.0491 H       1  LIG1        0.2922
     32 C         -10.0579    9.1056    0.7893 C.ar    1  LIG1        0.0371
     33 C         -10.5669    7.9358    0.2143 C.ar    1  LIG1        0.0255
     34 C         -11.8700    7.9779   -0.2842 C.ar    1  LIG1       -0.0079
     35 C         -12.5879    9.1608   -0.1860 C.ar    1  LIG1        0.1355
     36 C         -11.9873   10.2672    0.4105 C.ar    1  LIG1        0.0690
     37 N         -10.7485   10.2379    0.8886 N.ar    1  LIG1       -0.2590
     38 H         -12.3169    7.1035   -0.7415 H       1  LIG1        0.0661
     39 H         -12.5448   11.1965    0.4931 H       1  LIG1        0.0867
     40 H          -9.0465    9.1076    1.1793 H       1  LIG1        0.0836
     41 O         -13.8590    9.3021   -0.6477 O.3     1  LIG1       -0.5052
     42 H         -14.1589    8.4654   -1.0220 H       1  LIG1        0.2922
@<TRIPOS>BOND
     1    21    20    1
     2    20    15    1
     3    18    14    1
     4    42    41    1
     5    38    34    1
     6    15    14   ar
     7    15    16   ar
     8    14    13   ar
     9    41    35    1
    10    34    35   ar
    11    34    33   ar
    12     9     1    1
    13    35    36   ar
    14     6     1   ar
    15     6     5   ar
    16     1     2   ar
    17    28    24    1
    18    16    23    1
    19    16    17   ar
    20    13     5    1
    21    13    12   ar
    22    24    23   ar
    23    24    25   ar
    24     5     4   ar
    25    23    22   ar
    26    30    25    1
    27    30    31    1
    28     8     2    1
    29    25    26   ar
    30     2     3   ar
    31    26    27   ar
    32    26    33    1
    33    22    27   ar
    34    22    29    1
    35    33    32   ar
    36     4     3   ar
    37     4    10    1
    38     3     7    1
    39    36    39    1
    40    36    37   ar
    41    10    11    1
    42    17    12   ar
    43    12    19    1
    44    32    37   ar
    45    32    40    1
