@<TRIPOS>MOLECULE
mol_data/opt/cam/geoms/mol2/6af6af6af6af-.out
 42 45 0 0 0
SMALL
GASTEIGER

@<TRIPOS>ATOM
      1 C          -4.2142   -2.0162   -1.0308 C.ar    1  LIG1        0.0285
      2 C          -3.0378   -2.2503   -0.3259 C.ar    1  LIG1       -0.0401
      3 C          -2.5792   -1.2725    0.5384 C.ar    1  LIG1       -0.0166
      4 C          -3.2969   -0.0873    0.6553 C.ar    1  LIG1        0.1428
      5 C          -4.4509    0.0851   -0.1267 C.ar    1  LIG1        0.1138
      6 N          -4.8993   -0.8837   -0.9320 N.ar    1  LIG1       -0.2513
      7 H          -1.6854   -1.4023    1.1381 H       1  LIG1        0.0655
      8 H          -2.5023   -3.1858   -0.4432 H       1  LIG1        0.0634
      9 H          -4.6186   -2.7674   -1.7038 H       1  LIG1        0.0830
     10 O          -2.8364    0.8370    1.5376 O.3     1  LIG1       -0.5046
     11 H          -3.5155    1.5065    1.6913 H       1  LIG1        0.2922
     12 C          -6.6587    1.2464   -0.1378 C.ar    1  LIG1        0.0378
     13 C          -5.2608    1.3278   -0.0831 C.ar    1  LIG1        0.0255
     14 C          -4.7015    2.5992   -0.0061 C.ar    1  LIG1       -0.0073
     15 C          -5.5302    3.7171    0.0068 C.ar    1  LIG1        0.1434
     16 C          -6.9173    3.5340   -0.0814 C.ar    1  LIG1        0.1138
     17 N          -7.4496    2.3062   -0.1316 N.ar    1  LIG1       -0.2506
     18 H          -3.6283    2.7596    0.0100 H       1  LIG1        0.0662
     19 H          -7.1330    0.2725   -0.2005 H       1  LIG1        0.0836
     20 O          -4.9283    4.9287    0.1089 O.3     1  LIG1       -0.5046
     21 H          -5.5907    5.6077    0.2933 H       1  LIG1        0.2922
     22 C          -9.0974    4.5524    0.5734 C.ar    1  LIG1        0.0378
     23 C          -7.8710    4.6685   -0.0934 C.ar    1  LIG1        0.0255
     24 C          -7.6331    5.8551   -0.7804 C.ar    1  LIG1       -0.0073
     25 C          -8.5798    6.8745   -0.7477 C.ar    1  LIG1        0.1434
     26 C          -9.7516    6.6876    0.0007 C.ar    1  LIG1        0.1138
     27 N          -9.9949    5.5229    0.6153 N.ar    1  LIG1       -0.2506
     28 H          -6.7540    5.9977   -1.4009 H       1  LIG1        0.0662
     29 H          -9.3415    3.6253    1.0815 H       1  LIG1        0.0836
     30 O          -8.3077    7.9860   -1.4737 O.3     1  LIG1       -0.5046
     31 H          -9.0974    8.5407   -1.5321 H       1  LIG1        0.2922
     32 C         -10.5276    9.0903    0.1962 C.ar    1  LIG1        0.0371
     33 C         -10.8069    7.7245    0.1140 C.ar    1  LIG1        0.0255
     34 C         -12.1451    7.3311    0.1828 C.ar    1  LIG1       -0.0079
     35 C         -13.1245    8.3007    0.3013 C.ar    1  LIG1        0.1355
     36 C         -12.7378    9.6455    0.3471 C.ar    1  LIG1        0.0690
     37 N         -11.4721   10.0281    0.3054 N.ar    1  LIG1       -0.2590
     38 H         -12.3870    6.2729    0.1581 H       1  LIG1        0.0661
     39 H         -13.5018   10.4139    0.4310 H       1  LIG1        0.0867
     40 H          -9.5016    9.4489    0.2246 H       1  LIG1        0.0836
     41 O         -14.4500    8.0298    0.3726 O.3     1  LIG1       -0.5052
     42 H         -14.5886    7.0752    0.3517 H       1  LIG1        0.2922
@<TRIPOS>BOND
     1     9     1    1
     2    31    30    1
     3    30    25    1
     4    28    24    1
     5     1     6   ar
     6     1     2   ar
     7     6     5   ar
     8    24    25   ar
     9    24    23   ar
    10    25    26   ar
    11     8     2    1
    12     2     3   ar
    13    19    12    1
    14    12    17   ar
    15    12    13   ar
    16    17    16   ar
    17     5    13    1
    18     5     4   ar
    19    23    16    1
    20    23    22   ar
    21    13    14   ar
    22    16    15   ar
    23    14    15   ar
    24    14    18    1
    25    26    33    1
    26    26    27   ar
    27    15    20    1
    28    20    21    1
    29    33    34   ar
    30    33    32   ar
    31    38    34    1
    32    34    35   ar
    33    32    40    1
    34    32    37   ar
    35    35    36   ar
    36    35    41    1
    37    37    36   ar
    38    36    39    1
    39    42    41    1
    40     3     4   ar
    41     3     7    1
    42    22    27   ar
    43    22    29    1
    44     4    10    1
    45    10    11    1
