@<TRIPOS>MOLECULE
mol_data/opt/cam/geoms/mol2/6af6af-6af-6af.out
 42 45 0 0 0
SMALL
GASTEIGER

@<TRIPOS>ATOM
      1 C          -4.0629   -1.9956    0.9922 C.ar    1  LIG1        0.0285
      2 C          -2.8616   -2.1533    0.3077 C.ar    1  LIG1       -0.0401
      3 C          -2.4467   -1.1411   -0.5377 C.ar    1  LIG1       -0.0166
      4 C          -3.2281    0.0039   -0.6566 C.ar    1  LIG1        0.1428
      5 C          -4.4024    0.1026    0.1079 C.ar    1  LIG1        0.1138
      6 N          -4.8089   -0.9033    0.8914 N.ar    1  LIG1       -0.2513
      7 H          -1.5373   -1.2124   -1.1238 H       1  LIG1        0.0655
      8 H          -2.2747   -3.0573    0.4254 H       1  LIG1        0.0634
      9 H          -4.4363   -2.7772    1.6483 H       1  LIG1        0.0830
     10 O          -2.8033    0.9548   -1.5259 O.3     1  LIG1       -0.5046
     11 H          -3.5076    1.5976   -1.6815 H       1  LIG1        0.2922
     12 C          -4.8177    2.6042   -0.0543 C.ar    1  LIG1        0.0378
     13 C          -5.2855    1.2943    0.0709 C.ar    1  LIG1        0.0255
     14 C          -6.6613    1.1375    0.2186 C.ar    1  LIG1       -0.0073
     15 C          -7.4952    2.2409    0.2020 C.ar    1  LIG1        0.1434
     16 C          -6.9391    3.5267    0.0261 C.ar    1  LIG1        0.1138
     17 N          -5.6166    3.6642   -0.0805 N.ar    1  LIG1       -0.2506
     18 H          -7.0614    0.1388    0.3686 H       1  LIG1        0.0662
     19 H          -3.7521    2.8171   -0.0924 H       1  LIG1        0.0836
     20 O          -8.8401    2.1103    0.3590 O.3     1  LIG1       -0.5046
     21 H          -9.0488    1.1863    0.5436 H       1  LIG1        0.2922
     22 C          -7.0870    5.9977    0.2453 C.ar    1  LIG1        0.0378
     23 C          -7.7279    4.7810   -0.0166 C.ar    1  LIG1        0.0255
     24 C          -9.0834    4.8502   -0.3245 C.ar    1  LIG1       -0.0073
     25 C          -9.7274    6.0797   -0.3665 C.ar    1  LIG1        0.1434
     26 C          -9.0011    7.2520   -0.1011 C.ar    1  LIG1        0.1138
     27 N          -7.7009    7.1682    0.2075 N.ar    1  LIG1       -0.2506
     28 H          -9.6485    3.9489   -0.5296 H       1  LIG1        0.0662
     29 H          -6.0314    6.0011    0.4923 H       1  LIG1        0.0836
     30 O         -11.0561    6.1602   -0.6498 O.3     1  LIG1       -0.5046
     31 H         -11.4127    5.2698   -0.7524 H       1  LIG1        0.2922
     32 C         -10.7406    8.9800   -0.8009 C.ar    1  LIG1        0.0371
     33 C          -9.5785    8.6213   -0.1044 C.ar    1  LIG1        0.0255
     34 C          -8.9075    9.6233    0.5945 C.ar    1  LIG1       -0.0079
     35 C          -9.4198   10.9105    0.5871 C.ar    1  LIG1        0.1355
     36 C         -10.5860   11.1595   -0.1325 C.ar    1  LIG1        0.0690
     37 N         -11.2275   10.2185   -0.8157 N.ar    1  LIG1       -0.2590
     38 H          -7.9931    9.3982    1.1282 H       1  LIG1        0.0661
     39 H         -11.0111   12.1639   -0.1566 H       1  LIG1        0.0867
     40 H         -11.2915    8.2438   -1.3705 H       1  LIG1        0.0836
     41 O          -8.7623   11.8771    1.2819 O.3     1  LIG1       -0.5052
     42 H          -9.2289   12.7153    1.1796 H       1  LIG1        0.2922
@<TRIPOS>BOND
     1    11    10    1
     2    10     4    1
     3    40    32    1
     4     7     3    1
     5    37    32   ar
     6    37    36   ar
     7    32    33   ar
     8    31    30    1
     9     4     3   ar
    10     4     5   ar
    11    30    25    1
    12     3     2   ar
    13    28    24    1
    14    25    24   ar
    15    25    26   ar
    16    24    23   ar
    17    39    36    1
    18    36    35   ar
    19    33    26    1
    20    33    34   ar
    21    26    27   ar
    22    19    12    1
    23    17    12   ar
    24    17    16   ar
    25    12    13   ar
    26    23    16    1
    27    23    22   ar
    28    16    15   ar
    29    13     5    1
    30    13    14   ar
    31     5     6   ar
    32    15    14   ar
    33    15    20    1
    34    27    22   ar
    35    14    18    1
    36    22    29    1
    37     2     8    1
    38     2     1   ar
    39    20    21    1
    40    35    34   ar
    41    35    41    1
    42    34    38    1
    43     6     1   ar
    44     1     9    1
    45    42    41    1
