@<TRIPOS>MOLECULE
mol_data/opt/cam/geoms/mol2/6af6af-6af6af-.out
 42 45 0 0 0
SMALL
GASTEIGER

@<TRIPOS>ATOM
      1 C          -4.0325   -2.0191    0.9080 C.ar    1  LIG1        0.0285
      2 C          -2.8869   -2.1900    0.1365 C.ar    1  LIG1       -0.0401
      3 C          -2.5250   -1.1826   -0.7385 C.ar    1  LIG1       -0.0166
      4 C          -3.3008   -0.0294   -0.8002 C.ar    1  LIG1        0.1428
      5 C          -4.4144    0.0821    0.0487 C.ar    1  LIG1        0.1138
      6 N          -4.7722   -0.9189    0.8615 N.ar    1  LIG1       -0.2513
      7 H          -1.6623   -1.2639   -1.3902 H       1  LIG1        0.0655
      8 H          -2.3028   -3.1003    0.2114 H       1  LIG1        0.0634
      9 H          -4.3645   -2.7964    1.5909 H       1  LIG1        0.0830
     10 O          -2.9318    0.9171   -1.6996 O.3     1  LIG1       -0.5046
     11 H          -3.6385    1.5682   -1.8003 H       1  LIG1        0.2922
     12 C          -4.8129    2.5876   -0.0844 C.ar    1  LIG1        0.0378
     13 C          -5.2856    1.2831    0.0738 C.ar    1  LIG1        0.0255
     14 C          -6.6489    1.1405    0.3189 C.ar    1  LIG1       -0.0073
     15 C          -7.4712    2.2529    0.3596 C.ar    1  LIG1        0.1434
     16 C          -6.9139    3.5311    0.1402 C.ar    1  LIG1        0.1138
     17 N          -5.6010    3.6563   -0.0551 N.ar    1  LIG1       -0.2506
     18 H          -7.0478    0.1467    0.5001 H       1  LIG1        0.0662
     19 H          -3.7501    2.7888   -0.1956 H       1  LIG1        0.0836
     20 O          -8.7991    2.1428    0.6173 O.3     1  LIG1       -0.5046
     21 H          -9.0119    1.2225    0.8150 H       1  LIG1        0.2922
     22 C          -9.0666    4.8719   -0.1200 C.ar    1  LIG1        0.0378
     23 C          -7.6943    4.7943    0.1508 C.ar    1  LIG1        0.0255
     24 C          -7.0267    5.9921    0.3847 C.ar    1  LIG1       -0.0073
     25 C          -7.7272    7.1883    0.3879 C.ar    1  LIG1        0.1434
     26 C          -9.1128    7.1614    0.1611 C.ar    1  LIG1        0.1138
     27 N          -9.7395    6.0145   -0.1194 N.ar    1  LIG1       -0.2506
     28 H          -5.9565    5.9990    0.5479 H       1  LIG1        0.0662
     29 H          -9.6378    3.9816   -0.3476 H       1  LIG1        0.0836
     30 O          -7.0130    8.3243    0.5977 O.3     1  LIG1       -0.5046
     31 H          -7.5573    9.0945    0.3881 H       1  LIG1        0.2922
     32 C          -9.7440    9.4537    1.0388 C.ar    1  LIG1        0.0371
     33 C          -9.9555    8.3834    0.1666 C.ar    1  LIG1        0.0255
     34 C         -11.0413    8.4670   -0.7075 C.ar    1  LIG1       -0.0079
     35 C         -11.8325    9.6013   -0.6909 C.ar    1  LIG1        0.1355
     36 C         -11.5163   10.6292    0.2046 C.ar    1  LIG1        0.0690
     37 N         -10.5043   10.5518    1.0536 N.ar    1  LIG1       -0.2590
     38 H         -11.2508    7.6318   -1.3690 H       1  LIG1        0.0661
     39 H         -12.1279   11.5275    0.2183 H       1  LIG1        0.0867
     40 H          -8.9608    9.4117    1.7915 H       1  LIG1        0.0836
     41 O         -12.9054    9.7840   -1.4998 O.3     1  LIG1       -0.5052
     42 H         -13.0304    9.0022   -2.0511 H       1  LIG1        0.2922
@<TRIPOS>BOND
     1    42    41    1
     2    11    10    1
     3    10     4    1
     4    41    35    1
     5     7     3    1
     6    38    34    1
     7     4     3   ar
     8     4     5   ar
     9     3     2   ar
    10    34    35   ar
    11    34    33   ar
    12    35    36   ar
    13    29    22    1
    14    19    12    1
    15    22    27   ar
    16    22    23   ar
    17    27    26   ar
    18    12    17   ar
    19    12    13   ar
    20    17    16   ar
    21     5    13    1
    22     5     6   ar
    23    13    14   ar
    24     2     8    1
    25     2     1   ar
    26    16    23    1
    27    16    15   ar
    28    23    24   ar
    29    26    33    1
    30    26    25   ar
    31    33    32   ar
    32    36    39    1
    33    36    37   ar
    34    14    15   ar
    35    14    18    1
    36    15    20    1
    37    24    25   ar
    38    24    28    1
    39    25    30    1
    40    31    30    1
    41    20    21    1
    42     6     1   ar
    43     1     9    1
    44    32    37   ar
    45    32    40    1
