@<TRIPOS>MOLECULE
mol_data/opt/cam/geoms/mol2/6af6af-6af.out
 32 34 0 0 0
SMALL
GASTEIGER

@<TRIPOS>ATOM
      1 C          -4.3455   -2.0326    0.8176 C.ar    1  LIG1        0.0285
      2 C          -3.0441   -2.1518    0.3400 C.ar    1  LIG1       -0.0401
      3 C          -2.4768   -1.0686   -0.3056 C.ar    1  LIG1       -0.0166
      4 C          -3.2140    0.1042   -0.4339 C.ar    1  LIG1        0.1428
      5 C          -4.5043    0.1554    0.1197 C.ar    1  LIG1        0.1138
      6 N          -5.0517   -0.9149    0.7071 N.ar    1  LIG1       -0.2513
      7 H          -1.4790   -1.1040   -0.7285 H       1  LIG1        0.0655
      8 H          -2.4959   -3.0796    0.4593 H       1  LIG1        0.0634
      9 H          -4.8362   -2.8677    1.3101 H       1  LIG1        0.0830
     10 O          -2.6342    1.1295   -1.1073 O.3     1  LIG1       -0.5046
     11 H          -3.2944    1.8063   -1.3071 H       1  LIG1        0.2922
     12 C          -4.8593    2.6699    0.1618 C.ar    1  LIG1        0.0378
     13 C          -5.3552    1.3693    0.0549 C.ar    1  LIG1        0.0255
     14 C          -6.7364    1.2376   -0.0665 C.ar    1  LIG1       -0.0073
     15 C          -7.5432    2.3609   -0.1143 C.ar    1  LIG1        0.1434
     16 C          -6.9494    3.6402   -0.0505 C.ar    1  LIG1        0.1138
     17 N          -5.6302    3.7505    0.1057 N.ar    1  LIG1       -0.2506
     18 H          -7.1673    0.2412   -0.0982 H       1  LIG1        0.0662
     19 H          -3.8031    2.8532    0.3442 H       1  LIG1        0.0836
     20 O          -8.8931    2.2595   -0.2081 O.3     1  LIG1       -0.5046
     21 H          -9.1472    1.3291   -0.1768 H       1  LIG1        0.2922
     22 C          -8.9549    5.0548   -0.7293 C.ar    1  LIG1        0.0371
     23 C          -7.7085    4.9166   -0.1048 C.ar    1  LIG1        0.0255
     24 C          -7.1336    6.0549    0.4567 C.ar    1  LIG1       -0.0079
     25 C          -7.8182    7.2578    0.3915 C.ar    1  LIG1        0.1355
     26 C          -9.0556    7.2858   -0.2479 C.ar    1  LIG1        0.0690
     27 N          -9.6077    6.2122   -0.8008 N.ar    1  LIG1       -0.2590
     28 H          -6.1618    6.0016    0.9309 H       1  LIG1        0.0661
     29 H          -9.6162    8.2191   -0.3152 H       1  LIG1        0.0867
     30 H          -9.4381    4.2047   -1.1923 H       1  LIG1        0.0836
     31 O          -7.2529    8.3591    0.9524 O.3     1  LIG1       -0.5052
     32 H          -7.8379    9.1164    0.8294 H       1  LIG1        0.2922
@<TRIPOS>BOND
     1    11    10    1
     2    30    22    1
     3    10     4    1
     4    27    22   ar
     5    27    26   ar
     6    22    23   ar
     7     7     3    1
     8     4     3   ar
     9     4     5   ar
    10    29    26    1
    11     3     2   ar
    12    26    25   ar
    13    20    21    1
    14    20    15    1
    15    15    14   ar
    16    15    16   ar
    17    23    16    1
    18    23    24   ar
    19    18    14    1
    20    14    13   ar
    21    16    17   ar
    22    13     5    1
    23    13    12   ar
    24    17    12   ar
    25     5     6   ar
    26    12    19    1
    27     2     8    1
    28     2     1   ar
    29    25    24   ar
    30    25    31    1
    31    24    28    1
    32     6     1   ar
    33     1     9    1
    34    32    31    1
