@<TRIPOS>MOLECULE
mol_data/opt/cam/geoms/mol2/6af6af6af-6af.out
 42 45 0 0 0
SMALL
GASTEIGER

@<TRIPOS>ATOM
      1 C          -4.4306   -2.2331   -0.0178 C.ar    1  LIG1        0.0285
      2 C          -3.0546   -2.2765    0.1850 C.ar    1  LIG1       -0.0401
      3 C          -2.3744   -1.0852    0.3608 C.ar    1  LIG1       -0.0166
      4 C          -3.0842    0.1095    0.3089 C.ar    1  LIG1        0.1428
      5 C          -4.4654    0.0652    0.0572 C.ar    1  LIG1        0.1138
      6 N          -5.1134   -1.0968   -0.0779 N.ar    1  LIG1       -0.2513
      7 H          -1.3073   -1.0499    0.5498 H       1  LIG1        0.0655
      8 H          -2.5325   -3.2262    0.2176 H       1  LIG1        0.0634
      9 H          -5.0039   -3.1479   -0.1402 H       1  LIG1        0.0830
     10 O          -2.3892    1.2573    0.5168 O.3     1  LIG1       -0.5046
     11 H          -3.0033    1.9878    0.6670 H       1  LIG1        0.2922
     12 C          -6.5953    1.2954    0.4784 C.ar    1  LIG1        0.0378
     13 C          -5.2928    1.2930   -0.0380 C.ar    1  LIG1        0.0255
     14 C          -4.8590    2.4561   -0.6660 C.ar    1  LIG1       -0.0073
     15 C          -5.6974    3.5655   -0.7229 C.ar    1  LIG1        0.1434
     16 C          -6.9614    3.4916   -0.1198 C.ar    1  LIG1        0.1138
     17 N          -7.3905    2.3510    0.4370 N.ar    1  LIG1       -0.2506
     18 H          -3.9007    2.5161   -1.1718 H       1  LIG1        0.0662
     19 H          -6.9881    0.3926    0.9343 H       1  LIG1        0.0836
     20 O          -5.2315    4.6513   -1.3882 O.3     1  LIG1       -0.5046
     21 H          -5.9537    5.2732   -1.5488 H       1  LIG1        0.2922
     22 C          -7.5221    5.9632    0.0183 C.ar    1  LIG1        0.0378
     23 C          -7.9125    4.6281   -0.1012 C.ar    1  LIG1        0.0255
     24 C          -9.2826    4.3815   -0.1525 C.ar    1  LIG1       -0.0073
     25 C         -10.1819    5.4327   -0.1229 C.ar    1  LIG1        0.1434
     26 C          -9.6946    6.7562   -0.0527 C.ar    1  LIG1        0.1138
     27 N          -8.3827    6.9749    0.0362 N.ar    1  LIG1       -0.2506
     28 H          -9.6291    3.3529   -0.1921 H       1  LIG1        0.0662
     29 H          -6.4767    6.2320    0.1503 H       1  LIG1        0.0836
     30 O         -11.5214    5.2198   -0.1469 O.3     1  LIG1       -0.5046
     31 H         -11.6958    4.2707   -0.1311 H       1  LIG1        0.2922
     32 C         -11.8451    8.0110   -0.5845 C.ar    1  LIG1        0.0371
     33 C         -10.5602    7.9637   -0.0284 C.ar    1  LIG1        0.0255
     34 C         -10.0540    9.1318    0.5383 C.ar    1  LIG1       -0.0079
     35 C         -10.8400   10.2729    0.5451 C.ar    1  LIG1        0.1355
     36 C         -12.1075   10.2115   -0.0296 C.ar    1  LIG1        0.0690
     37 N         -12.5957    9.1096   -0.5871 N.ar    1  LIG1       -0.2590
     38 H          -9.0574    9.1496    0.9609 H       1  LIG1        0.0661
     39 H         -12.7477   11.0947   -0.0395 H       1  LIG1        0.0867
     40 H         -12.2787    7.1353   -1.0488 H       1  LIG1        0.0836
     41 O         -10.3404   11.4032    1.1105 O.3     1  LIG1       -0.5052
     42 H         -10.9924   12.1109    1.0404 H       1  LIG1        0.2922
@<TRIPOS>BOND
     1    21    20    1
     2    20    15    1
     3    18    14    1
     4    40    32    1
     5    15    14   ar
     6    15    16   ar
     7    14    13   ar
     8    37    32   ar
     9    37    36   ar
    10    32    33   ar
    11    28    24    1
    12    24    25   ar
    13    24    23   ar
    14    30    31    1
    15    30    25    1
    16     9     1    1
    17    25    26   ar
    18    16    23    1
    19    16    17   ar
    20    23    22   ar
    21     6     1   ar
    22     6     5   ar
    23    26    33    1
    24    26    27   ar
    25    39    36    1
    26    13     5    1
    27    13    12   ar
    28    36    35   ar
    29    33    34   ar
    30     1     2   ar
    31    22    27   ar
    32    22    29    1
    33     5     4   ar
    34     2     8    1
    35     2     3   ar
    36     4     3   ar
    37     4    10    1
    38     3     7    1
    39    17    12   ar
    40    12    19    1
    41    10    11    1
    42    34    35   ar
    43    34    38    1
    44    35    41    1
    45    42    41    1
