@<TRIPOS>MOLECULE
mol_data/opt/cam/geoms/mol2/6af6af.out
 22 23 0 0 0
SMALL
GASTEIGER

@<TRIPOS>ATOM
      1 C          -4.5141   -2.0476   -0.4886 C.ar    1  LIG1        0.0285
      2 C          -3.1505   -2.1116   -0.2205 C.ar    1  LIG1       -0.0401
      3 C          -2.5023   -0.9600    0.1888 C.ar    1  LIG1       -0.0166
      4 C          -3.2311    0.2191    0.2980 C.ar    1  LIG1        0.1428
      5 C          -4.5963    0.2045   -0.0322 C.ar    1  LIG1        0.1138
      6 N          -5.2144   -0.9238   -0.3953 N.ar    1  LIG1       -0.2513
      7 H          -1.4475   -0.9466    0.4392 H       1  LIG1        0.0655
      8 H          -2.6133   -3.0484   -0.3184 H       1  LIG1        0.0634
      9 H          -5.0634   -2.9343   -0.7934 H       1  LIG1        0.0830
     10 O          -2.5714    1.3233    0.7339 O.3     1  LIG1       -0.5046
     11 H          -3.2088    2.0150    0.9547 H       1  LIG1        0.2922
     12 C          -6.7477    1.3337    0.5298 C.ar    1  LIG1        0.0371
     13 C          -5.4391    1.4254    0.0381 C.ar    1  LIG1        0.0255
     14 C          -4.9933    2.6730   -0.3935 C.ar    1  LIG1       -0.0079
     15 C          -5.8550    3.7618   -0.3052 C.ar    1  LIG1        0.1355
     16 C          -7.1306    3.5618    0.2128 C.ar    1  LIG1        0.0690
     17 N          -7.5690    2.3723    0.6172 N.ar    1  LIG1       -0.2590
     18 H          -4.0138    2.8147   -0.8388 H       1  LIG1        0.0661
     19 H          -7.8254    4.3980    0.2955 H       1  LIG1        0.0867
     20 H          -7.1270    0.3698    0.8527 H       1  LIG1        0.0836
     21 O          -5.4093    4.9686   -0.7359 O.3     1  LIG1       -0.5052
     22 H          -6.1118    5.6239   -0.6445 H       1  LIG1        0.2922
@<TRIPOS>BOND
     1    18    14    1
     2     9     1    1
     3    21    22    1
     4    21    15    1
     5     1     6   ar
     6     1     2   ar
     7     6     5   ar
     8    14    15   ar
     9    14    13   ar
    10     8     2    1
    11    15    16   ar
    12     2     3   ar
    13     5    13    1
    14     5     4   ar
    15    13    12   ar
    16     3     4   ar
    17     3     7    1
    18    16    19    1
    19    16    17   ar
    20     4    10    1
    21    12    17   ar
    22    12    20    1
    23    10    11    1
