@<TRIPOS>MOLECULE
mol_data/opt/cam/geoms/mol2/6af6af-6af-6af-.out
 42 45 0 0 0
SMALL
GASTEIGER

@<TRIPOS>ATOM
      1 C          -4.1744   -2.1137    0.8096 C.ar    1  LIG1        0.0285
      2 C          -2.8809   -2.2021    0.3038 C.ar    1  LIG1       -0.0401
      3 C          -2.3522   -1.1046   -0.3498 C.ar    1  LIG1       -0.0166
      4 C          -3.1178    0.0521   -0.4580 C.ar    1  LIG1        0.1428
      5 C          -4.3959    0.0731    0.1246 C.ar    1  LIG1        0.1138
      6 N          -4.9070   -1.0117    0.7191 N.ar    1  LIG1       -0.2513
      7 H          -1.3633   -1.1163   -0.7942 H       1  LIG1        0.0655
      8 H          -2.3098   -3.1177    0.4080 H       1  LIG1        0.0634
      9 H          -4.6357   -2.9613    1.3092 H       1  LIG1        0.0830
     10 O          -2.5746    1.0909   -1.1409 O.3     1  LIG1       -0.5046
     11 H          -3.2531    1.7511   -1.3332 H       1  LIG1        0.2922
     12 C          -4.8088    2.5808    0.1756 C.ar    1  LIG1        0.0378
     13 C          -5.2755    1.2672    0.0882 C.ar    1  LIG1        0.0255
     14 C          -6.6563    1.1032    0.0155 C.ar    1  LIG1       -0.0073
     15 C          -7.4908    2.2063   -0.0021 C.ar    1  LIG1        0.1434
     16 C          -6.9295    3.5008    0.0461 C.ar    1  LIG1        0.1138
     17 N          -5.6067    3.6410    0.1483 N.ar    1  LIG1       -0.2506
     18 H          -7.0635    0.0964   -0.0045 H       1  LIG1        0.0662
     19 H          -3.7515    2.7912    0.3175 H       1  LIG1        0.0836
     20 O          -8.8428    2.0638   -0.0586 O.3     1  LIG1       -0.5046
     21 H          -9.0638    1.1256   -0.0076 H       1  LIG1        0.2922
     22 C          -7.1166    5.9439    0.4665 C.ar    1  LIG1        0.0378
     23 C          -7.7152    4.7577    0.0242 C.ar    1  LIG1        0.0255
     24 C          -9.0250    4.8626   -0.4356 C.ar    1  LIG1       -0.0073
     25 C          -9.6679    6.0926   -0.4332 C.ar    1  LIG1        0.1434
     26 C          -8.9949    7.2289    0.0446 C.ar    1  LIG1        0.1138
     27 N          -7.7327    7.1136    0.4771 N.ar    1  LIG1       -0.2506
     28 H          -9.5516    3.9901   -0.8030 H       1  LIG1        0.0662
     29 H          -6.0938    5.9217    0.8247 H       1  LIG1        0.0836
     30 O         -10.9438    6.2093   -0.9026 O.3     1  LIG1       -0.5046
     31 H         -11.2340    5.3516   -1.2353 H       1  LIG1        0.2922
     32 C          -8.7082    9.6921    0.1480 C.ar    1  LIG1        0.0371
     33 C          -9.5749    8.5943    0.0879 C.ar    1  LIG1        0.0255
     34 C         -10.9455    8.8587    0.0947 C.ar    1  LIG1       -0.0079
     35 C         -11.3757   10.1761    0.1577 C.ar    1  LIG1        0.1355
     36 C         -10.4277   11.1947    0.2070 C.ar    1  LIG1        0.0690
     37 N          -9.1208   10.9555    0.2014 N.ar    1  LIG1       -0.2590
     38 H         -11.6650    8.0501    0.0526 H       1  LIG1        0.0661
     39 H         -10.7575   12.2293    0.2527 H       1  LIG1        0.0867
     40 H          -7.6381    9.5201    0.1545 H       1  LIG1        0.0836
     41 O         -12.6898   10.5295    0.1759 O.3     1  LIG1       -0.5052
     42 H         -13.2331    9.7342    0.1280 H       1  LIG1        0.2922
@<TRIPOS>BOND
     1    11    10    1
     2    31    30    1
     3    10     4    1
     4    30    25    1
     5    28    24    1
     6     7     3    1
     7     4     3   ar
     8     4     5   ar
     9    24    25   ar
    10    24    23   ar
    11    25    26   ar
    12     3     2   ar
    13    20    21    1
    14    20    15    1
    15    18    14    1
    16    15    14   ar
    17    15    16   ar
    18    14    13   ar
    19    23    16    1
    20    23    22   ar
    21    26    33    1
    22    26    27   ar
    23    16    17   ar
    24    38    34    1
    25    33    34   ar
    26    33    32   ar
    27    13     5    1
    28    13    12   ar
    29    34    35   ar
    30     5     6   ar
    31    42    41    1
    32    32    40    1
    33    32    37   ar
    34    17    12   ar
    35    35    41    1
    36    35    36   ar
    37    12    19    1
    38    37    36   ar
    39    36    39    1
    40     2     8    1
    41     2     1   ar
    42    22    27   ar
    43    22    29    1
    44     6     1   ar
    45     1     9    1
