@<TRIPOS>MOLECULE
mol_data/opt/cam/geoms/mol2/6af6af-.out
 22 23 0 0 0
SMALL
GASTEIGER

@<TRIPOS>ATOM
      1 C          -4.4884   -2.0576    0.4390 C.ar    1  LIG1        0.0285
      2 C          -3.1357   -2.1116    0.1179 C.ar    1  LIG1       -0.0401
      3 C          -2.4987   -0.9415   -0.2523 C.ar    1  LIG1       -0.0166
      4 C          -3.2225    0.2464   -0.2688 C.ar    1  LIG1        0.1428
      5 C          -4.5741    0.2197    0.1139 C.ar    1  LIG1        0.1138
      6 N          -5.1837   -0.9274    0.4333 N.ar    1  LIG1       -0.2513
      7 H          -1.4544   -0.9178   -0.5433 H       1  LIG1        0.0655
      8 H          -2.6000   -3.0539    0.1443 H       1  LIG1        0.0634
      9 H          -5.0316   -2.9578    0.7135 H       1  LIG1        0.0830
     10 O          -2.5696    1.3635   -0.6758 O.3     1  LIG1       -0.5046
     11 H          -3.2029    2.0804   -0.8139 H       1  LIG1        0.2922
     12 C          -4.9468    2.6863    0.5612 C.ar    1  LIG1        0.0371
     13 C          -5.4205    1.4402    0.1452 C.ar    1  LIG1        0.0255
     14 C          -6.7659    1.3473   -0.2158 C.ar    1  LIG1       -0.0079
     15 C          -7.5539    2.4835   -0.1717 C.ar    1  LIG1        0.1355
     16 C          -6.9721    3.6903    0.2334 C.ar    1  LIG1        0.0690
     17 N          -5.7041    3.7857    0.5993 N.ar    1  LIG1       -0.2590
     18 H          -7.1695    0.3822   -0.5069 H       1  LIG1        0.0661
     19 H          -7.5817    4.5895    0.2623 H       1  LIG1        0.0867
     20 H          -3.9288    2.8015    0.9254 H       1  LIG1        0.0836
     21 O          -8.8680    2.5033   -0.5040 O.3     1  LIG1       -0.5052
     22 H          -9.1553    1.6136   -0.7420 H       1  LIG1        0.2922
@<TRIPOS>BOND
     1    11    10    1
     2    22    21    1
     3    10     4    1
     4     7     3    1
     5    18    14    1
     6    21    15    1
     7     4     3   ar
     8     4     5   ar
     9     3     2   ar
    10    14    15   ar
    11    14    13   ar
    12    15    16   ar
    13     5    13    1
    14     5     6   ar
    15     2     8    1
    16     2     1   ar
    17    13    12   ar
    18    16    19    1
    19    16    17   ar
    20     6     1   ar
    21     1     9    1
    22    12    17   ar
    23    12    20    1
