@<TRIPOS>MOLECULE
mol_data/opt/cam/geoms/mol2/6ag.out
 12 12 0 0 0
SMALL
GASTEIGER

@<TRIPOS>ATOM
      1 C          -4.6004   -2.0930    0.0001 C.ar    1  LIG1        0.0276
      2 C          -3.2111   -2.0826    0.0000 C.ar    1  LIG1       -0.0426
      3 C          -2.5509   -0.8636   -0.0002 C.ar    1  LIG1       -0.0457
      4 C          -3.3057    0.3067   -0.0003 C.ar    1  LIG1        0.0229
      5 C          -4.6966    0.1854   -0.0002 C.ar    1  LIG1        0.0407
      6 N          -5.3333   -0.9806    0.0000 N.ar    1  LIG1       -0.2622
      7 H          -1.4663   -0.8209   -0.0002 H       1  LIG1        0.0629
      8 H          -2.6555   -3.0138    0.0001 H       1  LIG1        0.0633
      9 H          -5.3236    1.0751   -0.0002 H       1  LIG1        0.0841
     10 H          -5.1480   -3.0318    0.0002 H       1  LIG1        0.0829
     11 S          -2.4738    1.8742   -0.0005 S.3     1  LIG1       -0.1412
     12 H          -3.5798    2.6354   -0.0005 H       1  LIG1        0.1072
@<TRIPOS>BOND
     1    11    12    1
     2    11     4    1
     3     4     5   ar
     4     4     3   ar
     5     9     5    1
     6     7     3    1
     7     5     6   ar
     8     3     2   ar
     9     6     1   ar
    10     2     1   ar
    11     2     8    1
    12     1    10    1
