@<TRIPOS>MOLECULE
mol_data/opt/cam/geoms/mol2/6ah13eh-6fa-13df12hl-6af12di-13he-.out
 91 98 0 0 0
SMALL
GASTEIGER

@<TRIPOS>ATOM
      1 C          -4.9734   -1.5821    2.5659 C.ar    1  LIG1        0.0284
      2 C          -3.6739   -1.6526    3.0566 C.ar    1  LIG1       -0.0418
      3 C          -2.8157   -0.6053    2.7923 C.ar    1  LIG1       -0.0375
      4 C          -3.2422    0.4996    2.0415 C.ar    1  LIG1        0.0524
      5 C          -4.5643    0.4532    1.5415 C.ar    1  LIG1        0.1089
      6 N          -5.3927   -0.5624    1.8329 N.ar    1  LIG1       -0.2516
      7 H          -1.8017   -0.6124    3.1823 H       1  LIG1        0.0637
      8 H          -3.3478   -2.5060    3.6404 H       1  LIG1        0.0633
      9 H          -5.6952   -2.3689    2.7660 H       1  LIG1        0.0830
     10 N          -2.4107    1.5859    1.9026 N.pl3   1  LIG1       -0.3563
     11 H          -1.4453    1.4285    2.1469 H       1  LIG1        0.1424
     12 H          -2.5288    2.1972    1.1084 H       1  LIG1        0.1424
     13 C          -5.2140    1.5073    0.7454 C.ar    1  LIG1        0.0846
     14 C          -4.8101    2.5122   -0.1413 C.ar    1  LIG1        0.0727
     15 C          -5.9875    3.1895   -0.5888 C.ar    1  LIG1        0.0666
     16 C          -7.0741    2.5823    0.0095 C.ar    1  LIG1        0.0742
     17 N          -6.5677    1.5612    0.7991 N.ar    1  LIG1       -0.3503
     18 H          -7.0822    0.9518    1.4195 H       1  LIG1        0.1660
     19 C          -3.5297    2.8019   -0.6753 C.1     1  LIG1       -0.0656
     20 C          -2.4718    3.0992   -1.1762 C.1     1  LIG1       -0.1138
     21 H          -1.5354    3.3380   -1.6258 H       1  LIG1        0.1232
     22 N          -5.9961    4.2755   -1.4567 N.pl3   1  LIG1       -0.3554
     23 H          -5.1350    4.3686   -1.9795 H       1  LIG1        0.1424
     24 H          -6.8046    4.3162   -2.0630 H       1  LIG1        0.1424
     25 C          -9.4769    1.8583   -0.1290 C.ar    1  LIG1        0.2223
     26 C          -8.4979    2.8798   -0.0973 C.ar    1  LIG1        0.0615
     27 C          -8.9727    4.1862   -0.1870 C.ar    1  LIG1       -0.0454
     28 C         -10.3339    4.4442   -0.2738 C.ar    1  LIG1       -0.0334
     29 C         -11.2040    3.3598   -0.2516 C.ar    1  LIG1        0.0923
     30 N         -10.7686    2.0890   -0.1861 N.ar    1  LIG1       -0.2110
     31 H          -8.2619    5.0059   -0.1670 H       1  LIG1        0.0626
     32 O          -9.1350    0.5482   -0.0884 O.3     1  LIG1       -0.4919
     33 H          -8.1972    0.4532   -0.3060 H       1  LIG1        0.2937
     34 H         -10.7048    5.4588   -0.3362 H       1  LIG1        0.0640
     35 C         -12.6581    3.4886   -0.3085 C.ar    1  LIG1        0.0868
     36 C         -13.5296    4.5804   -0.3940 C.ar    1  LIG1        0.1205
     37 C         -14.8535    4.0654   -0.4196 C.ar    1  LIG1        0.1632
     38 C         -14.7556    2.6795   -0.3438 C.ar    1  LIG1        0.1278
     39 N         -13.4135    2.3722   -0.2797 N.ar    1  LIG1       -0.3465
     40 H         -12.9947    1.4537   -0.2279 H       1  LIG1        0.1662
     41 N         -12.8798    7.0699   -0.5005 N.1     1  LIG1       -0.1907
     42 C         -13.1835    5.9529   -0.4531 C.1     1  LIG1        0.1050
     43 O         -15.9442    4.8281   -0.5098 O.3     1  LIG1       -0.5034
     44 H         -16.7494    4.2511   -0.4817 H       1  LIG1        0.2923
     45 C         -15.7748    1.6730   -0.3358 C.ar    1  LIG1        0.1796
     46 C         -17.1427    1.7251   -0.3146 C.ar    1  LIG1        0.1155
     47 C         -17.5887    0.3692   -0.3495 C.ar    1  LIG1        0.1871
     48 C         -16.4810   -0.4307   -0.3790 C.ar    1  LIG1        0.1806
     49 O         -15.3706    0.3775   -0.3635 O.2     1  LIG1       -0.4475
     50 N         -17.9270    2.9151   -0.2912 N.pl3   1  LIG1       -0.3521
     51 H         -18.6501    2.8833   -1.0051 H       1  LIG1        0.1425
     52 H         -18.3930    3.0408    0.6039 H       1  LIG1        0.1425
     53 O         -18.8915   -0.0263   -0.3847 O.3     1  LIG1       -0.4896
     54 C         -19.4950   -0.1589    0.9001 C.3     1  LIG1        0.0791
     55 H         -20.5286   -0.4597    0.7292 H       1  LIG1        0.0660
     56 H         -18.9844   -0.9216    1.4965 H       1  LIG1        0.0660
     57 H         -19.4798    0.7905    1.4472 H       1  LIG1        0.0660
     58 C         -14.9957   -2.4219   -0.2815 C.ar    1  LIG1        0.0394
     59 C         -16.2763   -1.8627   -0.4241 C.ar    1  LIG1        0.0426
     60 C         -17.3366   -2.7446   -0.6052 C.ar    1  LIG1       -0.0057
     61 C         -17.1130   -4.1164   -0.6281 C.ar    1  LIG1        0.1465
     62 C         -15.7907   -4.5772   -0.4747 C.ar    1  LIG1        0.1485
     63 N         -14.7699   -3.7201   -0.3092 N.ar    1  LIG1       -0.2475
     64 H         -18.3478   -2.3865   -0.7536 H       1  LIG1        0.0662
     65 H         -14.1316   -1.7795   -0.1439 H       1  LIG1        0.0837
     66 O         -18.1935   -4.8889   -0.8900 O.3     1  LIG1       -0.5045
     67 H         -18.2009   -5.7220   -0.3977 H       1  LIG1        0.2922
     68 C         -15.3856   -5.9832   -0.5415 C.ar    1  LIG1        0.1750
     69 C         -15.9357   -7.1931   -0.1911 C.ar    1  LIG1        0.1026
     70 C         -14.9656   -8.2232   -0.4574 C.ar    1  LIG1        0.0149
     71 C         -13.8920   -7.5613   -0.9758 C.ar    1  LIG1        0.1578
     72 O         -14.1493   -6.2141   -1.0240 O.2     1  LIG1       -0.4500
     73 N         -18.2580   -7.4855    0.8818 N.1     1  LIG1       -0.1907
     74 C         -17.2038   -7.3803    0.4094 C.1     1  LIG1        0.1033
     75 C         -15.1217   -9.6695   -0.1165 C.3     1  LIG1       -0.0348
     76 H         -14.2739  -10.2553   -0.4732 H       1  LIG1        0.0279
     77 H         -16.0375  -10.0808   -0.5523 H       1  LIG1        0.0279
     78 H         -15.1948   -9.8025    0.9674 H       1  LIG1        0.0279
     79 C         -12.5745   -7.9227   -1.4392 C.ar    1  LIG1        0.1045
     80 C         -12.0489   -9.0690   -2.0046 C.ar    1  LIG1        0.0688
     81 C         -10.6626   -8.8205   -2.2515 C.ar    1  LIG1        0.0633
     82 C         -10.4010   -7.5247   -1.8441 C.ar    1  LIG1        0.0195
     83 N         -11.5470   -6.9944   -1.3672 N.ar    1  LIG1       -0.3556
     84 H         -11.6766   -6.0535   -1.0304 H       1  LIG1        0.1655
     85 H          -9.4796   -6.9650   -1.8780 H       1  LIG1        0.0820
     86 N         -12.7044  -10.2705   -2.2807 N.pl3   1  LIG1       -0.3553
     87 H         -13.6037  -10.1441   -2.7284 H       1  LIG1        0.1424
     88 H         -12.1223  -10.8919   -2.8297 H       1  LIG1        0.1424
     89 C          -9.7650   -9.7502   -2.8383 C.1     1  LIG1       -0.0663
     90 C          -9.0450  -10.5730   -3.3461 C.1     1  LIG1       -0.1138
     91 H          -8.3906  -11.2881   -3.7882 H       1  LIG1        0.1232
@<TRIPOS>BOND
     1    91    90    1
     2    90    89    3
     3    89    81    1
     4    88    86    1
     5    87    86    1
     6    86    80    1
     7    81    80   ar
     8    81    82   ar
     9    24    22    1
    10    80    79   ar
    11    23    22    1
    12    85    82    1
    13    82    83   ar
    14    21    20    1
    15    22    15    1
    16    79    83   ar
    17    79    71    1
    18    83    84    1
    19    20    19    3
    20    72    71   ar
    21    72    68   ar
    22    51    50    1
    23    71    70   ar
    24    66    61    1
    25    66    67    1
    26    64    60    1
    27    19    14    1
    28    61    60   ar
    29    61    62   ar
    30    60    59   ar
    31    15    14   ar
    32    15    16   ar
    33    77    75    1
    34    68    62    1
    35    68    69   ar
    36    43    44    1
    37    43    37    1
    38    41    42    3
    39    62    63   ar
    40    76    75    1
    41    70    69   ar
    42    70    75    1
    43    42    36    1
    44    59    48    1
    45    59    58   ar
    46    37    36   ar
    47    37    38   ar
    48    36    35   ar
    49    53    47    1
    50    53    54    1
    51    48    49   ar
    52    48    47   ar
    53    49    45   ar
    54    47    46   ar
    55    38    45    1
    56    38    39   ar
    57    34    28    1
    58    45    46   ar
    59    46    50    1
    60    63    58   ar
    61    35    39   ar
    62    35    29    1
    63    33    32    1
    64    50    52    1
    65    58    65    1
    66    39    40    1
    67    28    29   ar
    68    28    27   ar
    69    29    30   ar
    70    69    74    1
    71    27    31    1
    72    27    26   ar
    73    30    25   ar
    74    14    13   ar
    75    25    26   ar
    76    25    32    1
    77    75    78    1
    78    26    16    1
    79    16    17   ar
    80    74    73    3
    81    55    54    1
    82    13    17   ar
    83    13     5    1
    84    17    18    1
    85    54    57    1
    86    54    56    1
    87    12    10    1
    88     5     6   ar
    89     5     4   ar
    90     6     1   ar
    91    10     4    1
    92    10    11    1
    93     4     3   ar
    94     1     9    1
    95     1     2   ar
    96     3     2   ar
    97     3     7    1
    98     2     8    1
