@<TRIPOS>MOLECULE
mol_data/opt/cam/geoms/mol2/6ah6ah-6ah6ah-.out
 46 49 0 0 0
SMALL
GASTEIGER

@<TRIPOS>ATOM
      1 C          -4.4261   -2.1748    0.6393 C.ar    1  LIG1        0.0284
      2 C          -3.0632   -2.2778    0.3904 C.ar    1  LIG1       -0.0418
      3 C          -2.3833   -1.1463   -0.0193 C.ar    1  LIG1       -0.0375
      4 C          -3.0612    0.0678   -0.1567 C.ar    1  LIG1        0.0509
      5 C          -4.4379    0.0829    0.1619 C.ar    1  LIG1        0.0930
      6 N          -5.0851   -1.0289    0.5242 N.ar    1  LIG1       -0.2531
      7 H          -1.3214   -1.1895   -0.2451 H       1  LIG1        0.0637
      8 H          -2.5493   -3.2260    0.5030 H       1  LIG1        0.0633
      9 H          -5.0073   -3.0412    0.9435 H       1  LIG1        0.0830
     10 N          -2.3720    1.2002   -0.5729 N.pl3   1  LIG1       -0.3563
     11 H          -1.5152    1.0103   -1.0720 H       1  LIG1        0.1424
     12 H          -2.9307    1.9122   -1.0203 H       1  LIG1        0.1424
     13 C          -4.8261    2.5857    0.4176 C.ar    1  LIG1        0.0376
     14 C          -5.2792    1.3063    0.0823 C.ar    1  LIG1        0.0220
     15 C          -6.6098    1.1924   -0.3037 C.ar    1  LIG1       -0.0283
     16 C          -7.4401    2.3085   -0.3569 C.ar    1  LIG1        0.0516
     17 C          -6.8874    3.5535    0.0249 C.ar    1  LIG1        0.0931
     18 N          -5.6066    3.6593    0.3834 N.ar    1  LIG1       -0.2524
     19 H          -6.9982    0.2114   -0.5573 H       1  LIG1        0.0644
     20 H          -3.8091    2.7462    0.7613 H       1  LIG1        0.0836
     21 N          -8.7631    2.1654   -0.7551 N.pl3   1  LIG1       -0.3563
     22 H          -9.1894    2.9827   -1.1663 H       1  LIG1        0.1424
     23 H          -8.9560    1.3208   -1.2731 H       1  LIG1        0.1424
     24 C          -9.0086    4.9158    0.3755 C.ar    1  LIG1        0.0376
     25 C          -7.6566    4.8249    0.0301 C.ar    1  LIG1        0.0220
     26 C          -7.0073    6.0141   -0.2812 C.ar    1  LIG1       -0.0283
     27 C          -7.6834    7.2309   -0.2554 C.ar    1  LIG1        0.0516
     28 C          -9.0457    7.2132    0.1256 C.ar    1  LIG1        0.0931
     29 N          -9.6667    6.0683    0.4146 N.ar    1  LIG1       -0.2524
     30 H          -5.9535    5.9821   -0.5382 H       1  LIG1        0.0644
     31 H          -9.5715    4.0347    0.6665 H       1  LIG1        0.0836
     32 N          -7.0084    8.4005   -0.5783 N.pl3   1  LIG1       -0.3563
     33 H          -6.1644    8.2652   -1.1148 H       1  LIG1        0.1424
     34 H          -7.5779    9.1586   -0.9243 H       1  LIG1        0.1424
     35 C          -9.4141    9.6740    0.6391 C.ar    1  LIG1        0.0369
     36 C          -9.8913    8.4345    0.2016 C.ar    1  LIG1        0.0220
     37 C         -11.2420    8.3416   -0.1293 C.ar    1  LIG1       -0.0289
     38 C         -12.0573    9.4650   -0.0429 C.ar    1  LIG1        0.0435
     39 C         -11.4598   10.6591    0.3857 C.ar    1  LIG1        0.0482
     40 N         -10.1838   10.7598    0.7253 N.ar    1  LIG1       -0.2608
     41 H         -11.6440    7.3803   -0.4317 H       1  LIG1        0.0643
     42 H         -12.0610   11.5646    0.4632 H       1  LIG1        0.0848
     43 H          -8.3850    9.7904    0.9631 H       1  LIG1        0.0836
     44 N         -13.4163    9.4091   -0.3190 N.pl3   1  LIG1       -0.3568
     45 H         -13.8506   10.2871   -0.5606 H       1  LIG1        0.1424
     46 H         -13.7119    8.6505   -0.9142 H       1  LIG1        0.1424
@<TRIPOS>BOND
     1    23    21    1
     2    22    21    1
     3    33    32    1
     4    11    10    1
     5    12    10    1
     6    34    32    1
     7    46    44    1
     8    21    16    1
     9    32    27    1
    10    10     4    1
    11    45    44    1
    12    19    15    1
    13    30    26    1
    14    41    37    1
    15    16    15   ar
    16    16    17   ar
    17    44    38    1
    18    15    14   ar
    19    26    27   ar
    20    26    25   ar
    21    27    28   ar
    22     7     3    1
    23     4     3   ar
    24     4     5   ar
    25    37    38   ar
    26    37    36   ar
    27    38    39   ar
    28     3     2   ar
    29    17    25    1
    30    17    18   ar
    31    25    24   ar
    32    14     5    1
    33    14    13   ar
    34    28    36    1
    35    28    29   ar
    36     5     6   ar
    37    36    35   ar
    38    24    29   ar
    39    24    31    1
    40    18    13   ar
    41    39    42    1
    42    39    40   ar
    43     2     8    1
    44     2     1   ar
    45    13    20    1
    46     6     1   ar
    47    35    40   ar
    48    35    43    1
    49     1     9    1
