@<TRIPOS>MOLECULE
mol_data/opt/cam/geoms/mol2/6ah6ah-6ah-6ah-.out
 46 49 0 0 0
SMALL
GASTEIGER

@<TRIPOS>ATOM
      1 C          -4.4573   -2.2073    0.4659 C.ar    1  LIG1        0.0284
      2 C          -3.0708   -2.2664    0.5292 C.ar    1  LIG1       -0.0418
      3 C          -2.3568   -1.0901    0.4004 C.ar    1  LIG1       -0.0375
      4 C          -3.0287    0.1233    0.2298 C.ar    1  LIG1        0.0509
      5 C          -4.4416    0.0873    0.2216 C.ar    1  LIG1        0.0930
      6 N          -5.1139   -1.0642    0.3144 N.ar    1  LIG1       -0.2531
      7 H          -1.2705   -1.0961    0.4228 H       1  LIG1        0.0637
      8 H          -2.5621   -3.2146    0.6636 H       1  LIG1        0.0633
      9 H          -5.0607   -3.1080    0.5416 H       1  LIG1        0.0830
     10 N          -2.3044    1.3007    0.0985 N.pl3   1  LIG1       -0.3563
     11 H          -1.3482    1.1764   -0.2006 H       1  LIG1        0.1424
     12 H          -2.7693    2.0516   -0.3906 H       1  LIG1        0.1424
     13 C          -4.9674    2.5451    0.6201 C.ar    1  LIG1        0.0376
     14 C          -5.2862    1.3013    0.0683 C.ar    1  LIG1        0.0220
     15 C          -6.4889    1.2093   -0.6252 C.ar    1  LIG1       -0.0283
     16 C          -7.3190    2.3160   -0.7631 C.ar    1  LIG1        0.0516
     17 C          -6.9100    3.5224   -0.1506 C.ar    1  LIG1        0.0931
     18 N          -5.7540    3.6102    0.5075 N.ar    1  LIG1       -0.2524
     19 H          -6.7735    0.2537   -1.0536 H       1  LIG1        0.0644
     20 H          -4.0634    2.6812    1.2053 H       1  LIG1        0.0836
     21 N          -8.5183    2.2099   -1.4655 N.pl3   1  LIG1       -0.3563
     22 H          -8.8210    3.0624   -1.9158 H       1  LIG1        0.1424
     23 H          -8.5557    1.4180   -2.0917 H       1  LIG1        0.1424
     24 C          -7.0623    6.0001   -0.3738 C.ar    1  LIG1        0.0376
     25 C          -7.7103    4.7717   -0.2115 C.ar    1  LIG1        0.0220
     26 C          -9.0946    4.7995   -0.0827 C.ar    1  LIG1       -0.0283
     27 C          -9.7848    6.0125   -0.1039 C.ar    1  LIG1        0.0516
     28 C          -9.0309    7.1937   -0.2548 C.ar    1  LIG1        0.0931
     29 N          -7.7026    7.1583   -0.4043 N.ar    1  LIG1       -0.2524
     30 H          -9.6495    3.8763    0.0553 H       1  LIG1        0.0644
     31 H          -5.9820    6.0271   -0.4745 H       1  LIG1        0.0836
     32 N         -11.1704    6.0253    0.0507 N.pl3   1  LIG1       -0.3563
     33 H         -11.6375    6.8093   -0.3829 H       1  LIG1        0.1424
     34 H         -11.6180    5.1469   -0.1692 H       1  LIG1        0.1424
     35 C          -9.1586    9.4965   -1.1937 C.ar    1  LIG1        0.0369
     36 C          -9.6471    8.5453   -0.2919 C.ar    1  LIG1        0.0220
     37 C         -10.6761    8.9309    0.5645 C.ar    1  LIG1       -0.0289
     38 C         -11.1831   10.2295    0.4947 C.ar    1  LIG1        0.0435
     39 C         -10.6277   11.0840   -0.4630 C.ar    1  LIG1        0.0482
     40 N          -9.6432   10.7306   -1.2816 N.ar    1  LIG1       -0.2608
     41 H         -11.0625    8.2382    1.3061 H       1  LIG1        0.0643
     42 H         -10.9999   12.1038   -0.5562 H       1  LIG1        0.0848
     43 H          -8.3419    9.2326   -1.8575 H       1  LIG1        0.0836
     44 N         -12.1591   10.6783    1.3749 N.pl3   1  LIG1       -0.3568
     45 H         -12.6814   11.4868    1.0726 H       1  LIG1        0.1424
     46 H         -12.7452    9.9664    1.7837 H       1  LIG1        0.1424
@<TRIPOS>BOND
     1    23    21    1
     2    22    21    1
     3    43    35    1
     4    21    16    1
     5    40    35   ar
     6    40    39   ar
     7    35    36   ar
     8    19    15    1
     9    16    15   ar
    10    16    17   ar
    11    15    14   ar
    12    42    39    1
    13    31    24    1
    14    39    38   ar
    15    29    24   ar
    16    29    28   ar
    17    12    10    1
    18    33    32    1
    19    24    25   ar
    20    36    28    1
    21    36    37   ar
    22    28    27   ar
    23    25    17    1
    24    25    26   ar
    25    11    10    1
    26    34    32    1
    27    17    18   ar
    28    27    26   ar
    29    27    32    1
    30    26    30    1
    31    14     5    1
    32    14    13   ar
    33    10     4    1
    34     5     4   ar
    35     5     6   ar
    36     4     3   ar
    37     6     1   ar
    38     3     7    1
    39     3     2   ar
    40     1     2   ar
    41     1     9    1
    42    38    37   ar
    43    38    44    1
    44    18    13   ar
    45     2     8    1
    46    37    41    1
    47    13    20    1
    48    45    44    1
    49    44    46    1
