@<TRIPOS>MOLECULE
mol_data/opt/cam/geoms/mol2/6ah6ah-.out
 24 25 0 0 0
SMALL
GASTEIGER

@<TRIPOS>ATOM
      1 C          -4.5046   -2.0415    0.4742 C.ar    1  LIG1        0.0284
      2 C          -3.1491   -2.1132    0.1794 C.ar    1  LIG1       -0.0418
      3 C          -2.4917   -0.9500   -0.1749 C.ar    1  LIG1       -0.0375
      4 C          -3.1842    0.2631   -0.2134 C.ar    1  LIG1        0.0509
      5 C          -4.5525    0.2414    0.1411 C.ar    1  LIG1        0.0930
      6 N          -5.1778   -0.8980    0.4507 N.ar    1  LIG1       -0.2531
      7 H          -1.4362   -0.9665   -0.4321 H       1  LIG1        0.0637
      8 H          -2.6233   -3.0610    0.2153 H       1  LIG1        0.0633
      9 H          -5.0684   -2.9319    0.7395 H       1  LIG1        0.0830
     10 N          -2.5165    1.4272   -0.5706 N.pl3   1  LIG1       -0.3563
     11 H          -1.6799    1.2828   -1.1168 H       1  LIG1        0.1424
     12 H          -3.0947    2.1716   -0.9324 H       1  LIG1        0.1424
     13 C          -4.9533    2.7110    0.5795 C.ar    1  LIG1        0.0369
     14 C          -5.4077    1.4593    0.1538 C.ar    1  LIG1        0.0220
     15 C          -6.7434    1.3506   -0.2279 C.ar    1  LIG1       -0.0289
     16 C          -7.5661    2.4718   -0.2014 C.ar    1  LIG1        0.0435
     17 C          -6.9912    3.6790    0.2222 C.ar    1  LIG1        0.0482
     18 N          -5.7302    3.7948    0.6093 N.ar    1  LIG1       -0.2608
     19 H          -7.1286    0.3804   -0.5236 H       1  LIG1        0.0643
     20 H          -7.5990    4.5828    0.2541 H       1  LIG1        0.0848
     21 H          -3.9373    2.8406    0.9391 H       1  LIG1        0.0836
     22 N          -8.9121    2.4023   -0.5305 N.pl3   1  LIG1       -0.3568
     23 H          -9.3414    3.2721   -0.8078 H       1  LIG1        0.1424
     24 H          -9.1807    1.6286   -1.1191 H       1  LIG1        0.1424
@<TRIPOS>BOND
     1    24    22    1
     2    11    10    1
     3    12    10    1
     4    23    22    1
     5    10     4    1
     6    22    16    1
     7    19    15    1
     8     7     3    1
     9    15    16   ar
    10    15    14   ar
    11     4     3   ar
    12     4     5   ar
    13    16    17   ar
    14     3     2   ar
    15     5    14    1
    16     5     6   ar
    17    14    13   ar
    18     2     8    1
    19     2     1   ar
    20    17    20    1
    21    17    18   ar
    22     6     1   ar
    23     1     9    1
    24    13    18   ar
    25    13    21    1
