@<TRIPOS>MOLECULE
mol_data/opt/cam/geoms/mol2/6ah6ah.out
 24 25 0 0 0
SMALL
GASTEIGER

@<TRIPOS>ATOM
      1 C          -4.5260   -2.0246    0.6013 C.ar    1  LIG1        0.0284
      2 C          -3.1597   -2.1147    0.3702 C.ar    1  LIG1       -0.0418
      3 C          -2.4925   -0.9894   -0.0800 C.ar    1  LIG1       -0.0375
      4 C          -3.1913    0.2025   -0.2756 C.ar    1  LIG1        0.0509
      5 C          -4.5715    0.2056    0.0240 C.ar    1  LIG1        0.0930
      6 N          -5.2059   -0.8964    0.4308 N.ar    1  LIG1       -0.2531
      7 H          -1.4272   -1.0240   -0.2918 H       1  LIG1        0.0637
      8 H          -2.6319   -3.0487    0.5278 H       1  LIG1        0.0633
      9 H          -5.0951   -2.8872    0.9373 H       1  LIG1        0.0830
     10 N          -2.5243    1.3399   -0.7277 N.pl3   1  LIG1       -0.3563
     11 H          -1.6661    1.1424   -1.2230 H       1  LIG1        0.1424
     12 H          -3.1055    1.9976   -1.2286 H       1  LIG1        0.1424
     13 C          -6.7124    1.2892   -0.6457 C.ar    1  LIG1        0.0369
     14 C          -5.4209    1.4173   -0.1249 C.ar    1  LIG1        0.0220
     15 C          -5.0030    2.6856    0.2721 C.ar    1  LIG1       -0.0289
     16 C          -5.8686    3.7722    0.1360 C.ar    1  LIG1        0.0435
     17 C          -7.1289    3.5222   -0.4164 C.ar    1  LIG1        0.0482
     18 N          -7.5409    2.3175   -0.7942 N.ar    1  LIG1       -0.2608
     19 H          -4.0211    2.8280    0.7135 H       1  LIG1        0.0643
     20 H          -7.8328    4.3436   -0.5465 H       1  LIG1        0.0848
     21 H          -7.0735    0.3104   -0.9438 H       1  LIG1        0.0836
     22 N          -5.5202    5.0408    0.5813 N.pl3   1  LIG1       -0.3568
     23 H          -4.5315    5.2334    0.6326 H       1  LIG1        0.1424
     24 H          -6.0446    5.8032    0.1790 H       1  LIG1        0.1424
@<TRIPOS>BOND
     1    12    10    1
     2    11    10    1
     3    21    13    1
     4    18    13   ar
     5    18    17   ar
     6    10     4    1
     7    13    14   ar
     8    20    17    1
     9    17    16   ar
    10     7     3    1
    11     4     3   ar
    12     4     5   ar
    13    14     5    1
    14    14    15   ar
    15     3     2   ar
    16     5     6   ar
    17    16    15   ar
    18    16    22    1
    19    24    22    1
    20    15    19    1
    21     2     8    1
    22     2     1   ar
    23     6     1   ar
    24    22    23    1
    25     1     9    1
