@<TRIPOS>MOLECULE
mol_data/opt/cam/geoms/mol2/6ah6ah6ah-6ah-.out
 46 49 0 0 0
SMALL
GASTEIGER

@<TRIPOS>ATOM
      1 C          -4.3810   -2.0306    1.1258 C.ar    1  LIG1        0.0284
      2 C          -3.1441   -2.2889    0.5493 C.ar    1  LIG1       -0.0418
      3 C          -2.5667   -1.3081   -0.2370 C.ar    1  LIG1       -0.0375
      4 C          -3.2192   -0.0881   -0.4200 C.ar    1  LIG1        0.0509
      5 C          -4.4530    0.0966    0.2420 C.ar    1  LIG1        0.0930
      6 N          -5.0114   -0.8721    0.9725 N.ar    1  LIG1       -0.2531
      7 H          -1.6101   -1.4792   -0.7231 H       1  LIG1        0.0637
      8 H          -2.6500   -3.2419    0.7023 H       1  LIG1        0.0633
      9 H          -4.8822   -2.7783    1.7345 H       1  LIG1        0.0830
     10 N          -2.6419    0.9030   -1.2122 N.pl3   1  LIG1       -0.3563
     11 H          -1.9630    0.5544   -1.8743 H       1  LIG1        0.1424
     12 H          -3.3017    1.5326   -1.6474 H       1  LIG1        0.1424
     13 C          -6.6299    1.2984    0.0638 C.ar    1  LIG1        0.0376
     14 C          -5.2349    1.3566    0.1518 C.ar    1  LIG1        0.0220
     15 C          -4.6582    2.6200    0.1826 C.ar    1  LIG1       -0.0283
     16 C          -5.4516    3.7702    0.1410 C.ar    1  LIG1        0.0516
     17 C          -6.8499    3.5974    0.0777 C.ar    1  LIG1        0.0931
     18 N          -7.3948    2.3760    0.0180 N.ar    1  LIG1       -0.2524
     19 H          -3.5804    2.7276    0.2607 H       1  LIG1        0.0644
     20 H          -7.1258    0.3335    0.0383 H       1  LIG1        0.0836
     21 N          -4.8460    5.0196    0.1896 N.pl3   1  LIG1       -0.3563
     22 H          -3.8703    5.0272   -0.0687 H       1  LIG1        0.1424
     23 H          -5.3664    5.7785   -0.2255 H       1  LIG1        0.1424
     24 C          -7.6400    5.9323    0.7136 C.ar    1  LIG1        0.0376
     25 C          -7.8164    4.7247    0.0319 C.ar    1  LIG1        0.0220
     26 C          -8.9949    4.5784   -0.6939 C.ar    1  LIG1       -0.0283
     27 C          -9.9367    5.6001   -0.7390 C.ar    1  LIG1        0.0516
     28 C          -9.6644    6.7760   -0.0034 C.ar    1  LIG1        0.0931
     29 N          -8.5335    6.9157    0.6880 N.ar    1  LIG1       -0.2524
     30 H          -9.1718    3.6458   -1.2196 H       1  LIG1        0.0644
     31 H          -6.7667    6.1006    1.3356 H       1  LIG1        0.0836
     32 N         -11.1106    5.4378   -1.4720 N.pl3   1  LIG1       -0.3563
     33 H         -11.5092    6.2942   -1.8304 H       1  LIG1        0.1424
     34 H         -11.0566    4.7177   -2.1782 H       1  LIG1        0.1424
     35 C         -10.0687    9.2333   -0.0025 C.ar    1  LIG1        0.0369
     36 C         -10.5918    7.9367    0.0351 C.ar    1  LIG1        0.0220
     37 C         -11.9733    7.7968    0.1487 C.ar    1  LIG1       -0.0289
     38 C         -12.7792    8.9344    0.2164 C.ar    1  LIG1        0.0435
     39 C         -12.1415   10.1773    0.1489 C.ar    1  LIG1        0.0482
     40 N         -10.8256   10.3244    0.0449 N.ar    1  LIG1       -0.2608
     41 H         -12.4218    6.8103    0.2156 H       1  LIG1        0.0643
     42 H         -12.7346   11.0904    0.1906 H       1  LIG1        0.0848
     43 H          -8.9949    9.3741   -0.0690 H       1  LIG1        0.0836
     44 N         -14.1527    8.8434    0.4001 N.pl3   1  LIG1       -0.3568
     45 H         -14.6845    9.6567    0.1288 H       1  LIG1        0.1424
     46 H         -14.5811    7.9803    0.1017 H       1  LIG1        0.1424
@<TRIPOS>BOND
     1    34    32    1
     2    11    10    1
     3    33    32    1
     4    12    10    1
     5    32    27    1
     6    30    26    1
     7    10     4    1
     8    27    26   ar
     9    27    28   ar
    10     7     3    1
    11    26    25   ar
    12     4     3   ar
    13     4     5   ar
    14     3     2   ar
    15    23    21    1
    16    43    35    1
    17    22    21    1
    18    28    36    1
    19    28    29   ar
    20    35    36   ar
    21    35    40   ar
    22    18    13   ar
    23    18    17   ar
    24    25    17    1
    25    25    24   ar
    26    36    37   ar
    27    20    13    1
    28    40    39   ar
    29    13    14   ar
    30    17    16   ar
    31    46    44    1
    32    45    44    1
    33    16    15   ar
    34    16    21    1
    35    37    41    1
    36    37    38   ar
    37    39    42    1
    38    39    38   ar
    39    14    15   ar
    40    14     5    1
    41    15    19    1
    42    38    44    1
    43     5     6   ar
    44     2     8    1
    45     2     1   ar
    46    29    24   ar
    47    24    31    1
    48     6     1   ar
    49     1     9    1
