@<TRIPOS>MOLECULE
mol_data/opt/cam/geoms/mol2/6ah6ah6ah6ah.out
 46 49 0 0 0
SMALL
GASTEIGER

@<TRIPOS>ATOM
      1 C          -4.1739   -1.7602    1.6784 C.ar    1  LIG1        0.0284
      2 C          -3.0938   -2.2032    0.9261 C.ar    1  LIG1       -0.0418
      3 C          -2.6954   -1.4480   -0.1624 C.ar    1  LIG1       -0.0375
      4 C          -3.3654   -0.2634   -0.4705 C.ar    1  LIG1        0.0509
      5 C          -4.4247    0.1256    0.3784 C.ar    1  LIG1        0.0930
      6 N          -4.8163   -0.6299    1.4076 N.ar    1  LIG1       -0.2531
      7 H          -1.8688   -1.7718   -0.7891 H       1  LIG1        0.0637
      8 H          -2.5840   -3.1261    1.1794 H       1  LIG1        0.0633
      9 H          -4.5349   -2.3307    2.5298 H       1  LIG1        0.0830
     10 N          -2.9699    0.5024   -1.5666 N.pl3   1  LIG1       -0.3563
     11 H          -2.4540   -0.0170   -2.2632 H       1  LIG1        0.1424
     12 H          -3.7086    1.0528   -1.9823 H       1  LIG1        0.1424
     13 C          -6.5838    1.3721    0.3799 C.ar    1  LIG1        0.0376
     14 C          -5.2006    1.3761    0.1739 C.ar    1  LIG1        0.0220
     15 C          -4.6186    2.5862   -0.1873 C.ar    1  LIG1       -0.0283
     16 C          -5.3974    3.7368   -0.3195 C.ar    1  LIG1        0.0516
     17 C          -6.7793    3.6254   -0.0674 C.ar    1  LIG1        0.0931
     18 N          -7.3373    2.4529    0.2528 N.ar    1  LIG1       -0.2524
     19 H          -3.5471    2.6501   -0.3529 H       1  LIG1        0.0644
     20 H          -7.0807    0.4506    0.6652 H       1  LIG1        0.0836
     21 N          -4.7961    4.9480   -0.6620 N.pl3   1  LIG1       -0.3563
     22 H          -3.8971    4.8474   -1.1119 H       1  LIG1        0.1424
     23 H          -5.3968    5.5910   -1.1589 H       1  LIG1        0.1424
     24 C          -8.9855    4.5835   -0.7193 C.ar    1  LIG1        0.0376
     25 C          -7.7149    4.7738   -0.1666 C.ar    1  LIG1        0.0220
     26 C          -7.4107    6.0503    0.2937 C.ar    1  LIG1       -0.0283
     27 C          -8.3512    7.0783    0.2085 C.ar    1  LIG1        0.0516
     28 C          -9.6075    6.7730   -0.3520 C.ar    1  LIG1        0.0931
     29 N          -9.8851    5.5498   -0.8155 N.ar    1  LIG1       -0.2524
     30 H          -6.4437    6.2535    0.7442 H       1  LIG1        0.0644
     31 H          -9.2686    3.6024   -1.0864 H       1  LIG1        0.0836
     32 N          -8.0393    8.3465    0.6969 N.pl3   1  LIG1       -0.3563
     33 H          -7.0484    8.5282    0.7704 H       1  LIG1        0.1424
     34 H          -8.5334    9.1057    0.2494 H       1  LIG1        0.1424
     35 C         -11.4667    7.7849   -1.6635 C.ar    1  LIG1        0.0369
     36 C         -10.6912    7.7789   -0.4994 C.ar    1  LIG1        0.0220
     37 C         -11.0030    8.7054    0.4933 C.ar    1  LIG1       -0.0289
     38 C         -12.0572    9.5992    0.2977 C.ar    1  LIG1        0.0435
     39 C         -12.7455    9.5228   -0.9173 C.ar    1  LIG1        0.0482
     40 N         -12.4619    8.6411   -1.8693 N.ar    1  LIG1       -0.2608
     41 H         -10.4527    8.7141    1.4294 H       1  LIG1        0.0643
     42 H         -13.5698   10.2076   -1.1139 H       1  LIG1        0.0848
     43 H         -11.2628    7.0598   -2.4445 H       1  LIG1        0.0836
     44 N         -12.4478   10.4919    1.2872 N.pl3   1  LIG1       -0.3568
     45 H         -11.7397   10.7408    1.9611 H       1  LIG1        0.1424
     46 H         -12.9825   11.2872    0.9717 H       1  LIG1        0.1424
@<TRIPOS>BOND
     1    43    35    1
     2    11    10    1
     3    12    10    1
     4    40    35   ar
     5    40    39   ar
     6    35    36   ar
     7    10     4    1
     8    23    21    1
     9    42    39    1
    10    22    21    1
    11    31    24    1
    12    39    38   ar
    13    29    24   ar
    14    29    28   ar
    15     7     3    1
    16    24    25   ar
    17    21    16    1
    18    36    28    1
    19    36    37   ar
    20     4     3   ar
    21     4     5   ar
    22    19    15    1
    23    28    27   ar
    24    16    15   ar
    25    16    17   ar
    26    15    14   ar
    27    25    17    1
    28    25    26   ar
    29     3     2   ar
    30    17    18   ar
    31    14     5    1
    32    14    13   ar
    33    27    26   ar
    34    27    32    1
    35    34    32    1
    36    18    13   ar
    37    26    30    1
    38    38    37   ar
    39    38    44    1
    40     5     6   ar
    41    13    20    1
    42    37    41    1
    43    32    33    1
    44     2     8    1
    45     2     1   ar
    46    46    44    1
    47    44    45    1
    48     6     1   ar
    49     1     9    1
