@<TRIPOS>MOLECULE
mol_data/opt/cam/geoms/mol2/6ah6ah-4ah6ah.out
 47 50 0 0 0
SMALL
GASTEIGER

@<TRIPOS>ATOM
      1 C          -4.5296   -2.2753    0.0661 C.ar    1  LIG1        0.0284
      2 C          -3.1467   -2.3655    0.1605 C.ar    1  LIG1       -0.0418
      3 C          -2.4126   -1.1944    0.1846 C.ar    1  LIG1       -0.0375
      4 C          -3.0622    0.0414    0.1331 C.ar    1  LIG1        0.0509
      5 C          -4.4748    0.0318    0.0814 C.ar    1  LIG1        0.0930
      6 N          -5.1654   -1.1110    0.0259 N.ar    1  LIG1       -0.2531
      7 H          -1.3276   -1.2216    0.2363 H       1  LIG1        0.0637
      8 H          -2.6557   -3.3315    0.2016 H       1  LIG1        0.0633
      9 H          -5.1479   -3.1680    0.0234 H       1  LIG1        0.0830
     10 N          -2.3179    1.2141    0.1543 N.pl3   1  LIG1       -0.3563
     11 H          -1.3582    1.1086   -0.1407 H       1  LIG1        0.1424
     12 H          -2.7633    2.0224   -0.2550 H       1  LIG1        0.1424
     13 C          -4.9791    2.4373    0.7418 C.ar    1  LIG1        0.0376
     14 C          -5.2955    1.2709    0.0405 C.ar    1  LIG1        0.0220
     15 C          -6.4740    1.2823   -0.6985 C.ar    1  LIG1       -0.0283
     16 C          -7.2840    2.4123   -0.7350 C.ar    1  LIG1        0.0515
     17 C          -6.8804    3.5352    0.0253 C.ar    1  LIG1        0.0916
     18 N          -5.7457    3.5224    0.7252 N.ar    1  LIG1       -0.2525
     19 H          -6.7581    0.3880   -1.2437 H       1  LIG1        0.0644
     20 H          -4.0944    2.4893    1.3689 H       1  LIG1        0.0836
     21 N          -8.4549    2.4029   -1.4885 N.pl3   1  LIG1       -0.3563
     22 H          -8.7616    3.3105   -1.8089 H       1  LIG1        0.1424
     23 H          -8.4668    1.7092   -2.2224 H       1  LIG1        0.1424
     24 C          -6.9706    6.0205    0.1044 C.ar    1  LIG1       -0.0518
     25 C          -7.6801    7.2050    0.1770 C.ar    1  LIG1       -0.0516
     26 C          -7.6571    4.8037    0.0787 C.ar    1  LIG1        0.0039
     27 C          -9.0760    7.2389    0.2446 C.ar    1  LIG1        0.0043
     28 H          -7.1428    8.1480    0.2048 H       1  LIG1        0.0624
     29 C          -9.0488    4.8186    0.1474 C.ar    1  LIG1       -0.0312
     30 C          -9.7719    6.0142    0.2378 C.ar    1  LIG1        0.0330
     31 H          -9.5966    3.8817    0.1688 H       1  LIG1        0.0643
     32 H          -5.8880    6.0170    0.0865 H       1  LIG1        0.0624
     33 N         -11.1564    5.9573    0.3503 N.pl3   1  LIG1       -0.3575
     34 H         -11.6598    6.7879    0.0773 H       1  LIG1        0.1423
     35 H         -11.5808    5.1056    0.0161 H       1  LIG1        0.1423
     36 C         -10.7653    8.8207    1.2554 C.ar    1  LIG1        0.0354
     37 C          -9.7708    8.5494    0.3087 C.ar    1  LIG1        0.0037
     38 C          -9.4178    9.5788   -0.5628 C.ar    1  LIG1       -0.0303
     39 C         -10.0447   10.8196   -0.4702 C.ar    1  LIG1        0.0435
     40 C         -11.0311   10.9654    0.5137 C.ar    1  LIG1        0.0482
     41 N         -11.3802    9.9986    1.3505 N.ar    1  LIG1       -0.2608
     42 H          -8.6557    9.4091   -1.3185 H       1  LIG1        0.0643
     43 H         -11.5513   11.9171    0.6185 H       1  LIG1        0.0848
     44 H         -11.0616    8.0587    1.9702 H       1  LIG1        0.0836
     45 N          -9.6862   11.8846   -1.2849 N.pl3   1  LIG1       -0.3568
     46 H          -9.2558   11.6397   -2.1638 H       1  LIG1        0.1424
     47 H         -10.3794   12.6114   -1.3820 H       1  LIG1        0.1424
@<TRIPOS>BOND
     1    23    21    1
     2    46    45    1
     3    22    21    1
     4    21    16    1
     5    47    45    1
     6    42    38    1
     7    45    39    1
     8    19    15    1
     9    16    15   ar
    10    16    17   ar
    11    15    14   ar
    12    38    39   ar
    13    38    37   ar
    14    39    40   ar
    15    12    10    1
    16    11    10    1
    17    35    33    1
    18     9     1    1
    19    17    26    1
    20    17    18   ar
    21     6     1   ar
    22     6     5   ar
    23    14     5    1
    24    14    13   ar
    25     1     2   ar
    26    34    33    1
    27    26    24   ar
    28    26    29   ar
    29     5     4   ar
    30    32    24    1
    31    24    25   ar
    32     4    10    1
    33     4     3   ar
    34    29    31    1
    35    29    30   ar
    36     2     3   ar
    37     2     8    1
    38    25    28    1
    39    25    27   ar
    40     3     7    1
    41    30    27   ar
    42    30    33    1
    43    27    37    1
    44    37    36   ar
    45    40    43    1
    46    40    41   ar
    47    18    13   ar
    48    13    20    1
    49    36    41   ar
    50    36    44    1
