@<TRIPOS>MOLECULE
mol_data/opt/cam/geoms/mol2/6ah6ah6ah.out
 35 37 0 0 0
SMALL
GASTEIGER

@<TRIPOS>ATOM
      1 C          -4.3714   -1.9064    1.1942 C.ar    1  LIG1        0.0284
      2 C          -3.1206   -2.1630    0.6480 C.ar    1  LIG1       -0.0418
      3 C          -2.5532   -1.2075   -0.1761 C.ar    1  LIG1       -0.0375
      4 C          -3.2307   -0.0136   -0.4266 C.ar    1  LIG1        0.0509
      5 C          -4.4787    0.1728    0.2072 C.ar    1  LIG1        0.0930
      6 N          -5.0261   -0.7716    0.9763 N.ar    1  LIG1       -0.2531
      7 H          -1.5858   -1.3793   -0.6402 H       1  LIG1        0.0637
      8 H          -2.6077   -3.0961    0.8532 H       1  LIG1        0.0633
      9 H          -4.8646   -2.6358    1.8311 H       1  LIG1        0.0830
     10 N          -2.6652    0.9535   -1.2566 N.pl3   1  LIG1       -0.3563
     11 H          -1.9716    0.5897   -1.8949 H       1  LIG1        0.1424
     12 H          -3.3350    1.5449   -1.7290 H       1  LIG1        0.1424
     13 C          -6.6760    1.3123   -0.0916 C.ar    1  LIG1        0.0376
     14 C          -5.2873    1.4080    0.0398 C.ar    1  LIG1        0.0220
     15 C          -4.7383    2.6856    0.0374 C.ar    1  LIG1       -0.0283
     16 C          -5.5575    3.8097   -0.0793 C.ar    1  LIG1        0.0516
     17 C          -6.9469    3.5999   -0.1882 C.ar    1  LIG1        0.0931
     18 N          -7.4660    2.3680   -0.2112 N.ar    1  LIG1       -0.2524
     19 H          -3.6661    2.8208    0.1452 H       1  LIG1        0.0644
     20 H          -7.1487    0.3354   -0.0916 H       1  LIG1        0.0836
     21 N          -4.9943    5.0850   -0.0561 N.pl3   1  LIG1       -0.3563
     22 H          -4.0140    5.1076   -0.2985 H       1  LIG1        0.1424
     23 H          -5.5242    5.7905   -0.5483 H       1  LIG1        0.1424
     24 C          -9.0032    4.5767   -1.1964 C.ar    1  LIG1        0.0369
     25 C          -7.9233    4.7125   -0.3180 C.ar    1  LIG1        0.0220
     26 C          -7.8375    5.8850    0.4298 C.ar    1  LIG1       -0.0289
     27 C          -8.8114    6.8734    0.2786 C.ar    1  LIG1        0.0435
     28 C          -9.8317    6.6319   -0.6471 C.ar    1  LIG1        0.0482
     29 N          -9.9277    5.5167   -1.3619 N.ar    1  LIG1       -0.2608
     30 H          -7.0373    6.0193    1.1513 H       1  LIG1        0.0643
     31 H         -10.6076    7.3811   -0.8017 H       1  LIG1        0.0848
     32 H          -9.1094    3.6650   -1.7750 H       1  LIG1        0.0836
     33 N          -8.8053    8.0262    1.0529 N.pl3   1  LIG1       -0.3568
     34 H          -7.9098    8.3031    1.4253 H       1  LIG1        0.1424
     35 H          -9.3311    8.8037    0.6830 H       1  LIG1        0.1424
@<TRIPOS>BOND
     1    11    10    1
     2    32    24    1
     3    12    10    1
     4    29    24   ar
     5    29    28   ar
     6    10     4    1
     7    24    25   ar
     8    31    28    1
     9    28    27   ar
    10     7     3    1
    11    23    21    1
    12     4     3   ar
    13     4     5   ar
    14    25    17    1
    15    25    26   ar
    16    22    21    1
    17    18    17   ar
    18    18    13   ar
    19    17    16   ar
    20     3     2   ar
    21    13    20    1
    22    13    14   ar
    23    16    21    1
    24    16    15   ar
    25    15    14   ar
    26    15    19    1
    27    14     5    1
    28     5     6   ar
    29    27    26   ar
    30    27    33    1
    31    26    30    1
    32     2     8    1
    33     2     1   ar
    34    35    33    1
    35     6     1   ar
    36    33    34    1
    37     1     9    1
