@<TRIPOS>MOLECULE
mol_data/opt/cam/geoms/mol2/6ah6ah6ah-6ah.out
 46 49 0 0 0
SMALL
GASTEIGER

@<TRIPOS>ATOM
      1 C          -4.3007   -1.9934    1.2171 C.ar    1  LIG1        0.0284
      2 C          -3.0916   -2.2645    0.5898 C.ar    1  LIG1       -0.0418
      3 C          -2.5627   -1.3101   -0.2605 C.ar    1  LIG1       -0.0375
      4 C          -3.2344   -0.1027   -0.4564 C.ar    1  LIG1        0.0509
      5 C          -4.4353    0.0982    0.2589 C.ar    1  LIG1        0.0930
      6 N          -4.9483   -0.8459    1.0521 N.ar    1  LIG1       -0.2531
      7 H          -1.6299   -1.4928   -0.7872 H       1  LIG1        0.0637
      8 H          -2.5821   -3.2075    0.7536 H       1  LIG1        0.0633
      9 H          -4.7646   -2.7211    1.8774 H       1  LIG1        0.0830
     10 N          -2.7066    0.8619   -1.3136 N.pl3   1  LIG1       -0.3563
     11 H          -2.0598    0.4924   -1.9962 H       1  LIG1        0.1424
     12 H          -3.3943    1.4683   -1.7386 H       1  LIG1        0.1424
     13 C          -6.6290    1.2770    0.1391 C.ar    1  LIG1        0.0376
     14 C          -5.2320    1.3482    0.1599 C.ar    1  LIG1        0.0220
     15 C          -4.6654    2.6160    0.1178 C.ar    1  LIG1       -0.0283
     16 C          -5.4702    3.7577    0.0716 C.ar    1  LIG1        0.0516
     17 C          -6.8683    3.5732    0.0794 C.ar    1  LIG1        0.0931
     18 N          -7.4048    2.3469    0.0895 N.ar    1  LIG1       -0.2524
     19 H          -3.5861    2.7340    0.1410 H       1  LIG1        0.0644
     20 H          -7.1172    0.3084    0.1717 H       1  LIG1        0.0836
     21 N          -4.8745    5.0134    0.0462 N.pl3   1  LIG1       -0.3563
     22 H          -3.9136    5.0177   -0.2632 H       1  LIG1        0.1424
     23 H          -5.4227    5.7500   -0.3731 H       1  LIG1        0.1424
     24 C          -7.6500    5.9217    0.6749 C.ar    1  LIG1        0.0376
     25 C          -7.8448    4.6920    0.0382 C.ar    1  LIG1        0.0220
     26 C          -9.0500    4.5169   -0.6324 C.ar    1  LIG1       -0.0283
     27 C         -10.0058    5.5286   -0.6699 C.ar    1  LIG1        0.0516
     28 C          -9.7151    6.7282    0.0219 C.ar    1  LIG1        0.0931
     29 N          -8.5538    6.8943    0.6571 N.ar    1  LIG1       -0.2524
     30 H          -9.2415    3.5681   -1.1229 H       1  LIG1        0.0644
     31 H          -6.7521    6.1165    1.2526 H       1  LIG1        0.0836
     32 N         -11.1967    5.3254   -1.3535 N.pl3   1  LIG1       -0.3563
     33 H         -11.6632    6.1556   -1.6877 H       1  LIG1        0.1424
     34 H         -11.1688    4.5849   -2.0387 H       1  LIG1        0.1424
     35 C         -12.0321    7.7645    0.1426 C.ar    1  LIG1        0.0369
     36 C         -10.6412    7.8910    0.0714 C.ar    1  LIG1        0.0220
     37 C         -10.1069    9.1780    0.0990 C.ar    1  LIG1       -0.0289
     38 C         -10.9523   10.2800    0.1687 C.ar    1  LIG1        0.0435
     39 C         -12.3312   10.0284    0.2104 C.ar    1  LIG1        0.0482
     40 N         -12.8548    8.8122    0.2078 N.ar    1  LIG1       -0.2608
     41 H          -9.0288    9.2996    0.0867 H       1  LIG1        0.0643
     42 H         -13.0298   10.8632    0.2602 H       1  LIG1        0.0848
     43 H         -12.4998    6.7861    0.1821 H       1  LIG1        0.0836
     44 N         -10.4635   11.5769    0.2441 N.pl3   1  LIG1       -0.3568
     45 H          -9.5298   11.7147   -0.1115 H       1  LIG1        0.1424
     46 H         -11.1021   12.3030   -0.0439 H       1  LIG1        0.1424
@<TRIPOS>BOND
     1    34    32    1
     2    11    10    1
     3    12    10    1
     4    33    32    1
     5    32    27    1
     6    10     4    1
     7    30    26    1
     8     7     3    1
     9    27    26   ar
    10    27    28   ar
    11    26    25   ar
    12     4     3   ar
    13     4     5   ar
    14    23    21    1
    15    22    21    1
    16     3     2   ar
    17    45    44    1
    18    46    44    1
    19    28    36    1
    20    28    29   ar
    21    25    17    1
    22    25    24   ar
    23    21    16    1
    24    36    37   ar
    25    36    35   ar
    26    16    17   ar
    27    16    15   ar
    28    17    18   ar
    29    41    37    1
    30    18    13   ar
    31    37    38   ar
    32    15    19    1
    33    15    14   ar
    34    13    14   ar
    35    13    20    1
    36    35    43    1
    37    35    40   ar
    38    14     5    1
    39    38    39   ar
    40    38    44    1
    41    40    39   ar
    42    39    42    1
    43     5     6   ar
    44     2     8    1
    45     2     1   ar
    46    29    24   ar
    47    24    31    1
    48     6     1   ar
    49     1     9    1
