@<TRIPOS>MOLECULE
mol_data/opt/cam/geoms/mol2/6ah6ah-6ah-6ah.out
 46 49 0 0 0
SMALL
GASTEIGER

@<TRIPOS>ATOM
      1 C          -4.5230   -2.2447    0.1781 C.ar    1  LIG1        0.0284
      2 C          -3.1374   -2.3296    0.2316 C.ar    1  LIG1       -0.0418
      3 C          -2.4055   -1.1580    0.1871 C.ar    1  LIG1       -0.0375
      4 C          -3.0590    0.0747    0.1089 C.ar    1  LIG1        0.0509
      5 C          -4.4723    0.0612    0.1036 C.ar    1  LIG1        0.0930
      6 N          -5.1620   -1.0836    0.1139 N.ar    1  LIG1       -0.2531
      7 H          -1.3194   -1.1822    0.2048 H       1  LIG1        0.0637
      8 H          -2.6431   -3.2928    0.2941 H       1  LIG1        0.0633
      9 H          -5.1402   -3.1391    0.1896 H       1  LIG1        0.0830
     10 N          -2.3167    1.2474    0.0611 N.pl3   1  LIG1       -0.3563
     11 H          -1.3638    1.1304   -0.2508 H       1  LIG1        0.1424
     12 H          -2.7719    2.0385   -0.3703 H       1  LIG1        0.1424
     13 C          -4.9592    2.4913    0.6839 C.ar    1  LIG1        0.0376
     14 C          -5.2987    1.2958    0.0442 C.ar    1  LIG1        0.0220
     15 C          -6.5059    1.2725   -0.6470 C.ar    1  LIG1       -0.0283
     16 C          -7.3213    2.3976   -0.6975 C.ar    1  LIG1        0.0516
     17 C          -6.8927    3.5496    0.0006 C.ar    1  LIG1        0.0931
     18 N          -5.7314    3.5721    0.6553 N.ar    1  LIG1       -0.2524
     19 H          -6.8067    0.3551   -1.1426 H       1  LIG1        0.0644
     20 H          -4.0505    2.5718    1.2721 H       1  LIG1        0.0836
     21 N          -8.5248    2.3591   -1.3989 N.pl3   1  LIG1       -0.3563
     22 H          -8.8216    3.2465   -1.7800 H       1  LIG1        0.1424
     23 H          -8.5773    1.6162   -2.0813 H       1  LIG1        0.1424
     24 C          -7.0075    6.0391   -0.0165 C.ar    1  LIG1        0.0376
     25 C          -7.6749    4.8110    0.0402 C.ar    1  LIG1        0.0220
     26 C          -9.0583    4.8515    0.1649 C.ar    1  LIG1       -0.0283
     27 C          -9.7337    6.0727    0.2435 C.ar    1  LIG1        0.0516
     28 C          -8.9609    7.2518    0.1963 C.ar    1  LIG1        0.0931
     29 N          -7.6317    7.2033    0.0470 N.ar    1  LIG1       -0.2524
     30 H          -9.6289    3.9297    0.2254 H       1  LIG1        0.0644
     31 H          -5.9265    6.0580   -0.1108 H       1  LIG1        0.0836
     32 N         -11.1152    6.0801    0.3889 N.pl3   1  LIG1       -0.3563
     33 H         -11.5883    6.9131    0.0706 H       1  LIG1        0.1424
     34 H         -11.5765    5.2304    0.0995 H       1  LIG1        0.1424
     35 C         -10.6412    8.9476    1.0657 C.ar    1  LIG1        0.0369
     36 C          -9.5440    8.6179    0.2639 C.ar    1  LIG1        0.0220
     37 C          -8.9462    9.6430   -0.4673 C.ar    1  LIG1       -0.0289
     38 C          -9.4618   10.9331   -0.4040 C.ar    1  LIG1        0.0435
     39 C         -10.5816   11.1368    0.4153 C.ar    1  LIG1        0.0482
     40 N         -11.1473   10.1798    1.1347 N.ar    1  LIG1       -0.2608
     41 H          -8.0676    9.4195   -1.0633 H       1  LIG1        0.0643
     42 H         -11.0206   12.1313    0.4902 H       1  LIG1        0.0848
     43 H         -11.1085    8.2028    1.7018 H       1  LIG1        0.0836
     44 N          -8.8729   11.9927   -1.0795 N.pl3   1  LIG1       -0.3568
     45 H          -8.3053   11.7440   -1.8753 H       1  LIG1        0.1424
     46 H          -9.4710   12.7853   -1.2583 H       1  LIG1        0.1424
@<TRIPOS>BOND
     1    23    21    1
     2    45    44    1
     3    22    21    1
     4    21    16    1
     5    46    44    1
     6    19    15    1
     7    44    38    1
     8    41    37    1
     9    16    15   ar
    10    16    17   ar
    11    15    14   ar
    12    37    38   ar
    13    37    36   ar
    14    38    39   ar
    15    12    10    1
    16    11    10    1
    17    31    24    1
    18    24    25   ar
    19    24    29   ar
    20    17    25    1
    21    17    18   ar
    22    25    26   ar
    23    14     5    1
    24    14    13   ar
    25    29    28   ar
    26    10     4    1
    27    33    32    1
    28    34    32    1
    29     5     4   ar
    30     5     6   ar
    31     4     3   ar
    32     6     1   ar
    33    26    30    1
    34    26    27   ar
    35     1     9    1
    36     1     2   ar
    37     3     7    1
    38     3     2   ar
    39    28    27   ar
    40    28    36    1
    41     2     8    1
    42    27    32    1
    43    36    35   ar
    44    39    42    1
    45    39    40   ar
    46    18    13   ar
    47    13    20    1
    48    35    40   ar
    49    35    43    1
