@<TRIPOS>MOLECULE
mol_data/opt/cam/geoms/mol2/6ah6ah6ah6ah-.out
 46 49 0 0 0
SMALL
GASTEIGER

@<TRIPOS>ATOM
      1 C          -3.8974   -1.7113    1.5388 C.ar    1  LIG1        0.0284
      2 C          -2.8919   -2.1154    0.6702 C.ar    1  LIG1       -0.0418
      3 C          -2.6406   -1.3443   -0.4506 C.ar    1  LIG1       -0.0375
      4 C          -3.3794   -0.1821   -0.6760 C.ar    1  LIG1        0.0509
      5 C          -4.3515    0.1687    0.2862 C.ar    1  LIG1        0.0930
      6 N          -4.6027   -0.6026    1.3471 N.ar    1  LIG1       -0.2531
      7 H          -1.8771   -1.6382   -1.1658 H       1  LIG1        0.0637
      8 H          -2.3268   -3.0211    0.8606 H       1  LIG1        0.0633
      9 H          -4.1439   -2.2959    2.4210 H       1  LIG1        0.0830
     10 N          -3.1317    0.5991   -1.8042 N.pl3   1  LIG1       -0.3563
     11 H          -2.6779    0.0988   -2.5558 H       1  LIG1        0.1424
     12 H          -3.9292    1.1252   -2.1336 H       1  LIG1        0.1424
     13 C          -6.5353    1.3448    0.5399 C.ar    1  LIG1        0.0376
     14 C          -5.1853    1.3936    0.1775 C.ar    1  LIG1        0.0220
     15 C          -4.6875    2.6227   -0.2402 C.ar    1  LIG1       -0.0283
     16 C          -5.5123    3.7484   -0.2754 C.ar    1  LIG1        0.0516
     17 C          -6.8518    3.5927    0.1339 C.ar    1  LIG1        0.0931
     18 N          -7.3317    2.4013    0.5074 N.ar    1  LIG1       -0.2524
     19 H          -3.6445    2.7225   -0.5259 H       1  LIG1        0.0644
     20 H          -6.9670    0.4070    0.8741 H       1  LIG1        0.0836
     21 N          -4.9915    4.9776   -0.6788 N.pl3   1  LIG1       -0.3563
     22 H          -4.1469    4.9060   -1.2284 H       1  LIG1        0.1424
     23 H          -5.6640    5.6044   -1.0979 H       1  LIG1        0.1424
     24 C          -9.1542    4.4745   -0.2285 C.ar    1  LIG1        0.0376
     25 C          -7.8290    4.7099    0.1538 C.ar    1  LIG1        0.0220
     26 C          -7.5128    5.9986    0.5663 C.ar    1  LIG1       -0.0283
     27 C          -8.4893    6.9981    0.6031 C.ar    1  LIG1        0.0516
     28 C          -9.7991    6.6475    0.2147 C.ar    1  LIG1        0.0931
     29 N         -10.0881    5.4106   -0.2073 N.ar    1  LIG1       -0.2524
     30 H          -6.5040    6.2376    0.8894 H       1  LIG1        0.0644
     31 H          -9.4501    3.4824   -0.5539 H       1  LIG1        0.0836
     32 N          -8.1451    8.2718    1.0384 N.pl3   1  LIG1       -0.3563
     33 H          -7.1603    8.4860    0.9849 H       1  LIG1        0.1424
     34 H          -8.7301    9.0245    0.7065 H       1  LIG1        0.1424
     35 C         -11.1066    8.6123    1.1563 C.ar    1  LIG1        0.0369
     36 C         -10.9355    7.6063    0.2001 C.ar    1  LIG1        0.0220
     37 C         -11.9138    7.4769   -0.7843 C.ar    1  LIG1       -0.0289
     38 C         -12.9964    8.3495   -0.8065 C.ar    1  LIG1        0.0435
     39 C         -13.0459    9.3356    0.1895 C.ar    1  LIG1        0.0482
     40 N         -12.1382    9.4579    1.1457 N.ar    1  LIG1       -0.2608
     41 H         -11.8244    6.6764   -1.5112 H       1  LIG1        0.0643
     42 H         -13.8741   10.0436    0.2060 H       1  LIG1        0.0848
     43 H         -10.4089    8.7206    1.9805 H       1  LIG1        0.0836
     44 N         -14.0166    8.2301   -1.7395 N.pl3   1  LIG1       -0.3568
     45 H         -14.5605    9.0636   -1.9044 H       1  LIG1        0.1424
     46 H         -13.7790    7.7431   -2.5901 H       1  LIG1        0.1424
@<TRIPOS>BOND
     1    46    44    1
     2    11    10    1
     3    12    10    1
     4    45    44    1
     5    10     4    1
     6    44    38    1
     7    41    37    1
     8    22    21    1
     9     7     3    1
    10    23    21    1
    11    38    37   ar
    12    38    39   ar
    13    37    36   ar
    14    21    16    1
    15     4     3   ar
    16     4     5   ar
    17    31    24    1
    18    19    15    1
    19     3     2   ar
    20    16    15   ar
    21    16    17   ar
    22    15    14   ar
    23    24    29   ar
    24    24    25   ar
    25    29    28   ar
    26    17    25    1
    27    17    18   ar
    28    25    26   ar
    29    14     5    1
    30    14    13   ar
    31    39    42    1
    32    39    40   ar
    33    36    28    1
    34    36    35   ar
    35    28    27   ar
    36     5     6   ar
    37    18    13   ar
    38    13    20    1
    39    26    27   ar
    40    26    30    1
    41    27    32    1
    42     2     8    1
    43     2     1   ar
    44    34    32    1
    45    33    32    1
    46    40    35   ar
    47    35    43    1
    48     6     1   ar
    49     1     9    1
