@<TRIPOS>MOLECULE
mol_data/opt/cam/geoms/mol2/6ah6ah-6ah.out
 35 37 0 0 0
SMALL
GASTEIGER

@<TRIPOS>ATOM
      1 C          -4.4971   -2.1265    0.4680 C.ar    1  LIG1        0.0284
      2 C          -3.1276   -2.2116    0.2509 C.ar    1  LIG1       -0.0418
      3 C          -2.4417   -1.0566   -0.0754 C.ar    1  LIG1       -0.0375
      4 C          -3.1209    0.1612   -0.1623 C.ar    1  LIG1        0.0509
      5 C          -4.5061    0.1544    0.1181 C.ar    1  LIG1        0.0930
      6 N          -5.1579   -0.9778    0.3996 N.ar    1  LIG1       -0.2531
      7 H          -1.3738   -1.0838   -0.2739 H       1  LIG1        0.0637
      8 H          -2.6128   -3.1632    0.3236 H       1  LIG1        0.0633
      9 H          -5.0825   -3.0103    0.7071 H       1  LIG1        0.0830
     10 N          -2.4257    1.3180   -0.4934 N.pl3   1  LIG1       -0.3563
     11 H          -1.5568    1.1595   -0.9825 H       1  LIG1        0.1424
     12 H          -2.9766    2.0534   -0.9119 H       1  LIG1        0.1424
     13 C          -4.9118    2.6373    0.5041 C.ar    1  LIG1        0.0376
     14 C          -5.3498    1.3784    0.0826 C.ar    1  LIG1        0.0220
     15 C          -6.6672    1.2840   -0.3503 C.ar    1  LIG1       -0.0283
     16 C          -7.4997    2.4000   -0.3669 C.ar    1  LIG1        0.0516
     17 C          -6.9621    3.6232    0.0986 C.ar    1  LIG1        0.0931
     18 N          -5.6942    3.7102    0.5041 N.ar    1  LIG1       -0.2524
     19 H          -7.0445    0.3181   -0.6700 H       1  LIG1        0.0644
     20 H          -3.9068    2.7795    0.8891 H       1  LIG1        0.0836
     21 N          -8.8088    2.2756   -0.8115 N.pl3   1  LIG1       -0.3563
     22 H          -9.2357    3.1160   -1.1723 H       1  LIG1        0.1424
     23 H          -8.9831    1.4658   -1.3880 H       1  LIG1        0.1424
     24 C          -9.0934    4.9556    0.4674 C.ar    1  LIG1        0.0369
     25 C          -7.7348    4.8934    0.1421 C.ar    1  LIG1        0.0220
     26 C          -7.0723    6.0950   -0.1023 C.ar    1  LIG1       -0.0289
     27 C          -7.7696    7.2969   -0.0436 C.ar    1  LIG1        0.0435
     28 C          -9.1349    7.2312    0.2697 C.ar    1  LIG1        0.0482
     29 N          -9.7747    6.1007    0.5267 N.ar    1  LIG1       -0.2608
     30 H          -6.0089    6.0749   -0.3162 H       1  LIG1        0.0643
     31 H          -9.7202    8.1489    0.3222 H       1  LIG1        0.0848
     32 H          -9.6457    4.0566    0.7211 H       1  LIG1        0.0836
     33 N          -7.1422    8.5199   -0.2362 N.pl3   1  LIG1       -0.3568
     34 H          -6.2838    8.4933   -0.7651 H       1  LIG1        0.1424
     35 H          -7.7442    9.2825   -0.5082 H       1  LIG1        0.1424
@<TRIPOS>BOND
     1    23    21    1
     2    22    21    1
     3    11    10    1
     4    12    10    1
     5    21    16    1
     6    34    33    1
     7    19    15    1
     8    35    33    1
     9    10     4    1
    10    16    15   ar
    11    16    17   ar
    12    15    14   ar
    13    30    26    1
    14     7     3    1
    15    33    27    1
    16     4     3   ar
    17     4     5   ar
    18    26    27   ar
    19    26    25   ar
    20     3     2   ar
    21    27    28   ar
    22    14     5    1
    23    14    13   ar
    24    17    25    1
    25    17    18   ar
    26     5     6   ar
    27    25    24   ar
    28     2     8    1
    29     2     1   ar
    30    28    31    1
    31    28    29   ar
    32     6     1   ar
    33    24    29   ar
    34    24    32    1
    35     1     9    1
    36    18    13   ar
    37    13    20    1
