@<TRIPOS>MOLECULE
mol_data/opt/cam/geoms/mol2/6ah6ed12ha13fh-.out
 45 48 0 0 0
SMALL
GASTEIGER

@<TRIPOS>ATOM
      1 C          -3.9082   -1.6744    1.4977 C.ar    1  LIG1        0.0284
      2 C          -2.8622   -2.0263    0.6535 C.ar    1  LIG1       -0.0418
      3 C          -2.5976   -1.2278   -0.4449 C.ar    1  LIG1       -0.0375
      4 C          -3.3754   -0.0920   -0.6769 C.ar    1  LIG1        0.0510
      5 C          -4.4023    0.1884    0.2480 C.ar    1  LIG1        0.0942
      6 N          -4.6545   -0.5941    1.2967 N.ar    1  LIG1       -0.2530
      7 H          -1.7938   -1.4767   -1.1321 H       1  LIG1        0.0637
      8 H          -2.2693   -2.9129    0.8500 H       1  LIG1        0.0633
      9 H          -4.1532   -2.2780    2.3673 H       1  LIG1        0.0830
     10 N          -3.1131    0.7442   -1.7563 N.pl3   1  LIG1       -0.3563
     11 H          -2.5864    0.3179   -2.5048 H       1  LIG1        0.1424
     12 H          -3.9040    1.2722   -2.0965 H       1  LIG1        0.1424
     13 C          -6.6705    1.3296    0.0781 C.ar    1  LIG1        0.1232
     14 C          -5.2581    1.3967    0.1099 C.ar    1  LIG1        0.0372
     15 C          -4.7097    2.6642    0.0220 C.ar    1  LIG1       -0.0302
     16 C          -5.5268    3.7950   -0.0360 C.ar    1  LIG1        0.0815
     17 C          -6.9319    3.6364    0.0668 C.ar    1  LIG1        0.1265
     18 N          -7.4579    2.3980    0.0701 N.ar    1  LIG1       -0.2333
     19 H          -3.6329    2.7858   -0.0253 H       1  LIG1        0.0638
     20 C          -7.3456    0.0608    0.0159 C.1     1  LIG1       -0.0491
     21 C          -7.9287   -0.9871   -0.0708 C.1     1  LIG1       -0.1124
     22 H          -8.4406   -1.9198   -0.1316 H       1  LIG1        0.1232
     23 N          -4.4158    6.0795   -0.5074 N.1     1  LIG1       -0.1908
     24 C          -4.9142    5.0560   -0.2878 C.1     1  LIG1        0.1014
     25 C          -7.8800    4.7154    0.1562 C.ar    1  LIG1        0.1757
     26 C          -7.9048    6.0115    0.6649 C.ar    1  LIG1        0.0732
     27 C          -9.2604    6.4456    0.6017 C.ar    1  LIG1        0.0072
     28 C          -9.9768    5.4096    0.0779 C.ar    1  LIG1        0.1573
     29 O          -9.1754    4.3667   -0.1937 O.2     1  LIG1       -0.4497
     30 N          -6.9059    6.7534    1.2473 N.pl3   1  LIG1       -0.3550
     31 H          -5.9716    6.6740    0.8724 H       1  LIG1        0.1424
     32 H          -7.1657    7.7089    1.4386 H       1  LIG1        0.1424
     33 H          -9.6564    7.3989    0.9173 H       1  LIG1        0.0675
     34 C         -11.3633    5.2336   -0.2306 C.ar    1  LIG1        0.1260
     35 C         -12.4418    6.0887   -0.1365 C.ar    1  LIG1        0.1659
     36 C         -13.5980    5.3950   -0.5646 C.ar    1  LIG1        0.0849
     37 C         -13.1966    4.1194   -0.9125 C.ar    1  LIG1        0.0268
     38 N         -11.8561    4.0335   -0.7108 N.ar    1  LIG1       -0.3537
     39 H         -11.2743    3.2235   -0.8531 H       1  LIG1        0.1656
     40 H         -13.7670    3.2814   -1.2838 H       1  LIG1        0.0827
     41 O         -12.4334    7.3711    0.2849 O.3     1  LIG1       -0.5030
     42 H         -13.3598    7.6594    0.2180 H       1  LIG1        0.2923
     43 N         -14.8622    6.0479   -0.5716 N.pl3   1  LIG1       -0.3540
     44 H         -15.2671    6.1044   -1.4993 H       1  LIG1        0.1425
     45 H         -15.5349    5.6016    0.0417 H       1  LIG1        0.1425
@<TRIPOS>BOND
     1    11    10    1
     2    12    10    1
     3    10     4    1
     4    44    43    1
     5    40    37    1
     6     7     3    1
     7    37    38   ar
     8    37    36   ar
     9    39    38    1
    10    38    34   ar
    11     4     3   ar
    12     4     5   ar
    13    43    36    1
    14    43    45    1
    15    36    35   ar
    16    23    24    3
    17     3     2   ar
    18    24    16    1
    19    34    35   ar
    20    34    28    1
    21    29    28   ar
    22    29    25   ar
    23    35    41    1
    24    22    21    1
    25    21    20    3
    26    16    15   ar
    27    16    17   ar
    28    19    15    1
    29    20    13    1
    30    15    14   ar
    31    17    18   ar
    32    17    25    1
    33    18    13   ar
    34    28    27   ar
    35    13    14   ar
    36    14     5    1
    37    25    26   ar
    38    42    41    1
    39     5     6   ar
    40    27    26   ar
    41    27    33    1
    42     2     8    1
    43     2     1   ar
    44    26    30    1
    45    31    30    1
    46    30    32    1
    47     6     1   ar
    48     1     9    1
