@<TRIPOS>MOLECULE
mol_data/opt/cam/geoms/mol2/6ai4ad6hd-6fh.out
 49 52 0 0 0
SMALL
GASTEIGER

@<TRIPOS>ATOM
      1 C          -4.4845   -2.2686    0.2150 C.ar    1  LIG1        0.0283
      2 C          -3.1042   -2.3572    0.0965 C.ar    1  LIG1       -0.0433
      3 C          -2.3908   -1.1793   -0.0433 C.ar    1  LIG1       -0.0554
      4 C          -3.0463    0.0507   -0.0895 C.ar    1  LIG1       -0.0245
      5 C          -4.4492    0.0221    0.0035 C.ar    1  LIG1        0.0739
      6 N          -5.1378   -1.1142    0.1729 N.ar    1  LIG1       -0.2547
      7 H          -1.3065   -1.2022   -0.1044 H       1  LIG1        0.0621
      8 H          -2.6051   -3.3188    0.1321 H       1  LIG1        0.0633
      9 H          -5.0912   -3.1602    0.3523 H       1  LIG1        0.0830
     10 C          -2.2286    1.3130   -0.1886 C.3     1  LIG1       -0.0377
     11 H          -2.6857    2.1421    0.3540 H       1  LIG1        0.0278
     12 H          -2.0931    1.6332   -1.2267 H       1  LIG1        0.0278
     13 H          -1.2321    1.1466    0.2264 H       1  LIG1        0.0278
     14 C          -5.0832    2.3031   -0.9169 C.ar    1  LIG1       -0.0519
     15 C          -5.9366    3.3987   -0.9482 C.ar    1  LIG1       -0.0521
     16 C          -5.3048    1.2425   -0.0383 C.ar    1  LIG1        0.0018
     17 C          -7.0394    3.4852   -0.1024 C.ar    1  LIG1        0.0028
     18 H          -5.7569    4.1998   -1.6570 H       1  LIG1        0.0624
     19 C          -6.4157    1.3073    0.8013 C.ar    1  LIG1       -0.0346
     20 C          -7.2639    2.4127    0.7840 C.ar    1  LIG1        0.0602
     21 H          -6.6163    0.4824    1.4737 H       1  LIG1        0.0637
     22 H          -4.2547    2.2659   -1.6136 H       1  LIG1        0.0624
     23 N          -9.2567    2.4589    2.4439 N.1     1  LIG1       -0.1908
     24 C          -8.3654    2.4470    1.7069 C.1     1  LIG1        0.0998
     25 C          -9.2752    4.6412   -0.5162 C.ar    1  LIG1        0.1247
     26 C          -7.9105    4.6868   -0.1346 C.ar    1  LIG1        0.0241
     27 C          -7.3997    5.9350    0.1450 C.ar    1  LIG1       -0.0312
     28 C          -8.1945    7.0886    0.1108 C.ar    1  LIG1        0.0785
     29 C          -9.5623    6.9478   -0.2033 C.ar    1  LIG1        0.0956
     30 N         -10.0383    5.7361   -0.5285 N.ar    1  LIG1       -0.2304
     31 H          -6.3510    6.0329    0.4053 H       1  LIG1        0.0638
     32 N          -9.8682    3.4966   -0.9370 N.pl3   1  LIG1       -0.3426
     33 H         -10.8743    3.4939   -0.9917 H       1  LIG1        0.1437
     34 H          -9.4119    2.6113   -0.7987 H       1  LIG1        0.1437
     35 N          -6.9387    9.3089    0.5352 N.1     1  LIG1       -0.1908
     36 C          -7.5350    8.3345    0.3454 C.1     1  LIG1        0.1013
     37 C         -11.7161    7.9864   -1.0234 C.ar    1  LIG1        0.2219
     38 C         -10.5354    8.0570   -0.2354 C.ar    1  LIG1        0.0647
     39 C         -10.3396    9.2246    0.5061 C.ar    1  LIG1       -0.0252
     40 C         -11.2253   10.2893    0.4125 C.ar    1  LIG1        0.0438
     41 C         -12.3091   10.1200   -0.4509 C.ar    1  LIG1        0.0520
     42 N         -12.5511    9.0098   -1.1317 N.ar    1  LIG1       -0.2191
     43 H          -9.4948    9.3106    1.1771 H       1  LIG1        0.0645
     44 H         -13.0278   10.9292   -0.5802 H       1  LIG1        0.0849
     45 O         -12.0600    6.8966   -1.7175 O.3     1  LIG1       -0.4919
     46 H         -11.4555    6.1775   -1.4242 H       1  LIG1        0.2937
     47 N         -11.0725   11.4451    1.1846 N.pl3   1  LIG1       -0.3568
     48 H         -10.1115   11.6769    1.3952 H       1  LIG1        0.1424
     49 H         -11.5651   12.2492    0.8218 H       1  LIG1        0.1424
@<TRIPOS>BOND
     1    45    46    1
     2    45    37    1
     3    18    15    1
     4    22    14    1
     5    12    10    1
     6    42    37   ar
     7    42    41   ar
     8    37    38   ar
     9    33    32    1
    10    15    14   ar
    11    15    17   ar
    12    32    34    1
    13    32    25    1
    14    14    16   ar
    15    44    41    1
    16    30    25   ar
    17    30    29   ar
    18    25    26   ar
    19    41    40   ar
    20    38    29    1
    21    38    39   ar
    22    29    28   ar
    23    10     4    1
    24    10    13    1
    25    10    11    1
    26    26    17    1
    27    26    27   ar
    28     7     3    1
    29    17    20   ar
    30     4     3   ar
    31     4     5   ar
    32     3     2   ar
    33    16     5    1
    34    16    19   ar
    35     5     6   ar
    36     2     8    1
    37     2     1   ar
    38    28    27   ar
    39    28    36    1
    40    27    31    1
    41     6     1   ar
    42     1     9    1
    43    36    35    3
    44    40    39   ar
    45    40    47    1
    46    39    43    1
    47    20    19   ar
    48    20    24    1
    49    19    21    1
    50    49    47    1
    51    47    48    1
    52    24    23    3
