@<TRIPOS>MOLECULE
mol_data/opt/cam/geoms/mol2/6ai6ai-4ai6ai.out
 51 54 0 0 0
SMALL
GASTEIGER

@<TRIPOS>ATOM
      1 C          -4.5585   -2.2719   -0.1785 C.ar    1  LIG1        0.0283
      2 C          -3.1773   -2.3801   -0.2583 C.ar    1  LIG1       -0.0433
      3 C          -2.4389   -1.2086   -0.2598 C.ar    1  LIG1       -0.0554
      4 C          -3.0706    0.0327   -0.2095 C.ar    1  LIG1       -0.0244
      5 C          -4.4779    0.0292   -0.1692 C.ar    1  LIG1        0.0753
      6 N          -5.1905   -1.1057   -0.1330 N.ar    1  LIG1       -0.2547
      7 H          -1.3534   -1.2479   -0.2859 H       1  LIG1        0.0621
      8 H          -2.6973   -3.3514   -0.2988 H       1  LIG1        0.0633
      9 H          -5.1855   -3.1600   -0.1480 H       1  LIG1        0.0830
     10 C          -2.2278    1.2811   -0.1575 C.3     1  LIG1       -0.0377
     11 H          -2.6926    2.0628    0.4456 H       1  LIG1        0.0278
     12 H          -2.0524    1.6988   -1.1538 H       1  LIG1        0.0278
     13 H          -1.2494    1.0551    0.2729 H       1  LIG1        0.0278
     14 C          -5.0339    2.4067   -0.8757 C.ar    1  LIG1        0.0374
     15 C          -5.3048    1.2648   -0.1247 C.ar    1  LIG1        0.0190
     16 C          -6.4498    1.3043    0.6667 C.ar    1  LIG1       -0.0462
     17 C          -7.2667    2.4273    0.7083 C.ar    1  LIG1       -0.0239
     18 C          -6.8999    3.5171   -0.1058 C.ar    1  LIG1        0.0739
     19 N          -5.7979    3.4915   -0.8656 N.ar    1  LIG1       -0.2541
     20 H          -6.6966    0.4332    1.2647 H       1  LIG1        0.0628
     21 H          -4.1747    2.4438   -1.5387 H       1  LIG1        0.0836
     22 C          -8.4544    2.4304    1.6368 C.3     1  LIG1       -0.0377
     23 H          -8.2801    1.7451    2.4693 H       1  LIG1        0.0278
     24 H          -9.3674    2.0977    1.1327 H       1  LIG1        0.0278
     25 H          -8.6504    3.4235    2.0442 H       1  LIG1        0.0278
     26 C          -6.9722    6.0008   -0.2282 C.ar    1  LIG1       -0.0520
     27 C          -7.6628    7.1958   -0.3180 C.ar    1  LIG1       -0.0531
     28 C          -7.6673    4.7916   -0.1796 C.ar    1  LIG1        0.0009
     29 C          -9.0593    7.2328   -0.3877 C.ar    1  LIG1       -0.0135
     30 H          -7.1132    8.1312   -0.3570 H       1  LIG1        0.0624
     31 C          -9.0586    4.8301   -0.2489 C.ar    1  LIG1       -0.0491
     32 C          -9.7727    6.0235   -0.3566 C.ar    1  LIG1       -0.0421
     33 H          -9.6179    3.9010   -0.2401 H       1  LIG1        0.0627
     34 H          -5.8890    5.9866   -0.2060 H       1  LIG1        0.0624
     35 C         -11.2794    5.9663   -0.4160 C.3     1  LIG1       -0.0391
     36 H         -11.6443    5.0378    0.0289 H       1  LIG1        0.0278
     37 H         -11.6482    5.9980   -1.4460 H       1  LIG1        0.0278
     38 H         -11.7396    6.8021    0.1149 H       1  LIG1        0.0278
     39 C         -10.6150    8.8676   -1.5177 C.ar    1  LIG1        0.0353
     40 C          -9.7277    8.5571   -0.4825 C.ar    1  LIG1        0.0007
     41 C          -9.4581    9.5655    0.4396 C.ar    1  LIG1       -0.0482
     42 C         -10.0666   10.8124    0.3209 C.ar    1  LIG1       -0.0318
     43 C         -10.9383   10.9870   -0.7508 C.ar    1  LIG1        0.0305
     44 N         -11.2101   10.0474   -1.6554 N.ar    1  LIG1       -0.2624
     45 H          -8.7748    9.3690    1.2619 H       1  LIG1        0.0627
     46 H         -11.4428   11.9424   -0.8857 H       1  LIG1        0.0832
     47 H         -10.8376    8.1250   -2.2800 H       1  LIG1        0.0836
     48 C          -9.8004   11.9189    1.3038 C.3     1  LIG1       -0.0383
     49 H         -10.3784   12.8123    1.0577 H       1  LIG1        0.0278
     50 H          -8.7422   12.1971    1.3119 H       1  LIG1        0.0278
     51 H         -10.0653   11.6186    2.3219 H       1  LIG1        0.0278
@<TRIPOS>BOND
     1    47    39    1
     2    44    39   ar
     3    44    43   ar
     4    21    14    1
     5    39    40   ar
     6    37    35    1
     7    12    10    1
     8    46    43    1
     9    14    19   ar
    10    14    15   ar
    11    19    18   ar
    12    43    42   ar
    13    40    29    1
    14    40    41   ar
    15    35    32    1
    16    35    36    1
    17    35    38    1
    18    29    32   ar
    19    29    27   ar
    20    30    27    1
    21    32    31   ar
    22    27    26   ar
    23     8     2    1
    24     7     3    1
    25     3     2   ar
    26     3     4   ar
    27     2     1   ar
    28    31    33    1
    29    31    28   ar
    30    26    34    1
    31    26    28   ar
    32     4     5   ar
    33     4    10    1
    34    28    18    1
    35     1     9    1
    36     1     6   ar
    37     5     6   ar
    38     5    15    1
    39    10    13    1
    40    10    11    1
    41    15    16   ar
    42    18    17   ar
    43    42    41   ar
    44    42    48    1
    45    41    45    1
    46    16    17   ar
    47    16    20    1
    48    17    22    1
    49    49    48    1
    50    24    22    1
    51    48    50    1
    52    48    51    1
    53    22    25    1
    54    22    23    1
