@<TRIPOS>MOLECULE
mol_data/opt/cam/geoms/mol2/6ai6dh-13di6fi-.out
 51 54 0 0 0
SMALL
GASTEIGER

@<TRIPOS>ATOM
      1 C          -4.2520   -1.5964   -1.9867 C.ar    1  LIG1        0.0283
      2 C          -3.3093   -2.1570   -1.1349 C.ar    1  LIG1       -0.0433
      3 C          -3.0003   -1.4807    0.0336 C.ar    1  LIG1       -0.0554
      4 C          -3.6146   -0.2650    0.3294 C.ar    1  LIG1       -0.0244
      5 C          -4.5395    0.2136   -0.6112 C.ar    1  LIG1        0.0766
      6 N          -4.8543   -0.4405   -1.7328 N.ar    1  LIG1       -0.2546
      7 H          -2.2849   -1.8995    0.7356 H       1  LIG1        0.0621
      8 H          -2.8419   -3.1049   -1.3764 H       1  LIG1        0.0633
      9 H          -4.5398   -2.0962   -2.9079 H       1  LIG1        0.0830
     10 C          -3.2947    0.4518    1.6152 C.3     1  LIG1       -0.0377
     11 H          -4.1681    0.9606    2.0267 H       1  LIG1        0.0278
     12 H          -2.5131    1.2058    1.4770 H       1  LIG1        0.0278
     13 H          -2.9310   -0.2559    2.3633 H       1  LIG1        0.0278
     14 C          -6.6705    1.5614   -0.4608 C.ar    1  LIG1        0.1500
     15 C          -5.2672    1.5016   -0.4327 C.ar    1  LIG1        0.0382
     16 C          -4.6021    2.7009   -0.2745 C.ar    1  LIG1       -0.0270
     17 C          -5.2797    3.9249   -0.1591 C.ar    1  LIG1        0.0531
     18 C          -6.6939    3.8735   -0.2489 C.ar    1  LIG1        0.1104
     19 N          -7.3320    2.7070   -0.3700 N.ar    1  LIG1       -0.2323
     20 H          -3.5169    2.7074   -0.2440 H       1  LIG1        0.0644
     21 N          -8.1586   -0.5634   -0.5903 N.1     1  LIG1       -0.1893
     22 C          -7.4820    0.3728   -0.5525 C.1     1  LIG1        0.1198
     23 N          -4.5604    5.0568    0.0991 N.pl3   1  LIG1       -0.3563
     24 H          -3.5600    4.9827    0.0015 H       1  LIG1        0.1424
     25 H          -4.9208    5.9679   -0.1375 H       1  LIG1        0.1424
     26 C          -7.6269    5.0117   -0.1487 C.ar    1  LIG1        0.0851
     27 C          -7.6034    6.3866   -0.3840 C.ar    1  LIG1        0.0820
     28 C          -8.9153    6.9122   -0.1563 C.ar    1  LIG1       -0.0070
     29 C          -9.7067    5.8440    0.1988 C.ar    1  LIG1        0.0563
     30 N          -8.9054    4.7212    0.2131 N.ar    1  LIG1       -0.3515
     31 H          -9.2085    3.7560    0.2722 H       1  LIG1        0.1660
     32 N          -5.6326    7.8361   -1.1911 N.1     1  LIG1       -0.1908
     33 C          -6.5203    7.1808   -0.8335 C.1     1  LIG1        0.1016
     34 C          -9.3075    8.3498   -0.2712 C.3     1  LIG1       -0.0365
     35 H         -10.2812    8.5246    0.1895 H       1  LIG1        0.0279
     36 H          -9.3677    8.6690   -1.3167 H       1  LIG1        0.0279
     37 H          -8.5766    8.9975    0.2202 H       1  LIG1        0.0279
     38 C         -11.5755    5.1417    1.7259 C.ar    1  LIG1        0.2217
     39 C         -11.1335    5.7729    0.5428 C.ar    1  LIG1        0.0602
     40 C         -12.1100    6.3279   -0.2751 C.ar    1  LIG1       -0.0432
     41 C         -13.4596    6.2478    0.0641 C.ar    1  LIG1       -0.0315
     42 C         -13.7546    5.5768    1.2446 C.ar    1  LIG1        0.0343
     43 N         -12.8460    5.0401    2.0587 N.ar    1  LIG1       -0.2206
     44 H         -11.8074    6.8108   -1.2000 H       1  LIG1        0.0629
     45 H         -14.7911    5.4654    1.5578 H       1  LIG1        0.0833
     46 O         -10.7100    4.5853    2.6042 O.3     1  LIG1       -0.4919
     47 H          -9.8058    4.8252    2.3631 H       1  LIG1        0.2937
     48 C         -14.5366    6.8380   -0.8036 C.3     1  LIG1       -0.0383
     49 H         -15.5276    6.6205   -0.3993 H       1  LIG1        0.0278
     50 H         -14.4969    6.4363   -1.8203 H       1  LIG1        0.0278
     51 H         -14.4407    7.9256   -0.8786 H       1  LIG1        0.0278
@<TRIPOS>BOND
     1     9     1    1
     2     1     6   ar
     3     1     2   ar
     4    50    48    1
     5     6     5   ar
     6     8     2    1
     7    36    34    1
     8    44    40    1
     9    32    33    3
    10     2     3   ar
    11    51    48    1
    12    33    27    1
    13    48    49    1
    14    48    41    1
    15     5    15    1
    16     5     4   ar
    17    21    22    3
    18    22    14    1
    19    14    15   ar
    20    14    19   ar
    21    15    16   ar
    22    27    28   ar
    23    27    26   ar
    24    19    18   ar
    25    40    41   ar
    26    40    39   ar
    27    16    20    1
    28    16    17   ar
    29    34    28    1
    30    34    35    1
    31    34    37    1
    32    18    17   ar
    33    18    26    1
    34    17    23    1
    35    28    29   ar
    36    26    30   ar
    37    25    23    1
    38    24    23    1
    39     3     4   ar
    40     3     7    1
    41    41    42   ar
    42    29    30   ar
    43    29    39    1
    44    30    31    1
    45     4    10    1
    46    39    38   ar
    47    42    45    1
    48    42    43   ar
    49    12    10    1
    50    10    11    1
    51    10    13    1
    52    38    43   ar
    53    38    46    1
    54    47    46    1
