@<TRIPOS>MOLECULE
mol_data/opt/cam/geoms/mol2/6ai6ai-6ai-6ai-.out
 50 53 0 0 0
SMALL
GASTEIGER

@<TRIPOS>ATOM
      1 C          -4.3898   -2.1543   -0.7235 C.ar    1  LIG1        0.0283
      2 C          -3.0030   -2.2050   -0.7220 C.ar    1  LIG1       -0.0433
      3 C          -2.3154   -1.0254   -0.4912 C.ar    1  LIG1       -0.0554
      4 C          -3.0003    0.1725   -0.2944 C.ar    1  LIG1       -0.0244
      5 C          -4.4056    0.1178   -0.3534 C.ar    1  LIG1        0.0753
      6 N          -5.0716   -1.0300   -0.5427 N.ar    1  LIG1       -0.2547
      7 H          -1.2299   -1.0262   -0.4471 H       1  LIG1        0.0621
      8 H          -2.4811   -3.1424   -0.8781 H       1  LIG1        0.0633
      9 H          -4.9796   -3.0554   -0.8746 H       1  LIG1        0.0830
     10 C          -2.2163    1.4236    0.0080 C.3     1  LIG1       -0.0377
     11 H          -2.7509    2.0859    0.6908 H       1  LIG1        0.0278
     12 H          -1.9953    1.9973   -0.8974 H       1  LIG1        0.0278
     13 H          -1.2587    1.1645    0.4655 H       1  LIG1        0.0278
     14 C          -5.0162    2.5575   -0.7229 C.ar    1  LIG1        0.0374
     15 C          -5.2853    1.3044   -0.1760 C.ar    1  LIG1        0.0190
     16 C          -6.4785    1.1814    0.5313 C.ar    1  LIG1       -0.0462
     17 C          -7.3427    2.2575    0.6906 C.ar    1  LIG1       -0.0238
     18 C          -6.9698    3.4714    0.0823 C.ar    1  LIG1        0.0753
     19 N          -5.8247    3.6023   -0.5982 N.ar    1  LIG1       -0.2540
     20 H          -6.7257    0.2192    0.9675 H       1  LIG1        0.0628
     21 H          -4.1200    2.7254   -1.3124 H       1  LIG1        0.0836
     22 C          -8.5892    2.0805    1.5193 C.3     1  LIG1       -0.0377
     23 H          -8.4494    1.2706    2.2385 H       1  LIG1        0.0278
     24 H          -9.4547    1.8160    0.9033 H       1  LIG1        0.0278
     25 H          -8.8439    2.9869    2.0713 H       1  LIG1        0.0278
     26 C          -7.1365    5.9419    0.3504 C.ar    1  LIG1        0.0374
     27 C          -7.7788    4.7160    0.1576 C.ar    1  LIG1        0.0190
     28 C          -9.1603    4.7588    0.0154 C.ar    1  LIG1       -0.0462
     29 C          -9.8577    5.9646    0.0559 C.ar    1  LIG1       -0.0238
     30 C          -9.1023    7.1338    0.2437 C.ar    1  LIG1        0.0753
     31 N          -7.7708    7.1022    0.4038 N.ar    1  LIG1       -0.2540
     32 H          -9.7192    3.8428   -0.1449 H       1  LIG1        0.0628
     33 H          -6.0568    5.9659    0.4646 H       1  LIG1        0.0836
     34 C         -11.3597    5.9436   -0.0706 C.3     1  LIG1       -0.0377
     35 H         -11.7527    4.9797    0.2609 H       1  LIG1        0.0278
     36 H         -11.6853    6.0837   -1.1065 H       1  LIG1        0.0278
     37 H         -11.8294    6.7261    0.5277 H       1  LIG1        0.0278
     38 C          -9.2127    9.3997    1.2702 C.ar    1  LIG1        0.0367
     39 C          -9.6958    8.4956    0.3165 C.ar    1  LIG1        0.0189
     40 C         -10.6856    8.9529   -0.5467 C.ar    1  LIG1       -0.0468
     41 C         -11.1697   10.2549   -0.4338 C.ar    1  LIG1       -0.0317
     42 C         -10.6209   11.0458    0.5702 C.ar    1  LIG1        0.0305
     43 N          -9.6642   10.6401    1.4063 N.ar    1  LIG1       -0.2623
     44 H         -11.0689    8.3079   -1.3310 H       1  LIG1        0.0628
     45 H         -10.9703   12.0686    0.7023 H       1  LIG1        0.0832
     46 H          -8.4206    9.0851    1.9431 H       1  LIG1        0.0836
     47 C         -12.2277   10.7857   -1.3615 C.3     1  LIG1       -0.0383
     48 H         -13.1369   10.1783   -1.3198 H       1  LIG1        0.0278
     49 H         -11.8826   10.7840   -2.3999 H       1  LIG1        0.0278
     50 H         -12.4995   11.8114   -1.1031 H       1  LIG1        0.0278
@<TRIPOS>BOND
     1    49    47    1
     2    47    48    1
     3    47    50    1
     4    47    41    1
     5    44    40    1
     6    21    14    1
     7    36    34    1
     8    12    10    1
     9     8     2    1
    10     9     1    1
    11     1     2   ar
    12     1     6   ar
    13    14    19   ar
    14    14    15   ar
    15     2     3   ar
    16    19    18   ar
    17    40    41   ar
    18    40    39   ar
    19     6     5   ar
    20     3     7    1
    21     3     4   ar
    22    41    42   ar
    23     5     4   ar
    24     5    15    1
    25     4    10    1
    26    15    16   ar
    27    32    28    1
    28    34    29    1
    29    34    35    1
    30    34    37    1
    31    10    13    1
    32    10    11    1
    33    28    29   ar
    34    28    27   ar
    35    29    30   ar
    36    18    27    1
    37    18    17   ar
    38    27    26   ar
    39    30    39    1
    40    30    31   ar
    41    39    38   ar
    42    26    31   ar
    43    26    33    1
    44    16    17   ar
    45    16    20    1
    46    42    45    1
    47    42    43   ar
    48    17    22    1
    49    24    22    1
    50    38    43   ar
    51    38    46    1
    52    22    25    1
    53    22    23    1
