@<TRIPOS>MOLECULE
mol_data/opt/cam/geoms/mol2/6ai6ai-6ai.out
 38 40 0 0 0
SMALL
GASTEIGER

@<TRIPOS>ATOM
      1 C          -4.5145   -2.1143   -0.6141 C.ar    1  LIG1        0.0283
      2 C          -3.1508   -2.2188   -0.3792 C.ar    1  LIG1       -0.0433
      3 C          -2.4684   -1.0673   -0.0246 C.ar    1  LIG1       -0.0554
      4 C          -3.1311    0.1556    0.0650 C.ar    1  LIG1       -0.0244
      5 C          -4.5074    0.1560   -0.2308 C.ar    1  LIG1        0.0753
      6 N          -5.1741   -0.9650   -0.5404 N.ar    1  LIG1       -0.2547
      7 H          -1.4067   -1.1102    0.2019 H       1  LIG1        0.0621
      8 H          -2.6457   -3.1752   -0.4539 H       1  LIG1        0.0633
      9 H          -5.1041   -2.9913   -0.8710 H       1  LIG1        0.0830
     10 C          -2.3622    1.3742    0.5070 C.3     1  LIG1       -0.0377
     11 H          -2.9789    2.0544    1.0967 H       1  LIG1        0.0278
     12 H          -1.9707    1.9419   -0.3428 H       1  LIG1        0.0278
     13 H          -1.5058    1.0763    1.1164 H       1  LIG1        0.0278
     14 C          -4.9537    2.6195   -0.6717 C.ar    1  LIG1        0.0374
     15 C          -5.3595    1.3750   -0.1940 C.ar    1  LIG1        0.0190
     16 C          -6.6603    1.2958    0.2959 C.ar    1  LIG1       -0.0462
     17 C          -7.4995    2.4033    0.3152 C.ar    1  LIG1       -0.0238
     18 C          -6.9834    3.6046   -0.2076 C.ar    1  LIG1        0.0753
     19 N          -5.7325    3.6936   -0.6767 N.ar    1  LIG1       -0.2540
     20 H          -7.0147    0.3424    0.6737 H       1  LIG1        0.0628
     21 H          -3.9634    2.7558   -1.0956 H       1  LIG1        0.0836
     22 C          -8.8740    2.2672    0.9188 C.3     1  LIG1       -0.0377
     23 H          -8.8828    1.4556    1.6497 H       1  LIG1        0.0278
     24 H          -9.6293    2.0285    0.1636 H       1  LIG1        0.0278
     25 H          -9.1930    3.1825    1.4200 H       1  LIG1        0.0278
     26 C          -9.0927    4.9499   -0.6351 C.ar    1  LIG1        0.0367
     27 C          -7.7484    4.8797   -0.2634 C.ar    1  LIG1        0.0189
     28 C          -7.0997    6.0836    0.0037 C.ar    1  LIG1       -0.0468
     29 C          -7.7931    7.2859   -0.0676 C.ar    1  LIG1       -0.0317
     30 C          -9.1378    7.2170   -0.4287 C.ar    1  LIG1        0.0305
     31 N          -9.7784    6.0868   -0.7180 N.ar    1  LIG1       -0.2623
     32 H          -6.0448    6.0639    0.2581 H       1  LIG1        0.0628
     33 H          -9.7257    8.1312   -0.4952 H       1  LIG1        0.0832
     34 H          -9.6360    4.0496   -0.9058 H       1  LIG1        0.0836
     35 C          -7.1268    8.6023    0.2235 C.3     1  LIG1       -0.0383
     36 H          -7.8330    9.4307    0.1343 H       1  LIG1        0.0278
     37 H          -6.3016    8.7897   -0.4700 H       1  LIG1        0.0278
     38 H          -6.7119    8.6228    1.2355 H       1  LIG1        0.0278
@<TRIPOS>BOND
     1    21    14    1
     2    34    26    1
     3     9     1    1
     4    31    26   ar
     5    31    30   ar
     6    19    14   ar
     7    19    18   ar
     8    14    15   ar
     9    26    27   ar
    10     1     6   ar
    11     1     2   ar
    12     6     5   ar
    13    33    30    1
    14    37    35    1
    15     8     2    1
    16    30    29   ar
    17     2     3   ar
    18    12    10    1
    19    27    18    1
    20    27    28   ar
    21     5    15    1
    22     5     4   ar
    23    18    17   ar
    24    15    16   ar
    25    29    28   ar
    26    29    35    1
    27     3     4   ar
    28     3     7    1
    29    28    32    1
    30     4    10    1
    31    36    35    1
    32    24    22    1
    33    35    38    1
    34    16    17   ar
    35    16    20    1
    36    17    22    1
    37    10    11    1
    38    10    13    1
    39    22    25    1
    40    22    23    1
