@<TRIPOS>MOLECULE
mol_data/opt/cam/geoms/mol2/6ai6ai6ai6ai.out
 50 53 0 0 0
SMALL
GASTEIGER

@<TRIPOS>ATOM
      1 C          -4.3209   -1.7458   -1.8639 C.ar    1  LIG1        0.0283
      2 C          -3.2669   -2.2674   -1.1272 C.ar    1  LIG1       -0.0433
      3 C          -2.8317   -1.5492   -0.0257 C.ar    1  LIG1       -0.0554
      4 C          -3.4229   -0.3326    0.3090 C.ar    1  LIG1       -0.0244
      5 C          -4.4609    0.1210   -0.5263 C.ar    1  LIG1        0.0753
      6 N          -4.9029   -0.5884   -1.5735 N.ar    1  LIG1       -0.2547
      7 H          -2.0312   -1.9376    0.5978 H       1  LIG1        0.0621
      8 H          -2.8148   -3.2147   -1.3986 H       1  LIG1        0.0633
      9 H          -4.7174   -2.2804   -2.7239 H       1  LIG1        0.0830
     10 C          -2.9587    0.3963    1.5438 C.3     1  LIG1       -0.0377
     11 H          -3.7769    0.9229    2.0380 H       1  LIG1        0.0278
     12 H          -2.1833    1.1351    1.3164 H       1  LIG1        0.0278
     13 H          -2.5285   -0.3099    2.2576 H       1  LIG1        0.0278
     14 C          -6.5757    1.4374   -0.4773 C.ar    1  LIG1        0.0374
     15 C          -5.1891    1.3993   -0.3095 C.ar    1  LIG1        0.0190
     16 C          -4.5740    2.5992    0.0249 C.ar    1  LIG1       -0.0462
     17 C          -5.3073    3.7747    0.1749 C.ar    1  LIG1       -0.0238
     18 C          -6.6944    3.6922   -0.0307 C.ar    1  LIG1        0.0753
     19 N          -7.3015    2.5346   -0.3324 N.ar    1  LIG1       -0.2540
     20 H          -3.4984    2.6384    0.1626 H       1  LIG1        0.0628
     21 H          -7.1064    0.5276   -0.7417 H       1  LIG1        0.0836
     22 C          -4.5886    5.0382    0.5738 C.3     1  LIG1       -0.0377
     23 H          -5.2023    5.6689    1.2194 H       1  LIG1        0.0278
     24 H          -4.3027    5.6390   -0.2958 H       1  LIG1        0.0278
     25 H          -3.6689    4.7955    1.1111 H       1  LIG1        0.0278
     26 C          -8.8564    4.6706    0.7230 C.ar    1  LIG1        0.0374
     27 C          -7.6194    4.8482    0.0975 C.ar    1  LIG1        0.0190
     28 C          -7.3550    6.1191   -0.3980 C.ar    1  LIG1       -0.0462
     29 C          -8.2823    7.1525   -0.2792 C.ar    1  LIG1       -0.0238
     30 C          -9.4956    6.8518    0.3613 C.ar    1  LIG1        0.0753
     31 N          -9.7530    5.6341    0.8617 N.ar    1  LIG1       -0.2540
     32 H          -6.4164    6.3213   -0.9033 H       1  LIG1        0.0628
     33 H          -9.1159    3.6953    1.1239 H       1  LIG1        0.0836
     34 C          -7.9254    8.5185   -0.8073 C.3     1  LIG1       -0.0377
     35 H          -8.3505    9.3153   -0.1946 H       1  LIG1        0.0278
     36 H          -8.2822    8.6677   -1.8315 H       1  LIG1        0.0278
     37 H          -6.8403    8.6448   -0.8246 H       1  LIG1        0.0278
     38 C         -11.2565    7.8631    1.8021 C.ar    1  LIG1        0.0367
     39 C         -10.5824    7.8442    0.5751 C.ar    1  LIG1        0.0189
     40 C         -11.0113    8.7403   -0.3981 C.ar    1  LIG1       -0.0468
     41 C         -12.0591    9.6195   -0.1307 C.ar    1  LIG1       -0.0317
     42 C         -12.6305    9.5513    1.1357 C.ar    1  LIG1        0.0305
     43 N         -12.2485    8.6974    2.0863 N.ar    1  LIG1       -0.2623
     44 H         -10.5516    8.7426   -1.3815 H       1  LIG1        0.0628
     45 H         -13.4490   10.2213    1.3944 H       1  LIG1        0.0832
     46 H         -10.9657    7.1586    2.5756 H       1  LIG1        0.0836
     47 C         -12.5568   10.5907   -1.1655 C.3     1  LIG1       -0.0383
     48 H         -13.3813   11.1922   -0.7767 H       1  LIG1        0.0278
     49 H         -12.9157   10.0703   -2.0586 H       1  LIG1        0.0278
     50 H         -11.7651   11.2756   -1.4841 H       1  LIG1        0.0278
@<TRIPOS>BOND
     1     9     1    1
     2    49    47    1
     3     1     6   ar
     4     1     2   ar
     5    36    34    1
     6     6     5   ar
     7    50    47    1
     8     8     2    1
     9    44    40    1
    10    47    48    1
    11    47    41    1
    12     2     3   ar
    13    32    28    1
    14    37    34    1
    15    34    29    1
    16    34    35    1
    17    21    14    1
    18     5    15    1
    19     5     4   ar
    20    14    19   ar
    21    14    15   ar
    22    40    41   ar
    23    40    39   ar
    24    28    29   ar
    25    28    27   ar
    26    19    18   ar
    27    15    16   ar
    28    24    22    1
    29    29    30   ar
    30    41    42   ar
    31    18    27    1
    32    18    17   ar
    33     3     4   ar
    34     3     7    1
    35    16    20    1
    36    16    17   ar
    37    27    26   ar
    38    17    22    1
    39     4    10    1
    40    30    39    1
    41    30    31   ar
    42    22    25    1
    43    22    23    1
    44    39    38   ar
    45    26    31   ar
    46    26    33    1
    47    42    45    1
    48    42    43   ar
    49    12    10    1
    50    10    11    1
    51    10    13    1
    52    38    43   ar
    53    38    46    1
