@<TRIPOS>MOLECULE
mol_data/opt/cam/geoms/mol2/6ai6ai-.out
 26 27 0 0 0
SMALL
GASTEIGER

@<TRIPOS>ATOM
      1 C          -4.5051   -2.0389   -0.5878 C.ar    1  LIG1        0.0283
      2 C          -3.1628   -2.1280   -0.2473 C.ar    1  LIG1       -0.0433
      3 C          -2.5186   -0.9657    0.1420 C.ar    1  LIG1       -0.0554
      4 C          -3.1962    0.2522    0.1626 C.ar    1  LIG1       -0.0244
      5 C          -4.5456    0.2360   -0.2375 C.ar    1  LIG1        0.0753
      6 N          -5.1780   -0.8947   -0.5814 N.ar    1  LIG1       -0.2547
      7 H          -1.4772   -0.9957    0.4501 H       1  LIG1        0.0621
      8 H          -2.6460   -3.0809   -0.2691 H       1  LIG1        0.0633
      9 H          -5.0661   -2.9248   -0.8766 H       1  LIG1        0.0830
     10 C          -2.4741    1.4846    0.6439 C.3     1  LIG1       -0.0377
     11 H          -3.1420    2.1724    1.1646 H       1  LIG1        0.0278
     12 H          -2.0152    2.0385   -0.1809 H       1  LIG1        0.0278
     13 H          -1.6707    1.2046    1.3294 H       1  LIG1        0.0278
     14 C          -4.9646    2.6790   -0.7794 C.ar    1  LIG1        0.0367
     15 C          -5.4048    1.4509   -0.2820 C.ar    1  LIG1        0.0189
     16 C          -6.7342    1.3705    0.1272 C.ar    1  LIG1       -0.0468
     17 C          -7.5556    2.4901    0.0676 C.ar    1  LIG1       -0.0317
     18 C          -6.9879    3.6623   -0.4296 C.ar    1  LIG1        0.0305
     19 N          -5.7308    3.7638   -0.8550 N.ar    1  LIG1       -0.2623
     20 H          -7.1155    0.4185    0.4825 H       1  LIG1        0.0628
     21 H          -7.5898    4.5674   -0.4946 H       1  LIG1        0.0832
     22 H          -3.9536    2.7868   -1.1610 H       1  LIG1        0.0836
     23 C          -8.9912    2.4427    0.5129 C.3     1  LIG1       -0.0383
     24 H          -9.0702    2.1809    1.5722 H       1  LIG1        0.0278
     25 H          -9.5553    1.6933   -0.0499 H       1  LIG1        0.0278
     26 H          -9.4813    3.4082    0.3698 H       1  LIG1        0.0278
@<TRIPOS>BOND
     1    22    14    1
     2     9     1    1
     3    19    14   ar
     4    19    18   ar
     5    14    15   ar
     6     1     6   ar
     7     1     2   ar
     8     6     5   ar
     9    21    18    1
    10    18    17   ar
    11    15     5    1
    12    15    16   ar
    13     8     2    1
    14     2     3   ar
    15     5     4   ar
    16    12    10    1
    17    25    23    1
    18    17    16   ar
    19    17    23    1
    20    16    20    1
    21     3     4   ar
    22     3     7    1
    23     4    10    1
    24    26    23    1
    25    23    24    1
    26    10    11    1
    27    10    13    1
