@<TRIPOS>MOLECULE
mol_data/opt/cam/geoms/mol2/6ai6ai6ai6ai-.out
 50 53 0 0 0
SMALL
GASTEIGER

@<TRIPOS>ATOM
      1 C          -3.8366   -1.5944   -1.8235 C.ar    1  LIG1        0.0283
      2 C          -2.9103   -2.0958   -0.9199 C.ar    1  LIG1       -0.0433
      3 C          -2.7246   -1.4032    0.2650 C.ar    1  LIG1       -0.0554
      4 C          -3.4311   -0.2298    0.5213 C.ar    1  LIG1       -0.0244
      5 C          -4.3202    0.2084   -0.4780 C.ar    1  LIG1        0.0753
      6 N          -4.5230   -0.4782   -1.6106 N.ar    1  LIG1       -0.2547
      7 H          -2.0332   -1.7786    1.0142 H       1  LIG1        0.0621
      8 H          -2.3661   -3.0092   -1.1318 H       1  LIG1        0.0633
      9 H          -4.0387   -2.1116   -2.7585 H       1  LIG1        0.0830
     10 C          -3.2412    0.4702    1.8424 C.3     1  LIG1       -0.0377
     11 H          -4.1635    0.9365    2.1929 H       1  LIG1        0.0278
     12 H          -2.4789    1.2541    1.7848 H       1  LIG1        0.0278
     13 H          -2.9107   -0.2425    2.6015 H       1  LIG1        0.0278
     14 C          -6.4740    1.4218   -0.7875 C.ar    1  LIG1        0.0374
     15 C          -5.1433    1.4415   -0.3617 C.ar    1  LIG1        0.0190
     16 C          -4.6671    2.6542    0.1203 C.ar    1  LIG1       -0.0462
     17 C          -5.4772    3.7874    0.1648 C.ar    1  LIG1       -0.0238
     18 C          -6.7946    3.6491   -0.3023 C.ar    1  LIG1        0.0753
     19 N          -7.2714    2.4771   -0.7487 N.ar    1  LIG1       -0.2540
     20 H          -3.6402    2.7386    0.4604 H       1  LIG1        0.0628
     21 H          -6.8963    0.4998   -1.1759 H       1  LIG1        0.0836
     22 C          -4.9134    5.0653    0.7312 C.3     1  LIG1       -0.0377
     23 H          -5.6695    5.6416    1.2671 H       1  LIG1        0.0278
     24 H          -4.5002    5.7123   -0.0494 H       1  LIG1        0.0278
     25 H          -4.1001    4.8433    1.4261 H       1  LIG1        0.0278
     26 C          -9.1121    4.4897    0.0455 C.ar    1  LIG1        0.0374
     27 C          -7.7884    4.7540   -0.3172 C.ar    1  LIG1        0.0190
     28 C          -7.5043    6.0580   -0.7027 C.ar    1  LIG1       -0.0462
     29 C          -8.4924    7.0409   -0.7319 C.ar    1  LIG1       -0.0238
     30 C          -9.7898    6.6532   -0.3587 C.ar    1  LIG1        0.0753
     31 N         -10.0700    5.4021    0.0381 N.ar    1  LIG1       -0.2540
     32 H          -6.4980    6.3294   -1.0039 H       1  LIG1        0.0628
     33 H          -9.3900    3.4858    0.3528 H       1  LIG1        0.0836
     34 C          -8.1083    8.4455   -1.1222 C.3     1  LIG1       -0.0377
     35 H          -8.6942    9.1927   -0.5845 H       1  LIG1        0.0278
     36 H          -8.2519    8.6271   -2.1918 H       1  LIG1        0.0278
     37 H          -7.0518    8.6205   -0.9055 H       1  LIG1        0.0278
     38 C         -11.2060    8.5277   -1.3216 C.ar    1  LIG1        0.0367
     39 C         -10.9562    7.5765   -0.3302 C.ar    1  LIG1        0.0189
     40 C         -11.8946    7.4659    0.6942 C.ar    1  LIG1       -0.0468
     41 C         -13.0023    8.3046    0.7254 C.ar    1  LIG1       -0.0317
     42 C         -13.1229    9.2279   -0.3122 C.ar    1  LIG1        0.0305
     43 N         -12.2608    9.3383   -1.3200 N.ar    1  LIG1       -0.2623
     44 H         -11.7482    6.7079    1.4571 H       1  LIG1        0.0628
     45 H         -13.9719    9.9096   -0.3312 H       1  LIG1        0.0832
     46 H         -10.5391    8.6225   -2.1732 H       1  LIG1        0.0836
     47 C         -14.0282    8.2197    1.8216 C.3     1  LIG1       -0.0383
     48 H         -13.5795    8.4073    2.8016 H       1  LIG1        0.0278
     49 H         -14.4861    7.2269    1.8585 H       1  LIG1        0.0278
     50 H         -14.8259    8.9510    1.6735 H       1  LIG1        0.0278
@<TRIPOS>BOND
     1     9     1    1
     2    36    34    1
     3    46    38    1
     4     1     6   ar
     5     1     2   ar
     6     6     5   ar
     7    38    43   ar
     8    38    39   ar
     9    43    42   ar
    10    21    14    1
    11     8     2    1
    12    34    37    1
    13    34    29    1
    14    34    35    1
    15    32    28    1
    16     2     3   ar
    17    14    19   ar
    18    14    15   ar
    19    19    18   ar
    20    29    28   ar
    21    29    30   ar
    22    28    27   ar
    23     5    15    1
    24     5     4   ar
    25    15    16   ar
    26    30    39    1
    27    30    31   ar
    28    45    42    1
    29    39    40   ar
    30    27    18    1
    31    27    26   ar
    32    42    41   ar
    33    18    17   ar
    34    24    22    1
    35    31    26   ar
    36    26    33    1
    37    16    17   ar
    38    16    20    1
    39    17    22    1
    40     3     4   ar
    41     3     7    1
    42     4    10    1
    43    40    41   ar
    44    40    44    1
    45    41    47    1
    46    22    23    1
    47    22    25    1
    48    50    47    1
    49    12    10    1
    50    47    49    1
    51    47    48    1
    52    10    11    1
    53    10    13    1
