@<TRIPOS>MOLECULE
mol_data/opt/cam/geoms/mol2/6ai6ai-6ai6ai-.out
 50 53 0 0 0
SMALL
GASTEIGER

@<TRIPOS>ATOM
      1 C          -4.4287   -2.1482   -0.8211 C.ar    1  LIG1        0.0283
      2 C          -3.0765   -2.2729   -0.5349 C.ar    1  LIG1       -0.0433
      3 C          -2.4090   -1.1501   -0.0754 C.ar    1  LIG1       -0.0554
      4 C          -3.0740    0.0667    0.0663 C.ar    1  LIG1       -0.0244
      5 C          -4.4360    0.0916   -0.2884 C.ar    1  LIG1        0.0753
      6 N          -5.0899   -1.0038   -0.7000 N.ar    1  LIG1       -0.2547
      7 H          -1.3583   -1.2120    0.1936 H       1  LIG1        0.0621
      8 H          -2.5694   -3.2241   -0.6509 H       1  LIG1        0.0633
      9 H          -5.0073   -3.0041   -1.1606 H       1  LIG1        0.0830
     10 C          -2.3245    1.2503    0.6218 C.3     1  LIG1       -0.0377
     11 H          -2.9657    1.8915    1.2289 H       1  LIG1        0.0278
     12 H          -1.8963    1.8727   -0.1701 H       1  LIG1        0.0278
     13 H          -1.4953    0.9096    1.2462 H       1  LIG1        0.0278
     14 C          -4.8607    2.5804   -0.5865 C.ar    1  LIG1        0.0374
     15 C          -5.2876    1.3088   -0.2085 C.ar    1  LIG1        0.0190
     16 C          -6.6082    1.2028    0.2193 C.ar    1  LIG1       -0.0462
     17 C          -7.4469    2.3095    0.2747 C.ar    1  LIG1       -0.0238
     18 C          -6.9081    3.5403   -0.1470 C.ar    1  LIG1        0.0753
     19 N          -5.6380    3.6549   -0.5552 N.ar    1  LIG1       -0.2540
     20 H          -6.9792    0.2281    0.5188 H       1  LIG1        0.0628
     21 H          -3.8530    2.7404   -0.9577 H       1  LIG1        0.0836
     22 C          -8.8455    2.1382    0.8098 C.3     1  LIG1       -0.0377
     23 H          -8.8874    1.2743    1.4767 H       1  LIG1        0.0278
     24 H          -9.5703    1.9616    0.0090 H       1  LIG1        0.0278
     25 H          -9.1807    3.0154    1.3660 H       1  LIG1        0.0278
     26 C          -8.9993    4.9306   -0.5455 C.ar    1  LIG1        0.0374
     27 C          -7.6659    4.8197   -0.1554 C.ar    1  LIG1        0.0190
     28 C          -7.0260    6.0048    0.1981 C.ar    1  LIG1       -0.0462
     29 C          -7.6885    7.2261    0.1726 C.ar    1  LIG1       -0.0238
     30 C          -9.0309    7.2152   -0.2523 C.ar    1  LIG1        0.0753
     31 N          -9.6577    6.0815   -0.5905 N.ar    1  LIG1       -0.2540
     32 H          -5.9861    5.9605    0.5043 H       1  LIG1        0.0628
     33 H          -9.5595    4.0566   -0.8633 H       1  LIG1        0.0836
     34 C          -6.9576    8.4626    0.6299 C.3     1  LIG1       -0.0377
     35 H          -7.6220    9.1682    1.1315 H       1  LIG1        0.0278
     36 H          -6.4896    8.9923   -0.2056 H       1  LIG1        0.0278
     37 H          -6.1602    8.1901    1.3247 H       1  LIG1        0.0278
     38 C          -9.4239    9.6542   -0.8357 C.ar    1  LIG1        0.0367
     39 C          -9.8825    8.4325   -0.3385 C.ar    1  LIG1        0.0189
     40 C         -11.2242    8.3608    0.0308 C.ar    1  LIG1       -0.0468
     41 C         -12.0403    9.4815   -0.0660 C.ar    1  LIG1       -0.0317
     42 C         -11.4540   10.6470   -0.5573 C.ar    1  LIG1        0.0305
     43 N         -10.1844   10.7402   -0.9455 N.ar    1  LIG1       -0.2623
     44 H         -11.6189    7.4138    0.3849 H       1  LIG1        0.0628
     45 H         -12.0507   11.5533   -0.6491 H       1  LIG1        0.0832
     46 H          -8.4020    9.7556   -1.1884 H       1  LIG1        0.0836
     47 C         -13.4897    9.4419    0.3329 C.3     1  LIG1       -0.0383
     48 H         -13.6056    9.1561    1.3825 H       1  LIG1        0.0278
     49 H         -14.0448    8.7134   -0.2655 H       1  LIG1        0.0278
     50 H         -13.9635   10.4166    0.1971 H       1  LIG1        0.0278
@<TRIPOS>BOND
     1    46    38    1
     2     9     1    1
     3    21    14    1
     4    43    38   ar
     5    43    42   ar
     6    33    26    1
     7    38    39   ar
     8     1     6   ar
     9     1     2   ar
    10     6     5   ar
    11     8     2    1
    12    45    42    1
    13    31    26   ar
    14    31    30   ar
    15    14    19   ar
    16    14    15   ar
    17    42    41   ar
    18    19    18   ar
    19    26    27   ar
    20     2     3   ar
    21    39    30    1
    22    39    40   ar
    23     5    15    1
    24     5     4   ar
    25    49    47    1
    26    30    29   ar
    27    15    16   ar
    28    36    34    1
    29    12    10    1
    30    27    18    1
    31    27    28   ar
    32    18    17   ar
    33     3     4   ar
    34     3     7    1
    35    41    40   ar
    36    41    47    1
    37    24    22    1
    38    40    44    1
    39     4    10    1
    40    29    28   ar
    41    29    34    1
    42    50    47    1
    43    28    32    1
    44    16    17   ar
    45    16    20    1
    46    17    22    1
    47    47    48    1
    48    10    11    1
    49    10    13    1
    50    34    35    1
    51    34    37    1
    52    22    25    1
    53    22    23    1
