@<TRIPOS>MOLECULE
mol_data/opt/cam/geoms/mol2/6ai6ai6ai-6ai-.out
 50 53 0 0 0
SMALL
GASTEIGER

@<TRIPOS>ATOM
      1 C          -4.3685   -1.9525   -1.4088 C.ar    1  LIG1        0.0283
      2 C          -3.1778   -2.2805   -0.7762 C.ar    1  LIG1       -0.0433
      3 C          -2.6326   -1.3517    0.0946 C.ar    1  LIG1       -0.0554
      4 C          -3.2535   -0.1217    0.3029 C.ar    1  LIG1       -0.0244
      5 C          -4.4388    0.1223   -0.4160 C.ar    1  LIG1        0.0753
      6 N          -4.9831   -0.7888   -1.2341 N.ar    1  LIG1       -0.2547
      7 H          -1.7187   -1.5810    0.6355 H       1  LIG1        0.0621
      8 H          -2.7037   -3.2403   -0.9480 H       1  LIG1        0.0633
      9 H          -4.8520   -2.6544   -2.0841 H       1  LIG1        0.0830
     10 C          -2.6586    0.8439    1.2953 C.3     1  LIG1       -0.0377
     11 H          -3.4265    1.4191    1.8153 H       1  LIG1        0.0278
     12 H          -1.9817    1.5586    0.8160 H       1  LIG1        0.0278
     13 H          -2.0745    0.3024    2.0430 H       1  LIG1        0.0278
     14 C          -6.6134    1.3284   -0.2644 C.ar    1  LIG1        0.0374
     15 C          -5.2180    1.3847   -0.3120 C.ar    1  LIG1        0.0190
     16 C          -4.6513    2.6525   -0.2900 C.ar    1  LIG1       -0.0462
     17 C          -5.4382    3.8019   -0.2336 C.ar    1  LIG1       -0.0238
     18 C          -6.8309    3.6205   -0.2055 C.ar    1  LIG1        0.0753
     19 N          -7.3876    2.3992   -0.2014 N.ar    1  LIG1       -0.2540
     20 H          -3.5732    2.7669   -0.3299 H       1  LIG1        0.0628
     21 H          -7.1089    0.3622   -0.2799 H       1  LIG1        0.0836
     22 C          -4.7572    5.1454   -0.1716 C.3     1  LIG1       -0.0377
     23 H          -5.3134    5.8570    0.4408 H       1  LIG1        0.0278
     24 H          -4.6392    5.5913   -1.1641 H       1  LIG1        0.0278
     25 H          -3.7566    5.0403    0.2541 H       1  LIG1        0.0278
     26 C          -7.6839    5.9272   -0.8522 C.ar    1  LIG1        0.0374
     27 C          -7.8139    4.7343   -0.1434 C.ar    1  LIG1        0.0190
     28 C          -8.9685    4.5936    0.6228 C.ar    1  LIG1       -0.0462
     29 C          -9.9261    5.5980    0.6846 C.ar    1  LIG1       -0.0238
     30 C          -9.6889    6.7556   -0.0811 C.ar    1  LIG1        0.0753
     31 N          -8.5837    6.9021   -0.8216 N.ar    1  LIG1       -0.2540
     32 H          -9.1097    3.6749    1.1824 H       1  LIG1        0.0628
     33 H          -6.8287    6.0992   -1.4984 H       1  LIG1        0.0836
     34 C         -11.1265    5.4123    1.5772 C.3     1  LIG1       -0.0377
     35 H         -10.8904    4.7132    2.3824 H       1  LIG1        0.0278
     36 H         -11.9797    4.9965    1.0316 H       1  LIG1        0.0278
     37 H         -11.4514    6.3529    2.0254 H       1  LIG1        0.0278
     38 C         -10.0770    9.2152   -0.0987 C.ar    1  LIG1        0.0367
     39 C         -10.6117    7.9215   -0.1197 C.ar    1  LIG1        0.0189
     40 C         -11.9939    7.8083   -0.2244 C.ar    1  LIG1       -0.0468
     41 C         -12.7892    8.9510   -0.2882 C.ar    1  LIG1       -0.0317
     42 C         -12.1350   10.1775   -0.2386 C.ar    1  LIG1        0.0305
     43 N         -10.8118   10.3190   -0.1478 N.ar    1  LIG1       -0.2623
     44 H         -12.4604    6.8302   -0.2840 H       1  LIG1        0.0628
     45 H         -12.7134   11.0991   -0.2812 H       1  LIG1        0.0832
     46 H          -8.9998    9.3408   -0.0428 H       1  LIG1        0.0836
     47 C         -14.2853    8.8637   -0.4140 C.3     1  LIG1       -0.0383
     48 H         -14.7276    8.3390    0.4383 H       1  LIG1        0.0278
     49 H         -14.5771    8.3202   -1.3177 H       1  LIG1        0.0278
     50 H         -14.7351    9.8577   -0.4632 H       1  LIG1        0.0278
@<TRIPOS>BOND
     1     9     1    1
     2    33    26    1
     3     1     6   ar
     4     1     2   ar
     5    49    47    1
     6     6     5   ar
     7    24    22    1
     8     8     2    1
     9    26    31   ar
    10    26    27   ar
    11    31    30   ar
    12     2     3   ar
    13    50    47    1
    14     5    15    1
    15     5     4   ar
    16    47    41    1
    17    47    48    1
    18    20    16    1
    19    15    16   ar
    20    15    14   ar
    21    16    17   ar
    22    41    42   ar
    23    41    40   ar
    24    44    40    1
    25    45    42    1
    26    21    14    1
    27    14    19   ar
    28    42    43   ar
    29    17    18   ar
    30    17    22    1
    31    40    39   ar
    32    18    19   ar
    33    18    27    1
    34    22    25    1
    35    22    23    1
    36    43    38   ar
    37    27    28   ar
    38    39    38   ar
    39    39    30    1
    40    38    46    1
    41    30    29   ar
    42     3     4   ar
    43     3     7    1
    44     4    10    1
    45    28    29   ar
    46    28    32    1
    47    29    34    1
    48    12    10    1
    49    36    34    1
    50    10    11    1
    51    10    13    1
    52    34    37    1
    53    34    35    1
