@<TRIPOS>MOLECULE
mol_data/opt/cam/geoms/mol2/6ai6ai6ai-6ai.out
 50 53 0 0 0
SMALL
GASTEIGER

@<TRIPOS>ATOM
      1 C          -4.3248   -1.9448   -1.4443 C.ar    1  LIG1        0.0283
      2 C          -3.1498   -2.2772   -0.7851 C.ar    1  LIG1       -0.0433
      3 C          -2.6333   -1.3599    0.1148 C.ar    1  LIG1       -0.0554
      4 C          -3.2660   -0.1364    0.3260 C.ar    1  LIG1       -0.0244
      5 C          -4.4328    0.1134   -0.4206 C.ar    1  LIG1        0.0753
      6 N          -4.9499   -0.7870   -1.2677 N.ar    1  LIG1       -0.2547
      7 H          -1.7332   -1.5936    0.6766 H       1  LIG1        0.0621
      8 H          -2.6662   -3.2318   -0.9593 H       1  LIG1        0.0633
      9 H          -4.7864   -2.6381   -2.1435 H       1  LIG1        0.0830
     10 C          -2.7033    0.8158    1.3496 C.3     1  LIG1       -0.0377
     11 H          -3.4881    1.3793    1.8569 H       1  LIG1        0.0278
     12 H          -2.0167    1.5407    0.9005 H       1  LIG1        0.0278
     13 H          -2.1377    0.2650    2.1047 H       1  LIG1        0.0278
     14 C          -6.6179    1.3047   -0.3090 C.ar    1  LIG1        0.0374
     15 C          -5.2220    1.3695   -0.3171 C.ar    1  LIG1        0.0190
     16 C          -4.6639    2.6400   -0.2580 C.ar    1  LIG1       -0.0462
     17 C          -5.4591    3.7837   -0.2036 C.ar    1  LIG1       -0.0238
     18 C          -6.8510    3.5943   -0.2171 C.ar    1  LIG1        0.0753
     19 N          -7.4000    2.3700   -0.2492 N.ar    1  LIG1       -0.2540
     20 H          -3.5858    2.7612   -0.2661 H       1  LIG1        0.0628
     21 H          -7.1071    0.3362   -0.3544 H       1  LIG1        0.0836
     22 C          -4.7879    5.1294   -0.0995 C.3     1  LIG1       -0.0377
     23 H          -5.3637    5.8262    0.5121 H       1  LIG1        0.0278
     24 H          -4.6476    5.5948   -1.0801 H       1  LIG1        0.0278
     25 H          -3.7977    5.0218    0.3494 H       1  LIG1        0.0278
     26 C          -7.7001    5.9080   -0.8454 C.ar    1  LIG1        0.0374
     27 C          -7.8423    4.7010   -0.1632 C.ar    1  LIG1        0.0190
     28 C          -9.0170    4.5403    0.5674 C.ar    1  LIG1       -0.0462
     29 C          -9.9839    5.5368    0.6206 C.ar    1  LIG1       -0.0238
     30 C          -9.7344    6.7086   -0.1195 C.ar    1  LIG1        0.0753
     31 N          -8.6077    6.8754   -0.8231 N.ar    1  LIG1       -0.2540
     32 H          -9.1673    3.6115    1.1077 H       1  LIG1        0.0628
     33 H          -6.8273    6.0981   -1.4624 H       1  LIG1        0.0836
     34 C         -11.2028    5.3258    1.4821 C.3     1  LIG1       -0.0377
     35 H         -10.9767    4.6182    2.2828 H       1  LIG1        0.0278
     36 H         -12.0385    4.9096    0.9113 H       1  LIG1        0.0278
     37 H         -11.5492    6.2561    1.9353 H       1  LIG1        0.0278
     38 C         -12.0489    7.7394   -0.2801 C.ar    1  LIG1        0.0367
     39 C         -10.6629    7.8704   -0.1701 C.ar    1  LIG1        0.0189
     40 C         -10.1457    9.1643   -0.1704 C.ar    1  LIG1       -0.0468
     41 C         -10.9965   10.2610   -0.2401 C.ar    1  LIG1       -0.0317
     42 C         -12.3622    9.9943   -0.3237 C.ar    1  LIG1        0.0305
     43 N         -12.8855    8.7710   -0.3553 N.ar    1  LIG1       -0.2623
     44 H          -9.0695    9.2970   -0.1248 H       1  LIG1        0.0628
     45 H         -13.0705   10.8198   -0.3768 H       1  LIG1        0.0832
     46 H         -12.5053    6.7560   -0.3383 H       1  LIG1        0.0836
     47 C         -10.4729   11.6707   -0.2324 C.3     1  LIG1       -0.0383
     48 H         -11.2888   12.3953   -0.2823 H       1  LIG1        0.0278
     49 H          -9.8116   11.8518   -1.0850 H       1  LIG1        0.0278
     50 H          -9.8973   11.8763    0.6748 H       1  LIG1        0.0278
@<TRIPOS>BOND
     1     9     1    1
     2    33    26    1
     3     1     6   ar
     4     1     2   ar
     5     6     5   ar
     6    49    47    1
     7    24    22    1
     8     8     2    1
     9    26    31   ar
    10    26    27   ar
    11    31    30   ar
    12     2     3   ar
    13     5    15    1
    14     5     4   ar
    15    45    42    1
    16    43    42   ar
    17    43    38   ar
    18    21    14    1
    19    46    38    1
    20    42    41   ar
    21    15    14   ar
    22    15    16   ar
    23    14    19   ar
    24    48    47    1
    25    38    39   ar
    26    20    16    1
    27    16    17   ar
    28    19    18   ar
    29    41    47    1
    30    41    40   ar
    31    47    50    1
    32    18    17   ar
    33    18    27    1
    34    17    22    1
    35    40    39   ar
    36    40    44    1
    37    39    30    1
    38    27    28   ar
    39    30    29   ar
    40    22    25    1
    41    22    23    1
    42     3     4   ar
    43     3     7    1
    44     4    10    1
    45    28    29   ar
    46    28    32    1
    47    29    34    1
    48    12    10    1
    49    36    34    1
    50    10    11    1
    51    10    13    1
    52    34    37    1
    53    34    35    1
