@<TRIPOS>MOLECULE
mol_data/opt/cam/geoms/mol2/6ai6ai-6ai-6ai.out
 50 53 0 0 0
SMALL
GASTEIGER

@<TRIPOS>ATOM
      1 C          -4.5203   -2.2303   -0.3038 C.ar    1  LIG1        0.0283
      2 C          -3.1358   -2.3194   -0.3355 C.ar    1  LIG1       -0.0433
      3 C          -2.4127   -1.1405   -0.2657 C.ar    1  LIG1       -0.0554
      4 C          -3.0616    0.0910   -0.1930 C.ar    1  LIG1       -0.0244
      5 C          -4.4690    0.0692   -0.2054 C.ar    1  LIG1        0.0753
      6 N          -5.1683   -1.0739   -0.2383 N.ar    1  LIG1       -0.2547
      7 H          -1.3267   -1.1664   -0.2527 H       1  LIG1        0.0621
      8 H          -2.6421   -3.2829   -0.3942 H       1  LIG1        0.0633
      9 H          -5.1365   -3.1260   -0.3302 H       1  LIG1        0.0830
     10 C          -2.2373    1.3460   -0.0632 C.3     1  LIG1       -0.0377
     11 H          -2.7327    2.0987    0.5523 H       1  LIG1        0.0278
     12 H          -2.0317    1.8036   -1.0359 H       1  LIG1        0.0278
     13 H          -1.2721    1.1148    0.3933 H       1  LIG1        0.0278
     14 C          -5.0294    2.4659   -0.8411 C.ar    1  LIG1        0.0374
     15 C          -5.3138    1.2924   -0.1457 C.ar    1  LIG1        0.0190
     16 C          -6.4896    1.2853    0.6003 C.ar    1  LIG1       -0.0462
     17 C          -7.3228    2.3956    0.6542 C.ar    1  LIG1       -0.0238
     18 C          -6.9377    3.5203   -0.1008 C.ar    1  LIG1        0.0753
     19 N          -5.8085    3.5398   -0.8193 N.ar    1  LIG1       -0.2540
     20 H          -6.7480    0.3871    1.1514 H       1  LIG1        0.0628
     21 H          -4.1461    2.5399   -1.4681 H       1  LIG1        0.0836
     22 C          -8.5492    2.3493    1.5292 C.3     1  LIG1       -0.0377
     23 H          -8.4114    1.6185    2.3290 H       1  LIG1        0.0278
     24 H          -9.4397    2.0471    0.9687 H       1  LIG1        0.0278
     25 H          -8.7619    3.3180    1.9851 H       1  LIG1        0.0278
     26 C          -7.0358    6.0086   -0.1313 C.ar    1  LIG1        0.0374
     27 C          -7.7137    4.7868   -0.1531 C.ar    1  LIG1        0.0190
     28 C          -9.0974    4.8520   -0.2567 C.ar    1  LIG1       -0.0462
     29 C          -9.7646    6.0728   -0.3445 C.ar    1  LIG1       -0.0238
     30 C          -8.9751    7.2344   -0.3282 C.ar    1  LIG1        0.0753
     31 N          -7.6398    7.1835   -0.2031 N.ar    1  LIG1       -0.2540
     32 H          -9.6838    3.9399   -0.2849 H       1  LIG1        0.0628
     33 H          -5.9527    6.0157   -0.0522 H       1  LIG1        0.0836
     34 C         -11.2705    6.0741   -0.4155 C.3     1  LIG1       -0.0377
     35 H         -11.6696    5.1696    0.0498 H       1  LIG1        0.0278
     36 H         -11.6317    6.0910   -1.4484 H       1  LIG1        0.0278
     37 H         -11.7023    6.9373    0.0936 H       1  LIG1        0.0278
     38 C         -10.5638    8.9727   -1.2757 C.ar    1  LIG1        0.0367
     39 C          -9.5270    8.6135   -0.4118 C.ar    1  LIG1        0.0189
     40 C          -8.9581    9.6293    0.3541 C.ar    1  LIG1       -0.0468
     41 C          -9.4462   10.9279    0.2717 C.ar    1  LIG1       -0.0317
     42 C         -10.5011   11.1498   -0.6124 C.ar    1  LIG1        0.0305
     43 N         -11.0458   10.2083   -1.3792 N.ar    1  LIG1       -0.2623
     44 H          -8.1241    9.3879    1.0053 H       1  LIG1        0.0628
     45 H         -10.9215   12.1496   -0.7100 H       1  LIG1        0.0832
     46 H         -11.0091    8.2353   -1.9367 H       1  LIG1        0.0836
     47 C          -8.8613   12.0464    1.0893 C.3     1  LIG1       -0.0383
     48 H          -9.3977   12.9825    0.9190 H       1  LIG1        0.0278
     49 H          -7.8098   12.2125    0.8367 H       1  LIG1        0.0278
     50 H          -8.9070   11.8231    2.1591 H       1  LIG1        0.0278
@<TRIPOS>BOND
     1    46    38    1
     2    21    14    1
     3    36    34    1
     4    43    38   ar
     5    43    42   ar
     6    38    39   ar
     7    12    10    1
     8    14    19   ar
     9    14    15   ar
    10    19    18   ar
    11    45    42    1
    12    42    41   ar
    13    34    29    1
    14    34    35    1
    15    34    37    1
    16    39    30    1
    17    39    40   ar
    18     8     2    1
    19    29    30   ar
    20    29    28   ar
    21     2     1   ar
    22     2     3   ar
    23     9     1    1
    24    30    31   ar
    25     1     6   ar
    26    32    28    1
    27     3     7    1
    28     3     4   ar
    29    28    27   ar
    30     6     5   ar
    31     5     4   ar
    32     5    15    1
    33    31    26   ar
    34     4    10    1
    35    27    26   ar
    36    27    18    1
    37    15    16   ar
    38    26    33    1
    39    18    17   ar
    40    10    13    1
    41    10    11    1
    42    41    40   ar
    43    41    47    1
    44    40    44    1
    45    16    17   ar
    46    16    20    1
    47    17    22    1
    48    49    47    1
    49    48    47    1
    50    24    22    1
    51    47    50    1
    52    22    25    1
    53    22    23    1
