@<TRIPOS>MOLECULE
mol_data/opt/cam/geoms/mol2/6ai6ai6ai.out
 38 40 0 0 0
SMALL
GASTEIGER

@<TRIPOS>ATOM
      1 C          -4.5200   -1.9096   -1.2938 C.ar    1  LIG1        0.0283
      2 C          -3.2608   -2.2237   -0.8026 C.ar    1  LIG1       -0.0433
      3 C          -2.6275   -1.2861   -0.0038 C.ar    1  LIG1       -0.0554
      4 C          -3.2325   -0.0615    0.2716 C.ar    1  LIG1       -0.0244
      5 C          -4.4957    0.1679   -0.3052 C.ar    1  LIG1        0.0753
      6 N          -5.1220   -0.7511   -1.0525 N.ar    1  LIG1       -0.2547
      7 H          -1.6549   -1.5046    0.4284 H       1  LIG1        0.0621
      8 H          -2.8005   -3.1798   -1.0251 H       1  LIG1        0.0633
      9 H          -5.0716   -2.6190   -1.9064 H       1  LIG1        0.0830
     10 C          -2.5371    0.9140    1.1860 C.3     1  LIG1       -0.0377
     11 H          -3.2458    1.4801    1.7929 H       1  LIG1        0.0278
     12 H          -1.9315    1.6369    0.6297 H       1  LIG1        0.0278
     13 H          -1.8617    0.3818    1.8598 H       1  LIG1        0.0278
     14 C          -6.6469    1.3530    0.1141 C.ar    1  LIG1        0.0374
     15 C          -5.2700    1.4227   -0.1122 C.ar    1  LIG1        0.0190
     16 C          -4.7177    2.6959   -0.1742 C.ar    1  LIG1       -0.0462
     17 C          -5.5043    3.8368   -0.0261 C.ar    1  LIG1       -0.0238
     18 C          -6.8790    3.6416    0.1858 C.ar    1  LIG1        0.0753
     19 N          -7.4191    2.4167    0.2692 N.ar    1  LIG1       -0.2540
     20 H          -3.6548    2.8193   -0.3547 H       1  LIG1        0.0628
     21 H          -7.1301    0.3820    0.1687 H       1  LIG1        0.0836
     22 C          -4.8435    5.1909   -0.0697 C.3     1  LIG1       -0.0377
     23 H          -5.3289    5.9021    0.6007 H       1  LIG1        0.0278
     24 H          -4.8625    5.6236   -1.0752 H       1  LIG1        0.0278
     25 H          -3.7943    5.1084    0.2237 H       1  LIG1        0.0278
     26 C          -8.8442    4.6343    1.3483 C.ar    1  LIG1        0.0367
     27 C          -7.8502    4.7529    0.3695 C.ar    1  LIG1        0.0189
     28 C          -7.8643    5.9024   -0.4130 C.ar    1  LIG1       -0.0468
     29 C          -8.8284    6.8859   -0.1993 C.ar    1  LIG1       -0.0317
     30 C          -9.7474    6.6558    0.8192 C.ar    1  LIG1        0.0305
     31 N          -9.7660    5.5603    1.5798 N.ar    1  LIG1       -0.2623
     32 H          -7.1416    6.0293   -1.2130 H       1  LIG1        0.0628
     33 H         -10.5173    7.3970    1.0281 H       1  LIG1        0.0832
     34 H          -8.8796    3.7376    1.9597 H       1  LIG1        0.0836
     35 C          -8.8808    8.1337   -1.0372 C.3     1  LIG1       -0.0383
     36 H          -9.7015    8.7833   -0.7254 H       1  LIG1        0.0278
     37 H          -9.0272    7.8958   -2.0951 H       1  LIG1        0.0278
     38 H          -7.9524    8.7073   -0.9581 H       1  LIG1        0.0278
@<TRIPOS>BOND
     1    37    35    1
     2     9     1    1
     3     1     6   ar
     4     1     2   ar
     5    32    28    1
     6    24    22    1
     7     6     5   ar
     8    35    38    1
     9    35    36    1
    10    35    29    1
    11     8     2    1
    12     2     3   ar
    13    28    29   ar
    14    28    27   ar
    15    20    16    1
    16     5    15    1
    17     5     4   ar
    18    29    30   ar
    19    16    15   ar
    20    16    17   ar
    21    15    14   ar
    22    22    17    1
    23    22    25    1
    24    22    23    1
    25    17    18   ar
    26     3     4   ar
    27     3     7    1
    28    14    21    1
    29    14    19   ar
    30    18    19   ar
    31    18    27    1
    32     4    10    1
    33    27    26   ar
    34    12    10    1
    35    30    33    1
    36    30    31   ar
    37    10    11    1
    38    10    13    1
    39    26    31   ar
    40    26    34    1
