@<TRIPOS>MOLECULE
mol_data/opt/cam/geoms/mol2/6ai6ai.out
 26 27 0 0 0
SMALL
GASTEIGER

@<TRIPOS>ATOM
      1 C          -4.5972   -2.0267   -0.6348 C.ar    1  LIG1        0.0283
      2 C          -3.2282   -2.1559   -0.4474 C.ar    1  LIG1       -0.0433
      3 C          -2.5280   -1.0407   -0.0179 C.ar    1  LIG1       -0.0554
      4 C          -3.1818    0.1716    0.1929 C.ar    1  LIG1       -0.0244
      5 C          -4.5661    0.2008   -0.0596 C.ar    1  LIG1        0.0753
      6 N          -5.2487   -0.8855   -0.4457 N.ar    1  LIG1       -0.2547
      7 H          -1.4602   -1.1061    0.1723 H       1  LIG1        0.0621
      8 H          -2.7317   -3.1048   -0.6161 H       1  LIG1        0.0633
      9 H          -5.1986   -2.8767   -0.9487 H       1  LIG1        0.0830
     10 C          -2.3975    1.3512    0.7078 C.3     1  LIG1       -0.0377
     11 H          -2.9967    1.9828    1.3657 H       1  LIG1        0.0278
     12 H          -2.0281    1.9838   -0.1058 H       1  LIG1        0.0278
     13 H          -1.5248    1.0070    1.2676 H       1  LIG1        0.0278
     14 C          -6.6660    1.3010    0.7056 C.ar    1  LIG1        0.0367
     15 C          -5.4035    1.4189    0.1127 C.ar    1  LIG1        0.0189
     16 C          -5.0250    2.6820   -0.3290 C.ar    1  LIG1       -0.0468
     17 C          -5.8798    3.7700   -0.1615 C.ar    1  LIG1       -0.0317
     18 C          -7.0990    3.5224    0.4608 C.ar    1  LIG1        0.0305
     19 N          -7.4942    2.3219    0.8867 N.ar    1  LIG1       -0.2623
     20 H          -4.0725    2.8242   -0.8301 H       1  LIG1        0.0628
     21 H          -7.7996    4.3409    0.6186 H       1  LIG1        0.0832
     22 H          -7.0043    0.3246    1.0395 H       1  LIG1        0.0836
     23 C          -5.5074    5.1463   -0.6398 C.3     1  LIG1       -0.0383
     24 H          -6.2983    5.8667   -0.4205 H       1  LIG1        0.0278
     25 H          -5.3353    5.1585   -1.7203 H       1  LIG1        0.0278
     26 H          -4.5901    5.5011   -0.1602 H       1  LIG1        0.0278
@<TRIPOS>BOND
     1    25    23    1
     2     9     1    1
     3    20    16    1
     4    23    24    1
     5    23    17    1
     6    23    26    1
     7     1     2   ar
     8     1     6   ar
     9     8     2    1
    10     2     3   ar
    11     6     5   ar
    12    16    17   ar
    13    16    15   ar
    14    17    18   ar
    15    12    10    1
    16     5    15    1
    17     5     4   ar
    18     3     7    1
    19     3     4   ar
    20    15    14   ar
    21     4    10    1
    22    18    21    1
    23    18    19   ar
    24    14    19   ar
    25    14    22    1
    26    10    13    1
    27    10    11    1
