@<TRIPOS>MOLECULE
mol_data/opt/cam/geoms/mol2/6al13ff-6af-12hl.out
 48 51 0 0 0
SMALL
GASTEIGER

@<TRIPOS>ATOM
      1 C          -4.7629   -1.9098    1.1057 C.ar    1  LIG1        0.0286
      2 C          -3.4216   -2.2278    1.0041 C.ar    1  LIG1       -0.0401
      3 C          -2.5480   -1.2636    0.5074 C.ar    1  LIG1       -0.0163
      4 C          -3.0476   -0.0239    0.1381 C.ar    1  LIG1        0.1475
      5 C          -4.4288    0.2299    0.2943 C.ar    1  LIG1        0.1322
      6 N          -5.2484   -0.7174    0.7624 N.ar    1  LIG1       -0.2497
      7 H          -1.4931   -1.4850    0.4044 H       1  LIG1        0.0655
      8 H          -3.0591   -3.2057    1.2994 H       1  LIG1        0.0634
      9 H          -5.4831   -2.6327    1.4788 H       1  LIG1        0.0830
     10 O          -2.3107    0.9783   -0.3803 O.3     1  LIG1       -0.4929
     11 C          -0.9201    0.8031   -0.5179 C.3     1  LIG1        0.0789
     12 H          -0.5413    1.7401   -0.9238 H       1  LIG1        0.0660
     13 H          -0.4404    0.6068    0.4484 H       1  LIG1        0.0660
     14 H          -0.6817   -0.0145   -1.2091 H       1  LIG1        0.0660
     15 C          -5.0838    1.4933   -0.0418 C.ar    1  LIG1        0.1148
     16 C          -4.7246    2.7882   -0.4085 C.ar    1  LIG1        0.1864
     17 C          -5.9141    3.5369   -0.5122 C.ar    1  LIG1        0.1849
     18 C          -6.9914    2.7212   -0.2106 C.ar    1  LIG1        0.0943
     19 N          -6.4611    1.4932    0.0486 N.ar    1  LIG1       -0.3469
     20 H          -6.9303    0.6747    0.4083 H       1  LIG1        0.1662
     21 O          -3.5082    3.3384   -0.6402 O.3     1  LIG1       -0.5019
     22 H          -3.6888    4.2665   -0.8529 H       1  LIG1        0.2924
     23 O          -5.8831    4.8729   -0.8489 O.3     1  LIG1       -0.5019
     24 H          -6.4345    5.0165   -1.6285 H       1  LIG1        0.2924
     25 C          -9.3760    1.9827   -0.2923 C.ar    1  LIG1        0.0378
     26 C          -8.4187    3.0052   -0.1973 C.ar    1  LIG1        0.0236
     27 C          -8.8980    4.3070   -0.0930 C.ar    1  LIG1       -0.0073
     28 C         -10.2683    4.5595   -0.0916 C.ar    1  LIG1        0.1464
     29 C         -11.1423    3.4542   -0.1816 C.ar    1  LIG1        0.1491
     30 N         -10.6767    2.2016   -0.2764 N.ar    1  LIG1       -0.2475
     31 H          -8.2230    5.1492    0.0038 H       1  LIG1        0.0662
     32 H          -9.0675    0.9458   -0.4038 H       1  LIG1        0.0836
     33 O         -10.6519    5.8428   -0.0325 O.3     1  LIG1       -0.5045
     34 H         -11.5949    5.9415    0.2706 H       1  LIG1        0.2922
     35 C         -12.6026    3.5892   -0.2243 C.ar    1  LIG1        0.1807
     36 C         -13.4897    4.5466    0.1857 C.ar    1  LIG1        0.1149
     37 C         -14.7922    4.0654   -0.1503 C.ar    1  LIG1        0.1789
     38 C         -14.6189    2.8505   -0.7318 C.ar    1  LIG1        0.1361
     39 O         -13.2899    2.5564   -0.7688 O.2     1  LIG1       -0.4556
     40 H         -15.2847    2.1122   -1.1445 H       1  LIG1        0.1068
     41 N         -13.1866    5.7753    0.8354 N.pl3   1  LIG1       -0.3521
     42 H         -13.8608    6.4882    0.5721 H       1  LIG1        0.1425
     43 H         -13.2219    5.6840    1.8477 H       1  LIG1        0.1425
     44 O         -15.9047    4.7865    0.1138 O.3     1  LIG1       -0.4901
     45 C         -17.1144    4.1845   -0.3054 C.3     1  LIG1        0.0790
     46 H         -17.9187    4.8688   -0.0380 H       1  LIG1        0.0660
     47 H         -17.1153    4.0225   -1.3899 H       1  LIG1        0.0660
     48 H         -17.2680    3.2236    0.2000 H       1  LIG1        0.0660
@<TRIPOS>BOND
     1    24    23    1
     2    47    45    1
     3    14    11    1
     4    40    38    1
     5    12    11    1
     6    22    21    1
     7    23    17    1
     8    39    38   ar
     9    39    35   ar
    10    38    37   ar
    11    21    16    1
    12    11    10    1
    13    11    13    1
    14    17    16   ar
    15    17    18   ar
    16    16    15   ar
    17    32    25    1
    18    10     4    1
    19    45    46    1
    20    45    44    1
    21    45    48    1
    22    25    30   ar
    23    25    26   ar
    24    30    29   ar
    25    35    29    1
    26    35    36   ar
    27    18    26    1
    28    18    19   ar
    29    26    27   ar
    30    29    28   ar
    31    37    44    1
    32    37    36   ar
    33    27    28   ar
    34    27    31    1
    35    28    33    1
    36    15    19   ar
    37    15     5    1
    38    33    34    1
    39    19    20    1
    40     4     5   ar
    41     4     3   ar
    42    36    41    1
    43     5     6   ar
    44     7     3    1
    45     3     2   ar
    46    42    41    1
    47     6     1   ar
    48    41    43    1
    49     2     1   ar
    50     2     8    1
    51     1     9    1
