@<TRIPOS>MOLECULE
mol_data/opt/cam/geoms/mol2/6al6al6al6al.out
 54 57 0 0 0
SMALL
GASTEIGER

@<TRIPOS>ATOM
      1 C          -4.8044   -2.3872   -0.0002 C.ar    1  LIG1        0.0285
      2 C          -3.4437   -2.6451   -0.0005 C.ar    1  LIG1       -0.0401
      3 C          -2.5744   -1.5649   -0.0007 C.ar    1  LIG1       -0.0164
      4 C          -3.0878   -0.2720   -0.0006 C.ar    1  LIG1        0.1460
      5 C          -4.4916   -0.0903   -0.0003 C.ar    1  LIG1        0.1140
      6 N          -5.2974   -1.1558   -0.0001 N.ar    1  LIG1       -0.2513
      7 H          -1.5055   -1.7334   -0.0010 H       1  LIG1        0.0655
      8 H          -3.0676   -3.6617   -0.0006 H       1  LIG1        0.0634
      9 H          -5.5286   -3.1973   -0.0001 H       1  LIG1        0.0830
     10 O          -2.2910    0.8302   -0.0008 O.3     1  LIG1       -0.4930
     11 C          -0.8880    0.6559   -0.0012 C.3     1  LIG1        0.0789
     12 H          -0.4602    1.6579   -0.0013 H       1  LIG1        0.0660
     13 H          -0.5489    0.1210    0.8926 H       1  LIG1        0.0660
     14 H          -0.5493    0.1209   -0.8951 H       1  LIG1        0.0660
     15 C          -6.5913    1.2395    0.0000 C.ar    1  LIG1        0.0378
     16 C          -5.1914    1.2244   -0.0001 C.ar    1  LIG1        0.0255
     17 C          -4.5670    2.4716   -0.0002 C.ar    1  LIG1       -0.0071
     18 C          -5.3241    3.6374   -0.0000 C.ar    1  LIG1        0.1466
     19 C          -6.7308    3.5549    0.0002 C.ar    1  LIG1        0.1140
     20 N          -7.3101    2.3484    0.0002 N.ar    1  LIG1       -0.2506
     21 H          -3.4925    2.5273   -0.0003 H       1  LIG1        0.0662
     22 H          -7.1337    0.3021    0.0001 H       1  LIG1        0.0836
     23 O          -4.7454    4.8722   -0.0000 O.3     1  LIG1       -0.4929
     24 C          -3.3363    4.9640   -0.0002 C.3     1  LIG1        0.0789
     25 H          -3.1041    6.0289   -0.0002 H       1  LIG1        0.0660
     26 H          -2.9015    4.5014    0.8928 H       1  LIG1        0.0660
     27 H          -2.9018    4.5014   -0.8934 H       1  LIG1        0.0660
     28 C          -9.0473    4.4522    0.0004 C.ar    1  LIG1        0.0378
     29 C          -7.6707    4.7063    0.0004 C.ar    1  LIG1        0.0255
     30 C          -7.2984    6.0507    0.0004 C.ar    1  LIG1       -0.0071
     31 C          -8.2655    7.0490    0.0006 C.ar    1  LIG1        0.1466
     32 C          -9.6311    6.6984    0.0007 C.ar    1  LIG1        0.1140
     33 N          -9.9656    5.4026    0.0006 N.ar    1  LIG1       -0.2506
     34 H          -6.2542    6.3110    0.0004 H       1  LIG1        0.0662
     35 H          -9.3984    3.4274    0.0004 H       1  LIG1        0.0836
     36 O          -7.9319    8.3718    0.0007 O.3     1  LIG1       -0.4929
     37 C          -6.5669    8.7304    0.0007 C.3     1  LIG1        0.0789
     38 H          -6.5423    9.8201    0.0008 H       1  LIG1        0.0660
     39 H          -6.0511    8.3593    0.8935 H       1  LIG1        0.0660
     40 H          -6.0512    8.3595   -0.8922 H       1  LIG1        0.0660
     41 C         -12.0755    7.1221    0.0012 C.ar    1  LIG1        0.0371
     42 C         -10.7785    7.6494    0.0008 C.ar    1  LIG1        0.0255
     43 C         -10.6559    9.0450    0.0006 C.ar    1  LIG1       -0.0077
     44 C         -11.8073    9.8200    0.0007 C.ar    1  LIG1        0.1387
     45 C         -13.0492    9.1865    0.0011 C.ar    1  LIG1        0.0692
     46 N         -13.1800    7.8672    0.0014 N.ar    1  LIG1       -0.2590
     47 H          -9.6802    9.5003    0.0002 H       1  LIG1        0.0662
     48 H         -13.9527    9.7914    0.0013 H       1  LIG1        0.0867
     49 H         -12.2067    6.0474    0.0014 H       1  LIG1        0.0836
     50 O         -11.8282   11.1807    0.0005 O.3     1  LIG1       -0.4936
     51 C         -10.5924   11.8586    0.0001 C.3     1  LIG1        0.0789
     52 H         -10.8282   12.9228   -0.0000 H       1  LIG1        0.0660
     53 H          -9.9998   11.6219    0.8921 H       1  LIG1        0.0660
     54 H         -10.0003   11.6216   -0.8921 H       1  LIG1        0.0660
@<TRIPOS>BOND
     1    14    11    1
     2    27    24    1
     3    40    37    1
     4    54    51    1
     5    12    11    1
     6    11    10    1
     7    11    13    1
     8     7     3    1
     9    10     4    1
    10     3     4   ar
    11     3     2   ar
    12     4     5   ar
    13     8     2    1
    14     2     1   ar
    15    21    17    1
    16     5    16    1
    17     5     6   ar
    18    24    25    1
    19    24    23    1
    20    24    26    1
    21     1     6   ar
    22     1     9    1
    23    17    16   ar
    24    17    18   ar
    25    16    15   ar
    26    23    18    1
    27    18    19   ar
    28    52    51    1
    29    15    22    1
    30    15    20   ar
    31    51    50    1
    32    51    53    1
    33    19    20   ar
    34    19    29    1
    35    47    43    1
    36    29    30   ar
    37    29    28   ar
    38    34    30    1
    39    35    28    1
    40    30    31   ar
    41    28    33   ar
    42    50    44    1
    43    43    44   ar
    44    43    42   ar
    45    33    32   ar
    46    31    32   ar
    47    31    36    1
    48    32    42    1
    49    36    37    1
    50    37    38    1
    51    37    39    1
    52    44    45   ar
    53    42    41   ar
    54    45    48    1
    55    45    46   ar
    56    41    46   ar
    57    41    49    1
