@<TRIPOS>MOLECULE
mol_data/opt/cam/geoms/mol2/6al6al.out
 28 29 0 0 0
SMALL
GASTEIGER

@<TRIPOS>ATOM
      1 C          -4.6455   -2.1870   -0.0003 C.ar    1  LIG1        0.0285
      2 C          -3.2669   -2.3127   -0.0003 C.ar    1  LIG1       -0.0401
      3 C          -2.5076   -1.1526   -0.0002 C.ar    1  LIG1       -0.0164
      4 C          -3.1437    0.0847   -0.0002 C.ar    1  LIG1        0.1460
      5 C          -4.5591    0.1311   -0.0002 C.ar    1  LIG1        0.1140
      6 N          -5.2551   -1.0088   -0.0003 N.ar    1  LIG1       -0.2513
      7 H          -1.4273   -1.2162   -0.0002 H       1  LIG1        0.0655
      8 H          -2.7936   -3.2880   -0.0003 H       1  LIG1        0.0634
      9 H          -5.2886   -3.0632   -0.0004 H       1  LIG1        0.0830
     10 O          -2.4546    1.2571   -0.0001 O.3     1  LIG1       -0.4930
     11 C          -1.0420    1.2183   -0.0000 C.3     1  LIG1        0.0789
     12 H          -0.7127    2.2569    0.0001 H       1  LIG1        0.0660
     13 H          -0.6528    0.7183    0.8938 H       1  LIG1        0.0660
     14 H          -0.6527    0.7184   -0.8938 H       1  LIG1        0.0660
     15 C          -6.7791    1.2402    0.0002 C.ar    1  LIG1        0.0371
     16 C          -5.3859    1.3746   -0.0002 C.ar    1  LIG1        0.0255
     17 C          -4.8694    2.6767   -0.0005 C.ar    1  LIG1       -0.0077
     18 C          -5.7511    3.7490   -0.0004 C.ar    1  LIG1        0.1387
     19 C          -7.1225    3.4966   -0.0001 C.ar    1  LIG1        0.0692
     20 N          -7.6244    2.2699    0.0002 N.ar    1  LIG1       -0.2590
     21 H          -3.8048    2.8365   -0.0007 H       1  LIG1        0.0662
     22 H          -7.8155    4.3343   -0.0000 H       1  LIG1        0.0867
     23 H          -7.2138    0.2487    0.0004 H       1  LIG1        0.0836
     24 O          -5.3825    5.0578   -0.0007 O.3     1  LIG1       -0.4936
     25 C          -4.0044    5.3562   -0.0010 C.3     1  LIG1        0.0789
     26 H          -3.9282    6.4434   -0.0012 H       1  LIG1        0.0660
     27 H          -3.5043    4.9610    0.8913 H       1  LIG1        0.0660
     28 H          -3.5047    4.9607   -0.8935 H       1  LIG1        0.0660
@<TRIPOS>BOND
     1    14    11    1
     2    28    25    1
     3    26    25    1
     4    25    24    1
     5    25    27    1
     6    21    17    1
     7    24    18    1
     8    17    18   ar
     9    17    16   ar
    10    18    19   ar
    11     9     1    1
    12     8     2    1
    13     1     2   ar
    14     1     6   ar
    15     2     3   ar
    16     6     5   ar
    17     3     7    1
    18     3     4   ar
    19     5     4   ar
    20     5    16    1
    21     4    10    1
    22    16    15   ar
    23    10    11    1
    24    19    22    1
    25    19    20   ar
    26    11    12    1
    27    11    13    1
    28    15    20   ar
    29    15    23    1
