@<TRIPOS>MOLECULE
mol_data/opt/cam/geoms/mol2/6al6al6al.out
 41 43 0 0 0
SMALL
GASTEIGER

@<TRIPOS>ATOM
      1 C          -4.6903   -2.2835   -0.0005 C.ar    1  LIG1        0.0285
      2 C          -3.3185   -2.4723   -0.0006 C.ar    1  LIG1       -0.0401
      3 C          -2.5054   -1.3492   -0.0005 C.ar    1  LIG1       -0.0164
      4 C          -3.0837   -0.0839   -0.0004 C.ar    1  LIG1        0.1460
      5 C          -4.4949    0.0266   -0.0003 C.ar    1  LIG1        0.1140
      6 N          -5.2451   -1.0787   -0.0004 N.ar    1  LIG1       -0.2513
      7 H          -1.4294   -1.4631   -0.0005 H       1  LIG1        0.0655
      8 H          -2.8911   -3.4685   -0.0007 H       1  LIG1        0.0634
      9 H          -5.3726   -3.1294   -0.0006 H       1  LIG1        0.0830
     10 O          -2.3440    1.0573   -0.0003 O.3     1  LIG1       -0.4930
     11 C          -0.9340    0.9547   -0.0003 C.3     1  LIG1        0.0789
     12 H          -0.5579    1.9773   -0.0003 H       1  LIG1        0.0660
     13 H          -0.5682    0.4376    0.8934 H       1  LIG1        0.0660
     14 H          -0.5682    0.4377   -0.8942 H       1  LIG1        0.0660
     15 C          -6.6592    1.2476   -0.0001 C.ar    1  LIG1        0.0378
     16 C          -5.2610    1.3039   -0.0002 C.ar    1  LIG1        0.0255
     17 C          -4.7025    2.5821   -0.0001 C.ar    1  LIG1       -0.0071
     18 C          -5.5186    3.7075   -0.0000 C.ar    1  LIG1        0.1466
     19 C          -6.9201    3.5538    0.0000 C.ar    1  LIG1        0.1140
     20 N          -7.4338    2.3184   -0.0000 N.ar    1  LIG1       -0.2506
     21 H          -3.6324    2.6945   -0.0002 H       1  LIG1        0.0662
     22 H          -7.1533    0.2838   -0.0002 H       1  LIG1        0.0836
     23 O          -5.0014    4.9692    0.0001 O.3     1  LIG1       -0.4929
     24 C          -3.5993    5.1320    0.0001 C.3     1  LIG1        0.0789
     25 H          -3.4216    6.2074    0.0002 H       1  LIG1        0.0660
     26 H          -3.1413    4.6921    0.8931 H       1  LIG1        0.0660
     27 H          -3.1413    4.6923   -0.8930 H       1  LIG1        0.0660
     28 C          -9.2799    4.3177    0.0007 C.ar    1  LIG1        0.0371
     29 C          -7.9218    4.6573    0.0002 C.ar    1  LIG1        0.0255
     30 C          -7.6037    6.0217   -0.0002 C.ar    1  LIG1       -0.0077
     31 C          -8.6344    6.9511   -0.0001 C.ar    1  LIG1        0.1387
     32 C          -9.9533    6.4985    0.0004 C.ar    1  LIG1        0.0692
     33 N         -10.2685    5.2109    0.0008 N.ar    1  LIG1       -0.2590
     34 H          -6.5735    6.3351   -0.0006 H       1  LIG1        0.0662
     35 H         -10.7626    7.2246    0.0006 H       1  LIG1        0.0867
     36 H          -9.5613    3.2722    0.0009 H       1  LIG1        0.0836
     37 O          -8.4640    8.3009   -0.0004 O.3     1  LIG1       -0.4936
     38 C          -7.1453    8.7990   -0.0010 C.3     1  LIG1        0.0789
     39 H          -7.2298    9.8857   -0.0012 H       1  LIG1        0.0660
     40 H          -6.5919    8.4816    0.8911 H       1  LIG1        0.0660
     41 H          -6.5925    8.4813   -0.8933 H       1  LIG1        0.0660
@<TRIPOS>BOND
     1    14    11    1
     2    41    38    1
     3    27    24    1
     4    39    38    1
     5    38    37    1
     6    38    40    1
     7     8     2    1
     8    34    30    1
     9     9     1    1
    10     2     1   ar
    11     2     3   ar
    12     7     3    1
    13     1     6   ar
    14     3     4   ar
    15    37    31    1
    16     6     5   ar
    17     4     5   ar
    18     4    10    1
    19    11    10    1
    20    11    12    1
    21    11    13    1
    22     5    16    1
    23    30    31   ar
    24    30    29   ar
    25    16    17   ar
    26    16    15   ar
    27    21    17    1
    28    22    15    1
    29    17    18   ar
    30    15    20   ar
    31    31    32   ar
    32    18    19   ar
    33    18    23    1
    34    20    19   ar
    35    19    29    1
    36    23    24    1
    37    24    25    1
    38    24    26    1
    39    29    28   ar
    40    32    35    1
    41    32    33   ar
    42    28    33   ar
    43    28    36    1
