@<TRIPOS>MOLECULE
mol_data/opt/cam/geoms/mol2/6al6al-.out
 28 29 0 0 0
SMALL
GASTEIGER

@<TRIPOS>ATOM
      1 C          -4.6764   -2.0241   -0.0004 C.ar    1  LIG1        0.0285
      2 C          -3.3017   -2.1872   -0.0002 C.ar    1  LIG1       -0.0401
      3 C          -2.5098   -1.0491   -0.0001 C.ar    1  LIG1       -0.0164
      4 C          -3.1114    0.2058   -0.0002 C.ar    1  LIG1        0.1460
      5 C          -4.5242    0.2898   -0.0004 C.ar    1  LIG1        0.1140
      6 N          -5.2531   -0.8288   -0.0005 N.ar    1  LIG1       -0.2513
      7 H          -1.4316   -1.1411    0.0000 H       1  LIG1        0.0655
      8 H          -2.8560   -3.1755   -0.0001 H       1  LIG1        0.0634
      9 H          -5.3432   -2.8823   -0.0004 H       1  LIG1        0.0830
     10 O          -2.3970    1.3583   -0.0001 O.3     1  LIG1       -0.4930
     11 C          -0.9856    1.2904    0.0001 C.3     1  LIG1        0.0789
     12 H          -0.6367    2.3223    0.0001 H       1  LIG1        0.0660
     13 H          -0.6073    0.7823    0.8941 H       1  LIG1        0.0660
     14 H          -0.6071    0.7822   -0.8938 H       1  LIG1        0.0660
     15 C          -4.7778    2.8557   -0.0011 C.ar    1  LIG1        0.0371
     16 C          -5.3162    1.5577   -0.0006 C.ar    1  LIG1        0.0255
     17 C          -6.7049    1.4545   -0.0002 C.ar    1  LIG1       -0.0077
     18 C          -7.4881    2.6007   -0.0003 C.ar    1  LIG1        0.1387
     19 C          -6.8510    3.8398   -0.0008 C.ar    1  LIG1        0.0692
     20 N          -5.5241    3.9551   -0.0012 N.ar    1  LIG1       -0.2590
     21 H          -7.1765    0.4807    0.0002 H       1  LIG1        0.0662
     22 H          -7.4131    4.7683   -0.0010 H       1  LIG1        0.0867
     23 H          -3.7099    3.0116   -0.0014 H       1  LIG1        0.0836
     24 O          -8.8345    2.4173    0.0000 O.3     1  LIG1       -0.4936
     25 C          -9.6562    3.5653   -0.0001 C.3     1  LIG1        0.0789
     26 H         -10.6842    3.2034    0.0002 H       1  LIG1        0.0660
     27 H          -9.4917    4.1810    0.8920 H       1  LIG1        0.0660
     28 H          -9.4921    4.1805   -0.8927 H       1  LIG1        0.0660
@<TRIPOS>BOND
     1    14    11    1
     2    28    25    1
     3    23    15    1
     4    20    15   ar
     5    20    19   ar
     6    15    16   ar
     7    22    19    1
     8    19    18   ar
     9    16     5    1
    10    16    17   ar
    11     6     5   ar
    12     6     1   ar
    13     5     4   ar
    14     9     1    1
    15     1     2   ar
    16    18    17   ar
    17    18    24    1
    18     4    10    1
    19     4     3   ar
    20    17    21    1
    21     2     3   ar
    22     2     8    1
    23    25    24    1
    24    25    26    1
    25    25    27    1
    26    10    11    1
    27     3     7    1
    28    11    12    1
    29    11    13    1
