@<TRIPOS>MOLECULE
mol_data/opt/cam/geoms/mol2/6al6al6al6al-.out
 54 57 0 0 0
SMALL
GASTEIGER

@<TRIPOS>ATOM
      1 C          -4.9579   -2.2761   -0.0007 C.ar    1  LIG1        0.0285
      2 C          -3.6029   -2.5617   -0.0006 C.ar    1  LIG1       -0.0401
      3 C          -2.7119   -1.4994   -0.0005 C.ar    1  LIG1       -0.0164
      4 C          -3.1988   -0.1961   -0.0003 C.ar    1  LIG1        0.1460
      5 C          -4.5985    0.0141   -0.0004 C.ar    1  LIG1        0.1140
      6 N          -5.4256   -1.0349   -0.0006 N.ar    1  LIG1       -0.2513
      7 H          -1.6467   -1.6899   -0.0004 H       1  LIG1        0.0655
      8 H          -3.2474   -3.5858   -0.0007 H       1  LIG1        0.0634
      9 H          -5.6986   -3.0713   -0.0008 H       1  LIG1        0.0830
     10 O          -2.3797    0.8895   -0.0001 O.3     1  LIG1       -0.4930
     11 C          -0.9805    0.6860   -0.0001 C.3     1  LIG1        0.0789
     12 H          -0.5319    1.6789    0.0001 H       1  LIG1        0.0660
     13 H          -0.6532    0.1439    0.8937 H       1  LIG1        0.0660
     14 H          -0.6530    0.1441   -0.8940 H       1  LIG1        0.0660
     15 C          -6.6712    1.3848   -0.0003 C.ar    1  LIG1        0.0378
     16 C          -5.2719    1.3426   -0.0003 C.ar    1  LIG1        0.0255
     17 C          -4.6235    2.5777   -0.0002 C.ar    1  LIG1       -0.0071
     18 C          -5.3582    3.7578   -0.0001 C.ar    1  LIG1        0.1466
     19 C          -6.7665    3.7023   -0.0001 C.ar    1  LIG1        0.1140
     20 N          -7.3688    2.5072   -0.0002 N.ar    1  LIG1       -0.2506
     21 H          -3.5480    2.6136   -0.0002 H       1  LIG1        0.0662
     22 H          -7.2315    0.4579   -0.0003 H       1  LIG1        0.0836
     23 O          -4.7564    4.9811    0.0000 O.3     1  LIG1       -0.4929
     24 C          -3.3459    5.0469    0.0001 C.3     1  LIG1        0.0789
     25 H          -3.0945    6.1073    0.0002 H       1  LIG1        0.0660
     26 H          -2.9199    4.5764    0.8932 H       1  LIG1        0.0660
     27 H          -2.9198    4.5766   -0.8931 H       1  LIG1        0.0660
     28 C          -9.0654    4.6427    0.0004 C.ar    1  LIG1        0.0378
     29 C          -7.6845    4.8717    0.0000 C.ar    1  LIG1        0.0255
     30 C          -7.2864    6.2086   -0.0003 C.ar    1  LIG1       -0.0071
     31 C          -8.2348    7.2254   -0.0001 C.ar    1  LIG1        0.1466
     32 C          -9.6054    6.8992    0.0002 C.ar    1  LIG1        0.1140
     33 N          -9.9658    5.6109    0.0005 N.ar    1  LIG1       -0.2506
     34 H          -6.2378    6.4504   -0.0005 H       1  LIG1        0.0662
     35 H          -9.4354    3.6247    0.0006 H       1  LIG1        0.0836
     36 O          -7.8825    8.5393   -0.0004 O.3     1  LIG1       -0.4929
     37 C          -6.5133    8.8805   -0.0007 C.3     1  LIG1        0.0789
     38 H          -6.4764    9.9697   -0.0009 H       1  LIG1        0.0660
     39 H          -6.0026    8.5025    0.8922 H       1  LIG1        0.0660
     40 H          -6.0030    8.5023   -0.8938 H       1  LIG1        0.0660
     41 C         -10.6044    9.2724   -0.0000 C.ar    1  LIG1        0.0371
     42 C         -10.7359    7.8729    0.0004 C.ar    1  LIG1        0.0255
     43 C         -12.0324    7.3645    0.0010 C.ar    1  LIG1       -0.0077
     44 C         -13.1184    8.2293    0.0012 C.ar    1  LIG1        0.1387
     45 C         -12.8754    9.6011    0.0007 C.ar    1  LIG1        0.0692
     46 N         -11.6413   10.1033    0.0001 N.ar    1  LIG1       -0.2590
     47 H         -12.1934    6.2944    0.0014 H       1  LIG1        0.0662
     48 H         -13.6865   10.3224    0.0009 H       1  LIG1        0.0867
     49 H          -9.6288    9.7344   -0.0005 H       1  LIG1        0.0836
     50 O         -14.3521    7.6574    0.0018 O.3     1  LIG1       -0.4936
     51 C         -15.4744    8.5124    0.0020 C.3     1  LIG1        0.0789
     52 H         -16.3507    7.8644    0.0025 H       1  LIG1        0.0660
     53 H         -15.4985    9.1496    0.8940 H       1  LIG1        0.0660
     54 H         -15.4991    9.1491   -0.8904 H       1  LIG1        0.0660
@<TRIPOS>BOND
     1    14    11    1
     2    40    37    1
     3    27    24    1
     4    54    51    1
     5    38    37    1
     6     9     1    1
     7     8     2    1
     8    37    36    1
     9    37    39    1
    10     1     2   ar
    11     1     6   ar
    12     2     3   ar
    13     6     5   ar
    14    49    41    1
    15    34    30    1
    16     3     7    1
    17     3     4   ar
    18     5     4   ar
    19     5    16    1
    20    36    31    1
    21     4    10    1
    22    22    15    1
    23    16    15   ar
    24    16    17   ar
    25    15    20   ar
    26    30    31   ar
    27    30    29   ar
    28    21    17    1
    29    17    18   ar
    30    20    19   ar
    31    31    32   ar
    32    10    11    1
    33    19    18   ar
    34    19    29    1
    35    18    23    1
    36    11    12    1
    37    11    13    1
    38    41    46   ar
    39    41    42   ar
    40    29    28   ar
    41    23    24    1
    42    24    25    1
    43    24    26    1
    44    46    45   ar
    45    32    42    1
    46    32    33   ar
    47    28    33   ar
    48    28    35    1
    49    42    43   ar
    50    45    48    1
    51    45    44   ar
    52    43    44   ar
    53    43    47    1
    54    44    50    1
    55    50    51    1
    56    51    52    1
    57    51    53    1
