@<TRIPOS>MOLECULE
mol_data/opt/cam/geoms/mol2/6da12dh-12dh-6af4fi-4he-4fe12ae.out
 92 99 0 0 0
SMALL
GASTEIGER

@<TRIPOS>ATOM
      1 C          -3.9714   -1.5682   -1.0749 C.ar    1  LIG1        0.1408
      2 C          -2.5883   -1.5360   -0.9005 C.ar    1  LIG1       -0.0257
      3 C          -2.0233   -0.3490   -0.4578 C.ar    1  LIG1       -0.0570
      4 C          -2.8422    0.7404   -0.2104 C.ar    1  LIG1       -0.0325
      5 C          -4.2194    0.6028   -0.4200 C.ar    1  LIG1        0.1088
      6 N          -4.7753   -0.5336   -0.8444 N.ar    1  LIG1       -0.2332
      7 H          -0.9527   -0.2728   -0.3043 H       1  LIG1        0.0619
      8 H          -1.9897   -2.4145   -1.1075 H       1  LIG1        0.0646
      9 N          -5.0630   -3.7745   -1.9144 N.1     1  LIG1       -0.1893
     10 C          -4.5992   -2.7853   -1.5389 C.1     1  LIG1        0.1191
     11 H          -2.4215    1.6748    0.1387 H       1  LIG1        0.0640
     12 C          -5.1437    1.7142   -0.1818 C.ar    1  LIG1        0.1731
     13 C          -4.9583    3.0448    0.1238 C.ar    1  LIG1        0.1203
     14 C          -6.2597    3.6449    0.2292 C.ar    1  LIG1        0.0924
     15 C          -7.1443    2.6186   -0.0330 C.ar    1  LIG1        0.1938
     16 O          -6.4472    1.4603   -0.2786 O.2     1  LIG1       -0.4469
     17 N          -2.7777    4.3708    0.4640 N.1     1  LIG1       -0.1907
     18 C          -3.7456    3.7540    0.3074 C.1     1  LIG1        0.1049
     19 N          -6.4766    4.9397    0.5983 N.pl3   1  LIG1       -0.3539
     20 H          -5.6680    5.5429    0.5990 H       1  LIG1        0.1425
     21 H          -7.3370    5.3947    0.3293 H       1  LIG1        0.1425
     22 C          -8.5713    2.5014   -0.0510 C.ar    1  LIG1        0.1916
     23 C          -9.5991    3.4167   -0.1622 C.ar    1  LIG1        0.1218
     24 C         -10.8265    2.6734   -0.0824 C.ar    1  LIG1        0.0894
     25 C         -10.4647    1.3625    0.0674 C.ar    1  LIG1        0.1592
     26 O          -9.0868    1.2744    0.0780 O.2     1  LIG1       -0.4484
     27 N          -9.3879    5.9431   -0.5955 N.1     1  LIG1       -0.1907
     28 C          -9.4872    4.8041   -0.3980 C.1     1  LIG1        0.1050
     29 N         -12.0943    3.2253   -0.1381 N.pl3   1  LIG1       -0.3540
     30 H         -12.1208    4.1683   -0.5012 H       1  LIG1        0.1425
     31 H         -12.7922    2.6373   -0.5723 H       1  LIG1        0.1425
     32 C         -10.6038   -1.1145   -0.0641 C.ar    1  LIG1        0.0392
     33 C         -11.2097    0.1258    0.1845 C.ar    1  LIG1        0.0407
     34 C         -12.5530    0.1093    0.5480 C.ar    1  LIG1       -0.0059
     35 C         -13.2446   -1.0952    0.6273 C.ar    1  LIG1        0.1435
     36 C         -12.5527   -2.2918    0.3541 C.ar    1  LIG1        0.1157
     37 N         -11.2546   -2.2606    0.0199 N.ar    1  LIG1       -0.2505
     38 H         -13.0902    1.0132    0.8103 H       1  LIG1        0.0662
     39 H          -9.5558   -1.1655   -0.3437 H       1  LIG1        0.0837
     40 O         -14.5615   -1.0175    0.9180 O.3     1  LIG1       -0.5046
     41 H         -14.8237   -1.8083    1.4262 H       1  LIG1        0.2922
     42 C         -14.1497   -4.1246    1.1816 C.ar    1  LIG1        0.1267
     43 C         -14.6626   -5.4064    1.0547 C.ar    1  LIG1       -0.0115
     44 C         -13.1731   -3.6457    0.3064 C.ar    1  LIG1        0.0456
     45 C         -14.2067   -6.2757    0.0646 C.ar    1  LIG1       -0.0097
     46 H         -15.4249   -5.7499    1.7497 H       1  LIG1        0.0660
     47 C         -12.7270   -4.5365   -0.6744 C.ar    1  LIG1       -0.0454
     48 C         -13.2133   -5.8305   -0.8242 C.ar    1  LIG1       -0.0418
     49 H         -11.9529   -4.1793   -1.3439 H       1  LIG1        0.0628
     50 O         -14.5835   -3.3022    2.2015 O.3     1  LIG1       -0.5061
     51 H         -15.2335   -3.7672    2.7421 H       1  LIG1        0.2922
     52 C         -12.6771   -6.7067   -1.9278 C.3     1  LIG1       -0.0391
     53 H         -12.1684   -6.1040   -2.6828 H       1  LIG1        0.0278
     54 H         -13.4732   -7.2731   -2.4163 H       1  LIG1        0.0278
     55 H         -11.9543   -7.4365   -1.5509 H       1  LIG1        0.0278
     56 C         -16.1459   -7.8441   -0.3188 C.ar    1  LIG1        0.0330
     57 C         -16.6486   -9.1463   -0.3655 C.ar    1  LIG1       -0.0315
     58 C         -14.7855   -7.6474   -0.0102 C.ar    1  LIG1        0.0043
     59 C         -15.8556  -10.2592   -0.1176 C.ar    1  LIG1        0.0028
     60 H         -17.6952   -9.2937   -0.6093 H       1  LIG1        0.0643
     61 C         -13.9946   -8.7614    0.2329 C.ar    1  LIG1       -0.0363
     62 C         -14.4926  -10.0669    0.1872 C.ar    1  LIG1        0.0332
     63 H         -12.9465   -8.6181    0.4720 H       1  LIG1        0.0637
     64 N         -16.9954   -6.7672   -0.5318 N.pl3   1  LIG1       -0.3575
     65 H         -16.5468   -5.9075   -0.8119 H       1  LIG1        0.1423
     66 H         -17.8268   -6.9739   -1.0647 H       1  LIG1        0.1423
     67 C         -13.5903  -11.1531    0.4236 C.1     1  LIG1       -0.0690
     68 C         -12.7972  -12.0371    0.6241 C.1     1  LIG1       -0.1139
     69 H         -12.1069  -12.8295    0.7993 H       1  LIG1        0.1232
     70 C         -17.2121  -12.0625   -1.2515 C.ar    1  LIG1        0.1253
     71 C         -17.7644  -13.3364   -1.2546 C.ar    1  LIG1       -0.0077
     72 C         -16.4639  -11.6147   -0.1520 C.ar    1  LIG1        0.0260
     73 C         -17.6195  -14.2013   -0.1711 C.ar    1  LIG1        0.0361
     74 H         -18.3022  -13.6809   -2.1335 H       1  LIG1        0.0662
     75 C         -16.3215  -12.4854    0.9214 C.ar    1  LIG1       -0.0344
     76 C         -16.8860  -13.7650    0.9482 C.ar    1  LIG1        0.0361
     77 H         -15.7566  -12.1591    1.7857 H       1  LIG1        0.0637
     78 O         -17.3588  -11.2286   -2.3156 O.3     1  LIG1       -0.5061
     79 H         -17.8337  -11.6907   -3.0165 H       1  LIG1        0.2922
     80 C         -16.7266  -14.5490    2.1355 C.1     1  LIG1       -0.0689
     81 C         -16.5739  -15.1509    3.1665 C.1     1  LIG1       -0.1139
     82 H         -16.4433  -15.6997    4.0702 H       1  LIG1        0.1232
     83 C         -18.2655  -15.5108   -0.2506 C.ar    1  LIG1        0.1373
     84 C         -19.4192  -15.9177   -0.8454 C.ar    1  LIG1       -0.0004
     85 C         -19.5228  -17.3306   -0.6174 C.ar    1  LIG1        0.0629
     86 C         -18.4138  -17.6647    0.1022 C.ar    1  LIG1        0.1079
     87 O         -17.6499  -16.5794    0.3278 O.2     1  LIG1       -0.4616
     88 H         -18.0571  -18.5998    0.5026 H       1  LIG1        0.1042
     89 H         -20.1362  -15.2980   -1.3612 H       1  LIG1        0.0668
     90 C         -20.5610  -18.2048   -1.0416 C.1     1  LIG1       -0.0665
     91 C         -21.4433  -18.9382   -1.4050 C.1     1  LIG1       -0.1138
     92 H         -22.2231  -19.5903   -1.7242 H       1  LIG1        0.1232
@<TRIPOS>BOND
     1    79    78    1
     2    53    52    1
     3    54    52    1
     4    78    70    1
     5    74    71    1
     6    52    55    1
     7    52    48    1
     8     9    10    3
     9    92    91    1
    10    10     1    1
    11    91    90    3
    12    89    84    1
    13    49    47    1
    14    71    70   ar
    15    71    73   ar
    16    70    72   ar
    17     8     2    1
    18     1     2   ar
    19     1     6   ar
    20    66    64    1
    21    90    85    1
    22     2     3   ar
    23    84    85   ar
    24    84    83   ar
    25     6     5   ar
    26    48    47   ar
    27    48    45   ar
    28    65    64    1
    29    47    44   ar
    30    85    86   ar
    31    60    57    1
    32    27    28    3
    33    31    29    1
    34    64    56    1
    35    30    29    1
    36     3     7    1
    37     3     4   ar
    38     5     4   ar
    39     5    12    1
    40    28    23    1
    41    57    56   ar
    42    57    59   ar
    43    39    32    1
    44    56    58   ar
    45    16    12   ar
    46    16    15   ar
    47    83    73    1
    48    83    87   ar
    49     4    11    1
    50    12    13   ar
    51    73    76   ar
    52    23    24   ar
    53    23    22   ar
    54    72    59    1
    55    72    75   ar
    56    29    24    1
    57    59    62   ar
    58    24    25   ar
    59    32    37   ar
    60    32    33   ar
    61    22    15    1
    62    22    26   ar
    63    15    14   ar
    64    58    45    1
    65    58    61   ar
    66    37    36   ar
    67    45    43   ar
    68    25    26   ar
    69    25    33    1
    70    86    87   ar
    71    86    88    1
    72    13    14   ar
    73    13    18    1
    74    33    34   ar
    75    62    61   ar
    76    62    67    1
    77    14    19    1
    78    61    63    1
    79    44    36    1
    80    44    42   ar
    81    18    17    3
    82    21    19    1
    83    36    35   ar
    84    67    68    3
    85    34    35   ar
    86    34    38    1
    87    19    20    1
    88    68    69    1
    89    35    40    1
    90    40    41    1
    91    75    76   ar
    92    75    77    1
    93    76    80    1
    94    43    42   ar
    95    43    46    1
    96    42    50    1
    97    80    81    3
    98    50    51    1
    99    81    82    1
