@<TRIPOS>MOLECULE
mol_data/opt/cam/geoms/mol2/6da6da-6da-6da-.out
 42 45 0 0 0
SMALL
GASTEIGER

@<TRIPOS>ATOM
      1 C          -4.5234   -2.2169    0.2312 C.ar    1  LIG1        0.1407
      2 C          -3.1545   -2.3606    0.0158 C.ar    1  LIG1       -0.0257
      3 C          -2.4194   -1.2094   -0.2215 C.ar    1  LIG1       -0.0570
      4 C          -3.0660    0.0168   -0.2485 C.ar    1  LIG1       -0.0355
      5 C          -4.4488    0.0556   -0.0458 C.ar    1  LIG1        0.0752
      6 N          -5.1592   -1.0469    0.2047 N.ar    1  LIG1       -0.2363
      7 H          -1.3479   -1.2635   -0.3785 H       1  LIG1        0.0619
      8 H          -2.6946   -3.3407    0.0447 H       1  LIG1        0.0646
      9 N          -5.9580   -4.3286    0.7265 N.1     1  LIG1       -0.1893
     10 C          -5.3333   -3.3820    0.5060 C.1     1  LIG1        0.1191
     11 H          -2.5024    0.9241   -0.4181 H       1  LIG1        0.0639
     12 C          -4.9618    2.4475   -0.8208 C.ar    1  LIG1        0.1498
     13 C          -5.2377    1.3168   -0.0370 C.ar    1  LIG1        0.0363
     14 C          -6.3611    1.3996    0.7891 C.ar    1  LIG1       -0.0478
     15 C          -7.1105    2.5583    0.8310 C.ar    1  LIG1       -0.0349
     16 C          -6.7282    3.6363    0.0281 C.ar    1  LIG1        0.0752
     17 N          -5.6809    3.5702   -0.7874 N.ar    1  LIG1       -0.2356
     18 H          -6.6235    0.5395    1.3929 H       1  LIG1        0.0626
     19 N          -3.0288    2.4719   -2.5619 N.1     1  LIG1       -0.1893
     20 C          -3.8847    2.4651   -1.7857 C.1     1  LIG1        0.1198
     21 H          -7.9657    2.6403    1.4920 H       1  LIG1        0.0639
     22 C          -6.8592    6.1620    0.0977 C.ar    1  LIG1        0.1498
     23 C          -7.4893    4.9091    0.0318 C.ar    1  LIG1        0.0363
     24 C          -8.8804    4.9117   -0.0352 C.ar    1  LIG1       -0.0478
     25 C          -9.5705    6.1108   -0.0574 C.ar    1  LIG1       -0.0349
     26 C          -8.8454    7.3025   -0.0056 C.ar    1  LIG1        0.0752
     27 N          -7.5165    7.3193    0.0799 N.ar    1  LIG1       -0.2356
     28 H          -9.4176    3.9704   -0.0867 H       1  LIG1        0.0626
     29 N          -4.2841    6.3857    0.3846 N.1     1  LIG1       -0.1893
     30 C          -5.4242    6.2741    0.2382 C.1     1  LIG1        0.1198
     31 H         -10.6533    6.1277   -0.1015 H       1  LIG1        0.0639
     32 C          -9.2058    9.6629    0.8299 C.ar    1  LIG1        0.1491
     33 C          -9.5269    8.6194   -0.0524 C.ar    1  LIG1        0.0362
     34 C         -10.5210    8.8744   -0.9947 C.ar    1  LIG1       -0.0484
     35 C         -11.1233   10.1208   -1.0386 C.ar    1  LIG1       -0.0429
     36 C         -10.7120   11.0860   -0.1265 C.ar    1  LIG1        0.0291
     37 N          -9.7818   10.8656    0.7960 N.ar    1  LIG1       -0.2440
     38 H         -10.7985    8.1019   -1.7045 H       1  LIG1        0.0625
     39 H         -11.1516   12.0797   -0.1332 H       1  LIG1        0.0830
     40 N          -7.5333    9.3356    2.7946 N.1     1  LIG1       -0.1893
     41 C          -8.2518    9.4730    1.9007 C.1     1  LIG1        0.1198
     42 H         -11.8903   10.3473   -1.7701 H       1  LIG1        0.0633
@<TRIPOS>BOND
     1    19    20    3
     2    20    12    1
     3    42    35    1
     4    38    34    1
     5    35    34   ar
     6    35    36   ar
     7    34    33   ar
     8    12    17   ar
     9    12    13   ar
    10    17    16   ar
    11    11     4    1
    12     7     3    1
    13     4     3   ar
    14     4     5   ar
    15     3     2   ar
    16    39    36    1
    17    36    37   ar
    18    31    25    1
    19    28    24    1
    20    25    24   ar
    21    25    26   ar
    22    33    26    1
    23    33    32   ar
    24     5    13    1
    25     5     6   ar
    26    13    14   ar
    27    24    23   ar
    28    26    27   ar
    29     2     8    1
    30     2     1   ar
    31    16    23    1
    32    16    15   ar
    33    23    22   ar
    34    27    22   ar
    35    22    30    1
    36     6     1   ar
    37     1    10    1
    38    30    29    3
    39    10     9    3
    40    14    15   ar
    41    14    18    1
    42    37    32   ar
    43    32    41    1
    44    15    21    1
    45    41    40    3
