@<TRIPOS>MOLECULE
mol_data/opt/cam/geoms/mol2/6da6da-6da6da-.out
 42 45 0 0 0
SMALL
GASTEIGER

@<TRIPOS>ATOM
      1 C          -4.4274   -2.2630   -0.0004 C.ar    1  LIG1        0.1407
      2 C          -3.0389   -2.3774   -0.0005 C.ar    1  LIG1       -0.0257
      3 C          -2.3091   -1.2006   -0.0005 C.ar    1  LIG1       -0.0570
      4 C          -2.9707    0.0190   -0.0004 C.ar    1  LIG1       -0.0355
      5 C          -4.3699    0.0360   -0.0003 C.ar    1  LIG1        0.0752
      6 N          -5.0726   -1.1015   -0.0003 N.ar    1  LIG1       -0.2363
      7 H          -1.2250   -1.2258   -0.0005 H       1  LIG1        0.0619
      8 H          -2.5657   -3.3516   -0.0006 H       1  LIG1        0.0646
      9 N          -5.8753   -4.4235   -0.0005 N.1     1  LIG1       -0.1893
     10 C          -5.2460   -3.4547   -0.0005 C.1     1  LIG1        0.1191
     11 H          -2.3933    0.9307   -0.0003 H       1  LIG1        0.0639
     12 C          -4.7639    2.6048   -0.0000 C.ar    1  LIG1        0.1498
     13 C          -5.2114    1.2719   -0.0002 C.ar    1  LIG1        0.0363
     14 C          -6.6017    1.1242   -0.0002 C.ar    1  LIG1       -0.0478
     15 C          -7.4471    2.2158   -0.0001 C.ar    1  LIG1       -0.0349
     16 C          -6.8972    3.5017    0.0000 C.ar    1  LIG1        0.0752
     17 N          -5.5740    3.6612    0.0001 N.ar    1  LIG1       -0.2356
     18 H          -7.0062    0.1206   -0.0003 H       1  LIG1        0.0626
     19 N          -2.2671    3.3378    0.0001 N.1     1  LIG1       -0.1893
     20 C          -3.3703    2.9930    0.0001 C.1     1  LIG1        0.1198
     21 H          -8.5136    2.0500   -0.0001 H       1  LIG1        0.0639
     22 C          -9.0699    4.9185    0.0002 C.ar    1  LIG1        0.1498
     23 C          -7.6715    4.7776    0.0002 C.ar    1  LIG1        0.0363
     24 C          -6.9640    5.9836    0.0003 C.ar    1  LIG1       -0.0478
     25 C          -7.6109    7.2033    0.0004 C.ar    1  LIG1       -0.0349
     26 C          -9.0096    7.2329    0.0004 C.ar    1  LIG1        0.0752
     27 N          -9.6987    6.0918    0.0003 N.ar    1  LIG1       -0.2356
     28 H          -5.8827    5.9401    0.0003 H       1  LIG1        0.0626
     29 N         -10.7675    2.9466   -0.0000 N.1     1  LIG1       -0.1893
     30 C          -9.9969    3.8081    0.0000 C.1     1  LIG1        0.1198
     31 H          -7.0208    8.1068    0.0005 H       1  LIG1        0.0639
     32 C          -9.4023    9.7973    0.0003 C.ar    1  LIG1        0.1491
     33 C          -9.8557    8.4656    0.0005 C.ar    1  LIG1        0.0362
     34 C         -11.2470    8.3020    0.0008 C.ar    1  LIG1       -0.0484
     35 C         -12.0855    9.3986    0.0010 C.ar    1  LIG1       -0.0429
     36 C         -11.5182   10.6683    0.0008 C.ar    1  LIG1        0.0291
     37 N         -10.2084   10.8655    0.0005 N.ar    1  LIG1       -0.2440
     38 H         -11.6409    7.2941    0.0010 H       1  LIG1        0.0625
     39 H         -12.1377   11.5610    0.0009 H       1  LIG1        0.0830
     40 N          -6.8988   10.5060   -0.0004 N.1     1  LIG1       -0.1893
     41 C          -8.0060   10.1737   -0.0001 C.1     1  LIG1        0.1198
     42 H         -13.1624    9.2756    0.0012 H       1  LIG1        0.0633
@<TRIPOS>BOND
     1     8     2    1
     2     7     3    1
     3     9    10    3
     4     2     3   ar
     5     2     1   ar
     6    10     1    1
     7     3     4   ar
     8     1     6   ar
     9    40    41    3
    10     4    11    1
    11     4     5   ar
    12     6     5   ar
    13    18    14    1
    14     5    13    1
    15    14    13   ar
    16    14    15   ar
    17    13    12   ar
    18    21    15    1
    19    15    16   ar
    20    41    32    1
    21    29    30    3
    22    12    20    1
    23    12    17   ar
    24    16    17   ar
    25    16    23    1
    26    30    22    1
    27    20    19    3
    28    23    22   ar
    29    23    24   ar
    30    22    27   ar
    31    27    26   ar
    32    24    28    1
    33    24    25   ar
    34    32    37   ar
    35    32    33   ar
    36    26    25   ar
    37    26    33    1
    38    25    31    1
    39    37    36   ar
    40    33    34   ar
    41    36    39    1
    42    36    35   ar
    43    34    38    1
    44    34    35   ar
    45    35    42    1
