@<TRIPOS>MOLECULE
mol_data/opt/cam/geoms/mol2/6da6da6da6da.out
 42 45 0 0 0
SMALL
GASTEIGER

@<TRIPOS>ATOM
      1 C          -3.6849   -1.7324   -1.0986 C.ar    1  LIG1        0.1407
      2 C          -2.9232   -2.1900   -0.0246 C.ar    1  LIG1       -0.0257
      3 C          -3.0063   -1.4928    1.1715 C.ar    1  LIG1       -0.0570
      4 C          -3.8324   -0.3821    1.2458 C.ar    1  LIG1       -0.0355
      5 C          -4.5554   -0.0039    0.1114 C.ar    1  LIG1        0.0752
      6 N          -4.4834   -0.6670   -1.0416 N.ar    1  LIG1       -0.2363
      7 H          -2.4393   -1.8170    2.0371 H       1  LIG1        0.0619
      8 H          -2.2936   -3.0643   -0.1352 H       1  LIG1        0.0646
      9 N          -3.5159   -2.9953   -3.3647 N.1     1  LIG1       -0.1893
     10 C          -3.6127   -2.4233   -2.3658 C.1     1  LIG1        0.1191
     11 H          -3.9374    0.1738    2.1704 H       1  LIG1        0.0639
     12 C          -6.7534    1.1568   -0.3693 C.ar    1  LIG1        0.1498
     13 C          -5.4433    1.1856    0.1348 C.ar    1  LIG1        0.0363
     14 C          -5.0016    2.3971    0.6598 C.ar    1  LIG1       -0.0478
     15 C          -5.8342    3.5027    0.6482 C.ar    1  LIG1       -0.0349
     16 C          -7.1145    3.3685    0.1105 C.ar    1  LIG1        0.0752
     17 N          -7.5626    2.2141   -0.3786 N.ar    1  LIG1       -0.2356
     18 H          -3.9970    2.4730    1.0625 H       1  LIG1        0.0626
     19 N          -7.8324   -1.0313   -1.2692 N.1     1  LIG1       -0.1893
     20 C          -7.3347   -0.0635   -0.8830 C.1     1  LIG1        0.1198
     21 H          -5.5070    4.4503    1.0604 H       1  LIG1        0.0639
     22 C          -9.3735    4.4380    0.5016 C.ar    1  LIG1        0.1498
     23 C          -8.0468    4.5213    0.0509 C.ar    1  LIG1        0.0363
     24 C          -7.6369    5.7474   -0.4657 C.ar    1  LIG1       -0.0478
     25 C          -8.5306    6.8018   -0.5370 C.ar    1  LIG1       -0.0349
     26 C          -9.8337    6.6077   -0.0761 C.ar    1  LIG1        0.0752
     27 N         -10.2373    5.4487    0.4411 N.ar    1  LIG1       -0.2356
     28 H          -6.6202    5.8651   -0.8261 H       1  LIG1        0.0626
     29 N         -10.2841    2.2887    1.6475 N.1     1  LIG1       -0.1893
     30 C          -9.8776    3.2315    1.1190 C.1     1  LIG1        0.1198
     31 H          -8.2249    7.7643   -0.9304 H       1  LIG1        0.0639
     32 C         -11.6633    8.0257    0.9425 C.ar    1  LIG1        0.1491
     33 C         -10.8432    7.6928   -0.1468 C.ar    1  LIG1        0.0362
     34 C         -11.0209    8.4271   -1.3173 C.ar    1  LIG1       -0.0484
     35 C         -11.9895    9.4159   -1.3677 C.ar    1  LIG1       -0.0429
     36 C         -12.7580    9.6470   -0.2325 C.ar    1  LIG1        0.0291
     37 N         -12.5970    8.9776    0.9037 N.ar    1  LIG1       -0.2440
     38 H         -10.4157    8.2014   -2.1894 H       1  LIG1        0.0625
     39 H         -13.5349   10.4066   -0.2330 H       1  LIG1        0.0830
     40 N         -11.3491    6.9270    3.2788 N.1     1  LIG1       -0.1893
     41 C         -11.4960    7.3851    2.2287 C.1     1  LIG1        0.1198
     42 H         -12.1555    9.9924   -2.2703 H       1  LIG1        0.0633
@<TRIPOS>BOND
     1     9    10    3
     2    10     1    1
     3    42    35    1
     4    38    34    1
     5    35    34   ar
     6    35    36   ar
     7    34    33   ar
     8    19    20    3
     9     1     6   ar
    10     1     2   ar
    11     6     5   ar
    12    31    25    1
    13    20    12    1
    14    28    24    1
    15    25    24   ar
    16    25    26   ar
    17    24    23   ar
    18    17    12   ar
    19    17    16   ar
    20    12    13   ar
    21    39    36    1
    22    36    37   ar
    23    33    26    1
    24    33    32   ar
    25     8     2    1
    26    26    27   ar
    27     2     3   ar
    28    23    16    1
    29    23    22   ar
    30    16    15   ar
    31     5    13    1
    32     5     4   ar
    33    13    14   ar
    34    27    22   ar
    35    22    30    1
    36    15    14   ar
    37    15    21    1
    38    14    18    1
    39    37    32   ar
    40    32    41    1
    41    30    29    3
    42     3     4   ar
    43     3     7    1
    44     4    11    1
    45    41    40    3
