@<TRIPOS>MOLECULE
mol_data/opt/cam/geoms/mol2/6da6da-6da.out
 32 34 0 0 0
SMALL
GASTEIGER

@<TRIPOS>ATOM
      1 C          -4.4590   -2.1461   -0.0000 C.ar    1  LIG1        0.1407
      2 C          -3.0698   -2.2515   -0.0002 C.ar    1  LIG1       -0.0257
      3 C          -2.3478   -1.0698   -0.0004 C.ar    1  LIG1       -0.0570
      4 C          -3.0176    0.1452   -0.0004 C.ar    1  LIG1       -0.0355
      5 C          -4.4170    0.1533   -0.0002 C.ar    1  LIG1        0.0752
      6 N          -5.1121   -0.9890   -0.0000 N.ar    1  LIG1       -0.2363
      7 H          -1.2636   -1.0878   -0.0006 H       1  LIG1        0.0619
      8 H          -2.5903   -3.2226   -0.0002 H       1  LIG1        0.0646
      9 N          -5.8903   -4.3177    0.0004 N.1     1  LIG1       -0.1893
     10 C          -5.2691   -3.3436    0.0002 C.1     1  LIG1        0.1191
     11 H          -2.4463    1.0607   -0.0006 H       1  LIG1        0.0639
     12 C          -4.8261    2.7189   -0.0002 C.ar    1  LIG1        0.1498
     13 C          -5.2656    1.3840   -0.0002 C.ar    1  LIG1        0.0363
     14 C          -6.6553    1.2298   -0.0002 C.ar    1  LIG1       -0.0478
     15 C          -7.5064    2.3170   -0.0002 C.ar    1  LIG1       -0.0349
     16 C          -6.9645    3.6067   -0.0002 C.ar    1  LIG1        0.0752
     17 N          -5.6419    3.7712   -0.0001 N.ar    1  LIG1       -0.2356
     18 H          -7.0556    0.2244   -0.0002 H       1  LIG1        0.0626
     19 N          -2.3352    3.4723   -0.0000 N.1     1  LIG1       -0.1893
     20 C          -3.4352    3.1169   -0.0001 C.1     1  LIG1        0.1198
     21 H          -8.5717    2.1451   -0.0002 H       1  LIG1        0.0639
     22 C          -9.1466    5.0098   -0.0002 C.ar    1  LIG1        0.1491
     23 C          -7.7458    4.8815   -0.0002 C.ar    1  LIG1        0.0362
     24 C          -7.0300    6.0858   -0.0001 C.ar    1  LIG1       -0.0484
     25 C          -7.6902    7.2980   -0.0001 C.ar    1  LIG1       -0.0429
     26 C          -9.0809    7.2970   -0.0001 C.ar    1  LIG1        0.0291
     27 N          -9.7942    6.1810   -0.0002 N.ar    1  LIG1       -0.2440
     28 H          -5.9491    6.0353   -0.0000 H       1  LIG1        0.0625
     29 H          -9.6440    8.2263   -0.0001 H       1  LIG1        0.0830
     30 N         -10.8139    3.0126   -0.0003 N.1     1  LIG1       -0.1893
     31 C         -10.0591    3.8881   -0.0003 C.1     1  LIG1        0.1198
     32 H          -7.1395    8.2316   -0.0000 H       1  LIG1        0.0633
@<TRIPOS>BOND
     1    11     4    1
     2     7     3    1
     3     4     3   ar
     4     4     5   ar
     5     3     2   ar
     6    30    31    3
     7    31    22    1
     8    18    14    1
     9     2     8    1
    10     2     1   ar
    11     5    13    1
    12     5     6   ar
    13    21    15    1
    14    14    15   ar
    15    14    13   ar
    16    15    16   ar
    17    13    12   ar
    18    22    27   ar
    19    22    23   ar
    20    27    26   ar
    21    16    23    1
    22    16    17   ar
    23    12    17   ar
    24    12    20    1
    25    23    24   ar
    26    26    29    1
    27    26    25   ar
    28    20    19    3
    29    24    25   ar
    30    24    28    1
    31    25    32    1
    32     1     6   ar
    33     1    10    1
    34    10     9    3
