@<TRIPOS>MOLECULE
mol_data/opt/cam/geoms/mol2/6da6da6da.out
 32 34 0 0 0
SMALL
GASTEIGER

@<TRIPOS>ATOM
      1 C          -4.1163   -1.9375   -0.8307 C.ar    1  LIG1        0.1407
      2 C          -3.0356   -2.1464    0.0245 C.ar    1  LIG1       -0.0257
      3 C          -2.7445   -1.1579    0.9528 C.ar    1  LIG1       -0.0570
      4 C          -3.5308   -0.0168    0.9880 C.ar    1  LIG1       -0.0355
      5 C          -4.5921    0.0980    0.0862 C.ar    1  LIG1        0.0752
      6 N          -4.8805   -0.8459   -0.8084 N.ar    1  LIG1       -0.2363
      7 H          -1.9190   -1.2803    1.6453 H       1  LIG1        0.0619
      8 H          -2.4532   -3.0570   -0.0442 H       1  LIG1        0.0646
      9 N          -4.6578   -3.7568   -2.6072 N.1     1  LIG1       -0.1893
     10 C          -4.4409   -2.9383   -1.8215 C.1     1  LIG1        0.1191
     11 H          -3.3448    0.7659    1.7144 H       1  LIG1        0.0639
     12 C          -6.8558    1.2310    0.0407 C.ar    1  LIG1        0.1498
     13 C          -5.4544    1.3062    0.0740 C.ar    1  LIG1        0.0363
     14 C          -4.8975    2.5823    0.0888 C.ar    1  LIG1       -0.0478
     15 C          -5.7168    3.6969    0.0492 C.ar    1  LIG1       -0.0349
     16 C          -7.0991    3.5105    0.0008 C.ar    1  LIG1        0.0752
     17 N          -7.6507    2.2984    0.0065 N.ar    1  LIG1       -0.2356
     18 H          -3.8188    2.6966    0.1150 H       1  LIG1        0.0626
     19 N          -8.1098   -1.0441    0.1574 N.1     1  LIG1       -0.1893
     20 C          -7.5407   -0.0418    0.0873 C.1     1  LIG1        0.1198
     21 H          -5.2973    4.6961    0.0679 H       1  LIG1        0.0639
     22 C          -9.1641    4.7651    0.7491 C.ar    1  LIG1        0.1491
     23 C          -8.0280    4.6653   -0.0691 C.ar    1  LIG1        0.0362
     24 C          -7.8064    5.7052   -0.9692 C.ar    1  LIG1       -0.0484
     25 C          -8.7030    6.7587   -1.0369 C.ar    1  LIG1       -0.0429
     26 C          -9.8057    6.7435   -0.1904 C.ar    1  LIG1        0.0291
     27 N         -10.0319    5.7768    0.6922 N.ar    1  LIG1       -0.2440
     28 H          -6.9455    5.6692   -1.6289 H       1  LIG1        0.0625
     29 H         -10.5383    7.5454   -0.2183 H       1  LIG1        0.0830
     30 N          -9.6492    3.0456    2.6391 N.1     1  LIG1       -0.1893
     31 C          -9.4357    3.7845    1.7774 C.1     1  LIG1        0.1198
     32 H          -8.5591    7.5732   -1.7373 H       1  LIG1        0.0633
@<TRIPOS>BOND
     1     9    10    3
     2    10     1    1
     3    32    25    1
     4    28    24    1
     5    25    24   ar
     6    25    26   ar
     7    24    23   ar
     8     1     6   ar
     9     1     2   ar
    10     6     5   ar
    11    29    26    1
    12    26    27   ar
    13    23    16    1
    14    23    22   ar
    15     8     2    1
    16    16    17   ar
    17    16    15   ar
    18    17    12   ar
    19     2     3   ar
    20    12    13   ar
    21    12    20    1
    22    15    21    1
    23    15    14   ar
    24    13     5    1
    25    13    14   ar
    26     5     4   ar
    27    20    19    3
    28    14    18    1
    29    27    22   ar
    30    22    31    1
    31     3     4   ar
    32     3     7    1
    33     4    11    1
    34    31    30    3
