@<TRIPOS>MOLECULE
mol_data/opt/cam/geoms/mol2/6da6da6da-6da.out
 42 45 0 0 0
SMALL
GASTEIGER

@<TRIPOS>ATOM
      1 C          -4.4106   -2.2459   -0.1922 C.ar    1  LIG1        0.1407
      2 C          -3.0261   -2.2769   -0.0339 C.ar    1  LIG1       -0.0257
      3 C          -2.3680   -1.0690    0.1448 C.ar    1  LIG1       -0.0570
      4 C          -3.1066    0.1039    0.1556 C.ar    1  LIG1       -0.0355
      5 C          -4.4918    0.0292   -0.0157 C.ar    1  LIG1        0.0752
      6 N          -5.1328   -1.1260   -0.1861 N.ar    1  LIG1       -0.2363
      7 H          -1.2926   -1.0442    0.2815 H       1  LIG1        0.0619
      8 H          -2.4958   -3.2212   -0.0496 H       1  LIG1        0.0646
      9 N          -5.6651   -4.4935   -0.5570 N.1     1  LIG1       -0.1893
     10 C          -5.1304   -3.4832   -0.3907 C.1     1  LIG1        0.1191
     11 H          -2.6261    1.0624    0.3143 H       1  LIG1        0.0639
     12 C          -6.5591    1.3407    0.6343 C.ar    1  LIG1        0.1498
     13 C          -5.3255    1.2560   -0.0300 C.ar    1  LIG1        0.0363
     14 C          -4.9219    2.3895   -0.7303 C.ar    1  LIG1       -0.0478
     15 C          -5.7174    3.5216   -0.7525 C.ar    1  LIG1       -0.0349
     16 C          -6.9236    3.5069   -0.0494 C.ar    1  LIG1        0.0752
     17 N          -7.3277    2.4267    0.6218 N.ar    1  LIG1       -0.2356
     18 H          -3.9911    2.3738   -1.2871 H       1  LIG1        0.0626
     19 N          -7.4917   -0.5635    2.1395 N.1     1  LIG1       -0.1893
     20 C          -7.0665    0.2552    1.4446 C.1     1  LIG1        0.1198
     21 H          -5.4074    4.3896   -1.3179 H       1  LIG1        0.0639
     22 C          -7.5010    6.0039   -0.0600 C.ar    1  LIG1        0.1498
     23 C          -7.8705    4.6518   -0.0203 C.ar    1  LIG1        0.0363
     24 C          -9.2386    4.3969    0.0921 C.ar    1  LIG1       -0.0478
     25 C         -10.1473    5.4366    0.1091 C.ar    1  LIG1       -0.0349
     26 C          -9.6751    6.7498    0.0126 C.ar    1  LIG1        0.0752
     27 N          -8.3704    7.0140   -0.0449 N.ar    1  LIG1       -0.2356
     28 H          -9.5693    3.3688    0.1751 H       1  LIG1        0.0626
     29 N          -5.0119    6.7620   -0.0928 N.1     1  LIG1       -0.1893
     30 C          -6.1164    6.4221   -0.0782 C.1     1  LIG1        0.1198
     31 H         -11.2045    5.2278    0.2000 H       1  LIG1        0.0639
     32 C         -11.8469    7.9983   -0.5247 C.ar    1  LIG1        0.1491
     33 C         -10.5584    7.9458    0.0284 C.ar    1  LIG1        0.0362
     34 C         -10.0831    9.1245    0.6090 C.ar    1  LIG1       -0.0484
     35 C         -10.8862   10.2484    0.6455 C.ar    1  LIG1       -0.0429
     36 C         -12.1590   10.1750    0.0865 C.ar    1  LIG1        0.0291
     37 N         -12.6305    9.0809   -0.4958 N.ar    1  LIG1       -0.2440
     38 H          -9.0809    9.1316    1.0203 H       1  LIG1        0.0625
     39 H         -12.8244   11.0338    0.1007 H       1  LIG1        0.0830
     40 N         -12.8904    5.9716   -1.7796 N.1     1  LIG1       -0.1893
     41 C         -12.4256    6.8711   -1.2223 C.1     1  LIG1        0.1198
     42 H         -10.5381   11.1694    1.0987 H       1  LIG1        0.0633
@<TRIPOS>BOND
     1    40    41    3
     2    21    15    1
     3    18    14    1
     4    41    32    1
     5    15    14   ar
     6    15    16   ar
     7    14    13   ar
     8     9    10    3
     9    32    37   ar
    10    32    33   ar
    11    37    36   ar
    12    10     1    1
    13     1     6   ar
    14     1     2   ar
    15     6     5   ar
    16    29    30    3
    17    30    22    1
    18    22    27   ar
    19    22    23   ar
    20     8     2    1
    21    16    23    1
    22    16    17   ar
    23    27    26   ar
    24     2     3   ar
    25    13     5    1
    26    13    12   ar
    27    23    24   ar
    28     5     4   ar
    29    26    33    1
    30    26    25   ar
    31    33    34   ar
    32    36    39    1
    33    36    35   ar
    34    24    25   ar
    35    24    28    1
    36    25    31    1
    37     3     4   ar
    38     3     7    1
    39     4    11    1
    40    34    35   ar
    41    34    38    1
    42    17    12   ar
    43    12    20    1
    44    35    42    1
    45    20    19    3
