@<TRIPOS>MOLECULE
mol_data/opt/cam/geoms/mol2/6da6da-.out
 22 23 0 0 0
SMALL
GASTEIGER

@<TRIPOS>ATOM
      1 C          -4.5619   -2.0581    0.0001 C.ar    1  LIG1        0.1407
      2 C          -3.1738   -2.1698   -0.0001 C.ar    1  LIG1       -0.0257
      3 C          -2.4480   -0.9903   -0.0003 C.ar    1  LIG1       -0.0570
      4 C          -3.1128    0.2273   -0.0004 C.ar    1  LIG1       -0.0355
      5 C          -4.5125    0.2425   -0.0002 C.ar    1  LIG1        0.0752
      6 N          -5.2104   -0.8981   -0.0000 N.ar    1  LIG1       -0.2363
      7 H          -1.3638   -1.0118   -0.0005 H       1  LIG1        0.0619
      8 H          -2.6979   -3.1427    0.0000 H       1  LIG1        0.0646
      9 N          -6.0098   -4.2190    0.0005 N.1     1  LIG1       -0.1893
     10 C          -5.3793   -3.2508    0.0003 C.1     1  LIG1        0.1191
     11 H          -2.5376    1.1401   -0.0006 H       1  LIG1        0.0639
     12 C          -4.9093    2.8107   -0.0002 C.ar    1  LIG1        0.1491
     13 C          -5.3592    1.4780   -0.0003 C.ar    1  LIG1        0.0362
     14 C          -6.7504    1.3131   -0.0005 C.ar    1  LIG1       -0.0484
     15 C          -7.5909    2.4081   -0.0005 C.ar    1  LIG1       -0.0429
     16 C          -7.0265    3.6791   -0.0005 C.ar    1  LIG1        0.0291
     17 N          -5.7172    3.8781   -0.0003 N.ar    1  LIG1       -0.2440
     18 H          -7.1423    0.3045   -0.0005 H       1  LIG1        0.0625
     19 H          -7.6476    4.5706   -0.0005 H       1  LIG1        0.0830
     20 N          -2.4084    3.5294    0.0002 N.1     1  LIG1       -0.1893
     21 C          -3.5144    3.1928   -0.0000 C.1     1  LIG1        0.1198
     22 H          -8.6676    2.2828   -0.0007 H       1  LIG1        0.0633
@<TRIPOS>BOND
     1    22    15    1
     2    11     4    1
     3    15    14   ar
     4    15    16   ar
     5    19    16    1
     6    18    14    1
     7     7     3    1
     8    14    13   ar
     9    16    17   ar
    10     4     3   ar
    11     4     5   ar
    12     3     2   ar
    13    13     5    1
    14    13    12   ar
    15    17    12   ar
    16     5     6   ar
    17    12    21    1
    18     2     8    1
    19     2     1   ar
    20    21    20    3
    21     6     1   ar
    22     1    10    1
    23    10     9    3
