@<TRIPOS>MOLECULE
mol_data/opt/cam/geoms/mol2/6da6da6da6da-.out
 42 45 0 0 0
SMALL
GASTEIGER

@<TRIPOS>ATOM
      1 C          -4.0537   -2.0045   -0.8848 C.ar    1  LIG1        0.1407
      2 C          -2.9793   -2.2367   -0.0275 C.ar    1  LIG1       -0.0257
      3 C          -2.6941   -1.2731    0.9285 C.ar    1  LIG1       -0.0570
      4 C          -3.4795   -0.1324    0.9878 C.ar    1  LIG1       -0.0355
      5 C          -4.5338    0.0070    0.0814 C.ar    1  LIG1        0.0752
      6 N          -4.8167   -0.9130   -0.8394 N.ar    1  LIG1       -0.2363
      7 H          -1.8737   -1.4144    1.6234 H       1  LIG1        0.0619
      8 H          -2.3972   -3.1458   -0.1156 H       1  LIG1        0.0646
      9 N          -4.5868   -3.7775   -2.7099 N.1     1  LIG1       -0.1893
     10 C          -4.3732   -2.9793   -1.9026 C.1     1  LIG1        0.1191
     11 H          -3.2978    0.6308    1.7358 H       1  LIG1        0.0639
     12 C          -6.7960    1.1425    0.0297 C.ar    1  LIG1        0.1498
     13 C          -5.3953    1.2157    0.0932 C.ar    1  LIG1        0.0363
     14 C          -4.8385    2.4904    0.1614 C.ar    1  LIG1       -0.0478
     15 C          -5.6559    3.6069    0.1422 C.ar    1  LIG1       -0.0349
     16 C          -7.0368    3.4225    0.0587 C.ar    1  LIG1        0.0752
     17 N          -7.5890    2.2117    0.0137 N.ar    1  LIG1       -0.2356
     18 H          -3.7606    2.6031    0.2126 H       1  LIG1        0.0626
     19 N          -8.0608   -1.1293    0.0525 N.1     1  LIG1       -0.1893
     20 C          -7.4844   -0.1291    0.0232 C.1     1  LIG1        0.1198
     21 H          -5.2359    4.6042    0.2027 H       1  LIG1        0.0639
     22 C          -9.1477    4.6320    0.7576 C.ar    1  LIG1        0.1498
     23 C          -7.9640    4.5779    0.0062 C.ar    1  LIG1        0.0363
     24 C          -7.7056    5.6689   -0.8190 C.ar    1  LIG1       -0.0478
     25 C          -8.5911    6.7306   -0.8761 C.ar    1  LIG1       -0.0349
     26 C          -9.7381    6.6924   -0.0800 C.ar    1  LIG1        0.0752
     27 N         -10.0009    5.6518    0.7135 N.ar    1  LIG1       -0.2356
     28 H          -6.8191    5.6714   -1.4445 H       1  LIG1        0.0626
     29 N          -9.7960    2.8085    2.4946 N.1     1  LIG1       -0.1893
     30 C          -9.4999    3.5911    1.6984 C.1     1  LIG1        0.1198
     31 H          -8.3944    7.5631   -1.5372 H       1  LIG1        0.0639
     32 C         -10.5243    9.1262   -0.2746 C.ar    1  LIG1        0.1491
     33 C         -10.7741    7.7598   -0.0752 C.ar    1  LIG1        0.0362
     34 C         -12.1023    7.4016    0.1708 C.ar    1  LIG1       -0.0484
     35 C         -13.0888    8.3691    0.1745 C.ar    1  LIG1       -0.0429
     36 C         -12.7249    9.6920   -0.0608 C.ar    1  LIG1        0.0291
     37 N         -11.4714   10.0697   -0.2715 N.ar    1  LIG1       -0.2440
     38 H         -12.3308    6.3597    0.3601 H       1  LIG1        0.0625
     39 H         -13.4708   10.4819   -0.0728 H       1  LIG1        0.0830
     40 N          -8.1157   10.0494   -0.6194 N.1     1  LIG1       -0.1893
     41 C          -9.1853    9.6397   -0.4644 C.1     1  LIG1        0.1198
     42 H         -14.1253    8.1090    0.3561 H       1  LIG1        0.0633
@<TRIPOS>BOND
     1     9    10    3
     2    10     1    1
     3    31    25    1
     4    28    24    1
     5     1     6   ar
     6     1     2   ar
     7    25    24   ar
     8    25    26   ar
     9     6     5   ar
    10    24    23   ar
    11    40    41    3
    12    41    32    1
    13    32    37   ar
    14    32    33   ar
    15    37    36   ar
    16     8     2    1
    17    26    33    1
    18    26    27   ar
    19    33    34   ar
    20    39    36    1
    21    36    35   ar
    22     2     3   ar
    23    23    16    1
    24    23    22   ar
    25    17    12   ar
    26    17    16   ar
    27    20    12    1
    28    20    19    3
    29    12    13   ar
    30    16    15   ar
    31     5    13    1
    32     5     4   ar
    33    13    14   ar
    34    15    14   ar
    35    15    21    1
    36    14    18    1
    37    34    35   ar
    38    34    38    1
    39    35    42    1
    40    27    22   ar
    41    22    30    1
    42     3     4   ar
    43     3     7    1
    44     4    11    1
    45    30    29    3
