@<TRIPOS>MOLECULE
mol_data/opt/cam/geoms/mol2/6da6da-4da6da.out
 43 46 0 0 0
SMALL
GASTEIGER

@<TRIPOS>ATOM
      1 C          -4.4483   -2.2080   -0.2666 C.ar    1  LIG1        0.1407
      2 C          -3.0873   -2.3335    0.0031 C.ar    1  LIG1       -0.0257
      3 C          -2.3854   -1.1765    0.3041 C.ar    1  LIG1       -0.0570
      4 C          -3.0506    0.0399    0.3115 C.ar    1  LIG1       -0.0355
      5 C          -4.4140    0.0667    0.0020 C.ar    1  LIG1        0.0752
      6 N          -5.1002   -1.0467   -0.2675 N.ar    1  LIG1       -0.2363
      7 H          -1.3276   -1.2201    0.5383 H       1  LIG1        0.0619
      8 H          -2.6114   -3.3062   -0.0168 H       1  LIG1        0.0646
      9 N          -5.8349   -4.3437   -0.7951 N.1     1  LIG1       -0.1893
     10 C          -5.2319   -3.3858   -0.5636 C.1     1  LIG1        0.1191
     11 H          -2.5180    0.9480    0.5584 H       1  LIG1        0.0639
     12 C          -4.7535    2.5842   -0.3622 C.ar    1  LIG1        0.1498
     13 C          -5.2261    1.3131   -0.0034 C.ar    1  LIG1        0.0363
     14 C          -6.5757    1.2370    0.3501 C.ar    1  LIG1       -0.0478
     15 C          -7.3574    2.3743    0.3657 C.ar    1  LIG1       -0.0350
     16 C          -6.7778    3.5970    0.0122 C.ar    1  LIG1        0.0737
     17 N          -5.5026    3.6876   -0.3523 N.ar    1  LIG1       -0.2356
     18 H          -6.9875    0.2703    0.6131 H       1  LIG1        0.0626
     19 N          -2.3226    2.9604   -1.2103 N.1     1  LIG1       -0.1893
     20 C          -3.4014    2.7953   -0.8304 C.1     1  LIG1        0.1198
     21 H          -8.3966    2.3261    0.6690 H       1  LIG1        0.0639
     22 C          -7.0302    6.0627    0.4898 C.ar    1  LIG1        0.0615
     23 C          -7.7933    7.2294    0.4586 C.ar    1  LIG1       -0.0359
     24 C          -7.5643    4.8548    0.0099 C.ar    1  LIG1        0.0178
     25 C          -9.0920    7.2291   -0.0470 C.ar    1  LIG1       -0.0139
     26 H          -7.3670    8.1412    0.8616 H       1  LIG1        0.0637
     27 C          -8.8658    4.8643   -0.4869 C.ar    1  LIG1       -0.0508
     28 C          -9.6198    6.0270   -0.5211 C.ar    1  LIG1       -0.0532
     29 H          -9.2880    3.9479   -0.8841 H       1  LIG1        0.0625
     30 N          -4.7063    6.2875    1.6149 N.1     1  LIG1       -0.1908
     31 C          -5.7246    6.1448    1.0864 C.1     1  LIG1        0.0998
     32 H         -10.6208    5.9978   -0.9345 H       1  LIG1        0.0624
     33 C         -11.1915    8.6092    0.3416 C.ar    1  LIG1        0.1477
     34 C          -9.8607    8.4965   -0.0925 C.ar    1  LIG1        0.0180
     35 C          -9.2674    9.6666   -0.5716 C.ar    1  LIG1       -0.0499
     36 C          -9.9907   10.8457   -0.6076 C.ar    1  LIG1       -0.0429
     37 C         -11.3084   10.8311   -0.1610 C.ar    1  LIG1        0.0291
     38 N         -11.9005    9.7402    0.3077 N.ar    1  LIG1       -0.2440
     39 H          -8.2441    9.6364   -0.9306 H       1  LIG1        0.0625
     40 H         -11.9124   11.7340   -0.1790 H       1  LIG1        0.0830
     41 N         -12.4514    6.5602    1.3352 N.1     1  LIG1       -0.1893
     42 C         -11.8916    7.4709    0.8963 C.1     1  LIG1        0.1197
     43 H          -9.5481   11.7616   -0.9819 H       1  LIG1        0.0633
@<TRIPOS>BOND
     1    19    20    3
     2    43    36    1
     3    32    28    1
     4    39    35    1
     5    29    27    1
     6    20    12    1
     7     9    10    3
     8    36    35   ar
     9    36    37   ar
    10    35    34   ar
    11    10     1    1
    12    28    27   ar
    13    28    25   ar
    14    27    24   ar
    15    12    17   ar
    16    12    13   ar
    17    17    16   ar
    18     6     1   ar
    19     6     5   ar
    20     1     2   ar
    21    40    37    1
    22    37    38   ar
    23    34    25    1
    24    34    33   ar
    25    25    23   ar
    26     8     2    1
    27    13     5    1
    28    13    14   ar
    29     5     4   ar
    30     2     3   ar
    31    24    16    1
    32    24    22   ar
    33    16    15   ar
    34     3     4   ar
    35     3     7    1
    36    38    33   ar
    37     4    11    1
    38    33    42    1
    39    14    15   ar
    40    14    18    1
    41    15    21    1
    42    23    22   ar
    43    23    26    1
    44    22    31    1
    45    42    41    3
    46    31    30    3
