@<TRIPOS>MOLECULE
mol_data/opt/cam/geoms/mol2/6da6da.out
 22 23 0 0 0
SMALL
GASTEIGER

@<TRIPOS>ATOM
      1 C          -4.4184   -2.0213   -0.4334 C.ar    1  LIG1        0.1407
      2 C          -3.1081   -2.0743    0.0386 C.ar    1  LIG1       -0.0257
      3 C          -2.5503   -0.9031    0.5295 C.ar    1  LIG1       -0.0570
      4 C          -3.3108    0.2557    0.5273 C.ar    1  LIG1       -0.0355
      5 C          -4.6159    0.2063    0.0289 C.ar    1  LIG1        0.0752
      6 N          -5.1602   -0.9143   -0.4434 N.ar    1  LIG1       -0.2363
      7 H          -1.5371   -0.8970    0.9161 H       1  LIG1        0.0619
      8 H          -2.5575   -3.0068    0.0183 H       1  LIG1        0.0646
      9 N          -5.4754   -4.1960   -1.3889 N.1     1  LIG1       -0.1893
     10 C          -5.0298   -3.2188   -0.9635 C.1     1  LIG1        0.1191
     11 H          -2.9131    1.1831    0.9229 H       1  LIG1        0.0639
     12 C          -6.8059    1.4201    0.4008 C.ar    1  LIG1        0.1491
     13 C          -5.4637    1.4241   -0.0104 C.ar    1  LIG1        0.0362
     14 C          -4.9514    2.6345   -0.4728 C.ar    1  LIG1       -0.0484
     15 C          -5.7673    3.7524   -0.5265 C.ar    1  LIG1       -0.0429
     16 C          -7.0873    3.6274   -0.1088 C.ar    1  LIG1        0.0291
     17 N          -7.5989    2.4923    0.3537 N.ar    1  LIG1       -0.2440
     18 H          -3.9217    2.6866   -0.8111 H       1  LIG1        0.0625
     19 H          -7.7637    4.4770   -0.1432 H       1  LIG1        0.0830
     20 N          -7.9189   -0.6686    1.4794 N.1     1  LIG1       -0.1893
     21 C          -7.4149    0.2397    0.9743 C.1     1  LIG1        0.1198
     22 H          -5.3941    4.7017   -0.8929 H       1  LIG1        0.0633
@<TRIPOS>BOND
     1     9    10    3
     2    10     1    1
     3    22    15    1
     4    18    14    1
     5    15    14   ar
     6    15    16   ar
     7    14    13   ar
     8     6     1   ar
     9     6     5   ar
    10     1     2   ar
    11    19    16    1
    12    16    17   ar
    13    13     5    1
    14    13    12   ar
    15     8     2    1
    16     5     4   ar
    17     2     3   ar
    18    17    12   ar
    19    12    21    1
    20     4     3   ar
    21     4    11    1
    22     3     7    1
    23    21    20    3
