@<TRIPOS>MOLECULE
mol_data/opt/cam/geoms/mol2/6da6da-6da-6da.out
 42 45 0 0 0
SMALL
GASTEIGER

@<TRIPOS>ATOM
      1 C          -4.4664   -2.2148    0.1271 C.ar    1  LIG1        0.1407
      2 C          -3.0819   -2.3248    0.0173 C.ar    1  LIG1       -0.0257
      3 C          -2.3533   -1.1505   -0.0912 C.ar    1  LIG1       -0.0570
      4 C          -3.0199    0.0653   -0.1001 C.ar    1  LIG1       -0.0355
      5 C          -4.4153    0.0714   -0.0114 C.ar    1  LIG1        0.0752
      6 N          -5.1209   -1.0552    0.1154 N.ar    1  LIG1       -0.2363
      7 H          -1.2718   -1.1787   -0.1623 H       1  LIG1        0.0619
      8 H          -2.6063   -3.2979    0.0271 H       1  LIG1        0.0646
      9 N          -5.8922   -4.3742    0.3851 N.1     1  LIG1       -0.1893
     10 C          -5.2721   -3.4064    0.2686 C.1     1  LIG1        0.1191
     11 H          -2.4618    0.9888   -0.1700 H       1  LIG1        0.0639
     12 C          -4.9061    2.5051   -0.6681 C.ar    1  LIG1        0.1498
     13 C          -5.2296    1.3167    0.0044 C.ar    1  LIG1        0.0363
     14 C          -6.4302    1.3228    0.7192 C.ar    1  LIG1       -0.0478
     15 C          -7.2084    2.4618    0.7659 C.ar    1  LIG1       -0.0349
     16 C          -6.7779    3.6003    0.0785 C.ar    1  LIG1        0.0752
     17 N          -5.6534    3.6090   -0.6300 N.ar    1  LIG1       -0.2356
     18 H          -6.7296    0.4178    1.2335 H       1  LIG1        0.0626
     19 N          -2.8071    2.6969   -2.1932 N.1     1  LIG1       -0.1893
     20 C          -3.7382    2.6145   -1.5139 C.1     1  LIG1        0.1198
     21 H          -8.1254    2.4796    1.3433 H       1  LIG1        0.0639
     22 C          -6.9667    6.1197    0.2075 C.ar    1  LIG1        0.1498
     23 C          -7.5649    4.8555    0.0888 C.ar    1  LIG1        0.0363
     24 C          -8.9529    4.8393   -0.0201 C.ar    1  LIG1       -0.0478
     25 C          -9.6701    6.0227   -0.0409 C.ar    1  LIG1       -0.0349
     26 C          -8.9751    7.2320    0.0364 C.ar    1  LIG1        0.0752
     27 N          -7.6484    7.2612    0.1818 N.ar    1  LIG1       -0.2356
     28 H          -9.4753    3.8928   -0.1094 H       1  LIG1        0.0626
     29 N          -4.4290    6.4409    0.6769 N.1     1  LIG1       -0.1893
     30 C          -5.5465    6.2724    0.4384 C.1     1  LIG1        0.1198
     31 H         -10.7476    5.9980   -0.1236 H       1  LIG1        0.0639
     32 C         -10.8250    8.8756   -0.6485 C.ar    1  LIG1        0.1491
     33 C          -9.6309    8.5675    0.0220 C.ar    1  LIG1        0.0362
     34 C          -9.0140    9.6213    0.7025 C.ar    1  LIG1       -0.0484
     35 C          -9.5983   10.8732    0.7150 C.ar    1  LIG1       -0.0429
     36 C         -10.7978   11.0545    0.0327 C.ar    1  LIG1        0.0291
     37 N         -11.3975   10.0838   -0.6427 N.ar    1  LIG1       -0.2440
     38 H          -8.0750    9.4304    1.2075 H       1  LIG1        0.0625
     39 H         -11.2936   12.0213    0.0225 H       1  LIG1        0.0830
     40 N         -12.1049    7.1217   -2.0827 N.1     1  LIG1       -0.1893
     41 C         -11.5326    7.9001   -1.4482 C.1     1  LIG1        0.1198
     42 H          -9.1365   11.6996    1.2429 H       1  LIG1        0.0633
@<TRIPOS>BOND
     1    19    20    3
     2    40    41    3
     3    20    12    1
     4    41    32    1
     5    12    17   ar
     6    12    13   ar
     7    32    37   ar
     8    32    33   ar
     9    37    36   ar
    10    17    16   ar
    11    11     4    1
    12     7     3    1
    13    31    25    1
    14    28    24    1
    15     4     3   ar
    16     4     5   ar
    17     3     2   ar
    18    25    24   ar
    19    25    26   ar
    20    24    23   ar
    21     5    13    1
    22     5     6   ar
    23    13    14   ar
    24     2     8    1
    25     2     1   ar
    26    33    26    1
    27    33    34   ar
    28    39    36    1
    29    36    35   ar
    30    26    27   ar
    31    16    23    1
    32    16    15   ar
    33    23    22   ar
    34     6     1   ar
    35     1    10    1
    36    27    22   ar
    37    22    30    1
    38    10     9    3
    39    30    29    3
    40    34    35   ar
    41    34    38    1
    42    35    42    1
    43    14    15   ar
    44    14    18    1
    45    15    21    1
