@<TRIPOS>MOLECULE
mol_data/opt/cam/geoms/mol2/6da6da6da-6da-.out
 42 45 0 0 0
SMALL
GASTEIGER

@<TRIPOS>ATOM
      1 C          -4.3145   -2.1504   -0.5902 C.ar    1  LIG1        0.1407
      2 C          -3.0870   -2.3160    0.0488 C.ar    1  LIG1       -0.0257
      3 C          -2.5771   -1.2391    0.7590 C.ar    1  LIG1       -0.0570
      4 C          -3.3001   -0.0574    0.7997 C.ar    1  LIG1       -0.0355
      5 C          -4.5198    0.0105    0.1201 C.ar    1  LIG1        0.0752
      6 N          -5.0185   -1.0194   -0.5620 N.ar    1  LIG1       -0.2363
      7 H          -1.6302   -1.3238    1.2805 H       1  LIG1        0.0619
      8 H          -2.5617   -3.2612   -0.0140 H       1  LIG1        0.0646
      9 N          -5.2842   -4.1461   -1.9451 N.1     1  LIG1       -0.1893
     10 C          -4.8757   -3.2473   -1.3454 C.1     1  LIG1        0.1191
     11 H          -2.9395    0.7948    1.3639 H       1  LIG1        0.0639
     12 C          -6.7220    1.2526    0.2509 C.ar    1  LIG1        0.1498
     13 C          -5.3249    1.2558    0.1136 C.ar    1  LIG1        0.0363
     14 C          -4.7239    2.5028   -0.0339 C.ar    1  LIG1       -0.0478
     15 C          -5.4908    3.6543   -0.0714 C.ar    1  LIG1       -0.0349
     16 C          -6.8788    3.5386    0.0278 C.ar    1  LIG1        0.0752
     17 N          -7.4666    2.3539    0.2091 N.ar    1  LIG1       -0.2356
     18 H          -3.6465    2.5718   -0.1399 H       1  LIG1        0.0626
     19 N          -8.0954   -0.8894    0.7862 N.1     1  LIG1       -0.1893
     20 C          -7.4626    0.0391    0.5188 C.1     1  LIG1        0.1198
     21 H          -5.0127    4.6175   -0.1821 H       1  LIG1        0.0639
     22 C          -7.5920    5.8985   -0.6920 C.ar    1  LIG1        0.1498
     23 C          -7.8107    4.6972    0.0002 C.ar    1  LIG1        0.0363
     24 C          -9.0202    4.5998    0.6936 C.ar    1  LIG1       -0.0478
     25 C          -9.9058    5.6582    0.7018 C.ar    1  LIG1       -0.0349
     26 C          -9.5748    6.8207   -0.0004 C.ar    1  LIG1        0.0752
     27 N          -8.4433    6.9250   -0.6902 N.ar    1  LIG1       -0.2356
     28 H          -9.2395    3.6801    1.2218 H       1  LIG1        0.0626
     29 N          -5.4937    6.2671   -2.1853 N.1     1  LIG1       -0.1893
     30 C          -6.4252    6.1067   -1.5205 C.1     1  LIG1        0.1198
     31 H         -10.8322    5.5988    1.2614 H       1  LIG1        0.0639
     32 C         -10.0172    9.3064    0.1442 C.ar    1  LIG1        0.1491
     33 C         -10.4828    7.9929   -0.0257 C.ar    1  LIG1        0.0362
     34 C         -11.8520    7.8313   -0.2283 C.ar    1  LIG1       -0.0484
     35 C         -12.6760    8.9433   -0.2746 C.ar    1  LIG1       -0.0429
     36 C         -12.1020   10.1991   -0.1117 C.ar    1  LIG1        0.0291
     37 N         -10.8040   10.3830    0.1026 N.ar    1  LIG1       -0.2440
     38 H         -12.2598    6.8363   -0.3735 H       1  LIG1        0.0625
     39 H         -12.7114   11.0978   -0.1507 H       1  LIG1        0.0830
     40 N          -7.5373    9.8248    0.7338 N.1     1  LIG1       -0.1893
     41 C          -8.6285    9.5789    0.4455 C.1     1  LIG1        0.1198
     42 H         -13.7421    8.8440   -0.4427 H       1  LIG1        0.0633
@<TRIPOS>BOND
     1    29    30    3
     2     9    10    3
     3    30    22    1
     4    10     1    1
     5    22    27   ar
     6    22    23   ar
     7    27    26   ar
     8     1     6   ar
     9     1     2   ar
    10     6     5   ar
    11    42    35    1
    12    38    34    1
    13    35    34   ar
    14    35    36   ar
    15    34    33   ar
    16    21    15    1
    17    39    36    1
    18    18    14    1
    19    36    37   ar
    20    15    14   ar
    21    15    16   ar
    22    14    13   ar
    23    33    26    1
    24    33    32   ar
    25     8     2    1
    26    26    25   ar
    27    23    16    1
    28    23    24   ar
    29    16    17   ar
    30     2     3   ar
    31    37    32   ar
    32    13     5    1
    33    13    12   ar
    34     5     4   ar
    35    32    41    1
    36    17    12   ar
    37    12    20    1
    38    41    40    3
    39    20    19    3
    40    24    25   ar
    41    24    28    1
    42    25    31    1
    43     3     4   ar
    44     3     7    1
    45     4    11    1
