@<TRIPOS>MOLECULE
mol_data/opt/cam/geoms/mol2/6dd.out
 13 13 0 0 0
SMALL
GASTEIGER

@<TRIPOS>ATOM
      1 C          -4.5764   -2.0046    0.0001 C.ar    1  LIG1        0.1401
      2 C          -3.1824   -2.0233    0.0000 C.ar    1  LIG1       -0.0246
      3 C          -2.5127   -0.8116   -0.0002 C.ar    1  LIG1       -0.0402
      4 C          -3.2634    0.3630   -0.0003 C.ar    1  LIG1        0.0699
      5 C          -4.6607    0.2688   -0.0002 C.ar    1  LIG1        0.0464
      6 N          -5.3081   -0.8860   -0.0000 N.ar    1  LIG1       -0.2434
      7 H          -1.4296   -0.7705   -0.0002 H       1  LIG1        0.0632
      8 H          -2.6483   -2.9655    0.0001 H       1  LIG1        0.0646
      9 H          -5.2665    1.1703   -0.0003 H       1  LIG1        0.0843
     10 N          -5.8540   -4.2680    0.0004 N.1     1  LIG1       -0.1893
     11 C          -5.3034   -3.2525    0.0002 C.1     1  LIG1        0.1191
     12 N          -2.1196    2.6858   -0.0006 N.1     1  LIG1       -0.1908
     13 C          -2.6289    1.6481   -0.0004 C.1     1  LIG1        0.1007
@<TRIPOS>BOND
     1    12    13    3
     2    13     4    1
     3     9     5    1
     4     4     5   ar
     5     4     3   ar
     6     7     3    1
     7     5     6   ar
     8     3     2   ar
     9     6     1   ar
    10     2     1   ar
    11     2     8    1
    12     1    11    1
    13    11    10    3
