@<TRIPOS>MOLECULE
mol_data/opt/cam/geoms/mol2/6dd12el-4ae13lf-12ef-12il12ld-13fe-.out
 98 105 0 0 0
SMALL
GASTEIGER

@<TRIPOS>ATOM
      1 C          -4.0851   -1.3497    2.8332 C.ar    1  LIG1        0.1409
      2 C          -2.9677   -1.9472    2.2498 C.ar    1  LIG1       -0.0245
      3 C          -2.6040   -1.5234    0.9860 C.ar    1  LIG1       -0.0395
      4 C          -3.3422   -0.5165    0.3625 C.ar    1  LIG1        0.0808
      5 C          -4.4186    0.0661    1.0623 C.ar    1  LIG1        0.1261
      6 N          -4.7853   -0.3708    2.2680 N.ar    1  LIG1       -0.2319
      7 H          -1.7702   -1.9785    0.4642 H       1  LIG1        0.0632
      8 H          -2.4254   -2.7283    2.7675 H       1  LIG1        0.0646
      9 N          -4.8526   -2.1661    5.1794 N.1     1  LIG1       -0.1893
     10 C          -4.5281   -1.7907    4.1363 C.1     1  LIG1        0.1191
     11 N          -2.7679   -0.0006   -2.1069 N.1     1  LIG1       -0.1908
     12 C          -3.0348   -0.1857   -0.9970 C.1     1  LIG1        0.1014
     13 C          -5.2149    1.1674    0.5228 C.ar    1  LIG1        0.1741
     14 C          -4.8996    2.3508   -0.0974 C.ar    1  LIG1        0.1142
     15 C          -6.1554    3.0281   -0.2810 C.ar    1  LIG1        0.1817
     16 C          -7.1303    2.2207    0.2370 C.ar    1  LIG1        0.1784
     17 O          -6.5460    1.0969    0.7383 O.2     1  LIG1       -0.4482
     18 C          -3.6081    2.8590   -0.3914 C.1     1  LIG1       -0.0621
     19 C          -2.5158    3.3014   -0.6347 C.1     1  LIG1       -0.1137
     20 H          -1.5459    3.6875   -0.8512 H       1  LIG1        0.1232
     21 O          -6.3565    4.2549   -0.8140 O.3     1  LIG1       -0.4901
     22 C          -5.9366    4.4053   -2.1719 C.3     1  LIG1        0.0790
     23 H          -6.1637    5.4350   -2.4465 H       1  LIG1        0.0660
     24 H          -4.8639    4.2274   -2.2755 H       1  LIG1        0.0660
     25 H          -6.4875    3.7199   -2.8238 H       1  LIG1        0.0660
     26 C          -9.2956    3.4088   -0.1462 C.ar    1  LIG1       -0.0503
     27 C         -10.6773    3.3987   -0.1609 C.ar    1  LIG1       -0.0507
     28 C          -8.5818    2.2856    0.2910 C.ar    1  LIG1        0.0222
     29 C         -11.4208    2.2777    0.2418 C.ar    1  LIG1        0.0174
     30 H         -11.2173    4.2694   -0.5097 H       1  LIG1        0.0625
     31 C          -9.3006    1.1846    0.7461 C.ar    1  LIG1       -0.0349
     32 C         -10.6959    1.1552    0.7140 C.ar    1  LIG1        0.0346
     33 H          -8.7715    0.3199    1.1276 H       1  LIG1        0.0637
     34 H          -8.7554    4.2840   -0.4858 H       1  LIG1        0.0625
     35 C         -11.3050   -0.0672    1.1583 C.1     1  LIG1       -0.0690
     36 C         -11.7646   -1.1252    1.5148 C.1     1  LIG1       -0.1139
     37 H         -12.1998   -2.0432    1.8426 H       1  LIG1        0.1232
     38 C         -12.8748    2.3051    0.1293 C.ar    1  LIG1        0.0942
     39 C         -13.7629    3.3697   -0.0465 C.ar    1  LIG1        0.1874
     40 C         -15.0722    2.8442   -0.1357 C.ar    1  LIG1        0.1881
     41 C         -14.9645    1.4615   -0.0124 C.ar    1  LIG1        0.1296
     42 N         -13.6313    1.1734    0.1349 N.ar    1  LIG1       -0.3458
     43 H         -13.2792    0.2357    0.2451 H       1  LIG1        0.1662
     44 O         -13.4132    4.6810   -0.1558 O.3     1  LIG1       -0.4895
     45 C         -14.0134    5.5422    0.8084 C.3     1  LIG1        0.0791
     46 H         -13.6342    6.5439    0.6041 H       1  LIG1        0.0660
     47 H         -15.1019    5.5342    0.7167 H       1  LIG1        0.0660
     48 H         -13.7294    5.2446    1.8240 H       1  LIG1        0.0660
     49 O         -16.1654    3.6206   -0.3039 O.3     1  LIG1       -0.5018
     50 H         -16.9680    3.0762   -0.3458 H       1  LIG1        0.2924
     51 C         -15.8805    0.3615   -0.0296 C.ar    1  LIG1        0.1746
     52 C         -17.2418    0.1897   -0.1656 C.ar    1  LIG1        0.1141
     53 C         -17.4581   -1.2298   -0.1150 C.ar    1  LIG1        0.1822
     54 C         -16.2443   -1.8233    0.0686 C.ar    1  LIG1        0.2134
     55 O         -15.2830   -0.8405    0.1167 O.2     1  LIG1       -0.4450
     56 C         -18.2251    1.1919   -0.3498 C.1     1  LIG1       -0.0621
     57 C         -19.0651    2.0439   -0.5058 C.1     1  LIG1       -0.1137
     58 H         -19.8240    2.7792   -0.6476 H       1  LIG1        0.1232
     59 O         -18.6796   -1.7865   -0.2523 O.3     1  LIG1       -0.5023
     60 H         -18.5858   -2.7422   -0.3499 H       1  LIG1        0.2923
     61 C         -15.7730   -3.1777    0.1842 C.ar    1  LIG1        0.1810
     62 C         -16.2903   -4.3168    0.7327 C.ar    1  LIG1        0.0410
     63 C         -15.2721   -5.3115    0.5600 C.ar    1  LIG1        0.1724
     64 C         -14.2178   -4.7168   -0.0769 C.ar    1  LIG1        0.2160
     65 O         -14.5240   -3.4092   -0.3133 O.2     1  LIG1       -0.4443
     66 C         -17.5768   -4.4967    1.4714 C.3     1  LIG1       -0.0325
     67 H         -17.4283   -5.1745    2.3157 H       1  LIG1        0.0280
     68 H         -18.3627   -4.9394    0.8476 H       1  LIG1        0.0280
     69 H         -17.9481   -3.5453    1.8602 H       1  LIG1        0.0280
     70 O         -15.3070   -6.5708    1.0632 O.3     1  LIG1       -0.4909
     71 C         -16.0659   -7.4997    0.3002 C.3     1  LIG1        0.0790
     72 H         -16.0092   -8.4523    0.8274 H       1  LIG1        0.0660
     73 H         -17.1154   -7.1922    0.2235 H       1  LIG1        0.0660
     74 H         -15.6410   -7.6115   -0.7006 H       1  LIG1        0.0660
     75 C         -12.9205   -5.1626   -0.5069 C.ar    1  LIG1        0.2170
     76 C         -12.4071   -6.3684   -0.8752 C.ar    1  LIG1        0.1870
     77 C         -11.0137   -6.1562   -1.1914 C.ar    1  LIG1        0.1413
     78 C         -10.7887   -4.8063   -1.0185 C.ar    1  LIG1        0.1766
     79 O         -11.9260   -4.2134   -0.5894 O.2     1  LIG1       -0.4448
     80 O         -13.1038   -7.5236   -0.8930 O.3     1  LIG1       -0.4900
     81 C         -12.9702   -8.3276   -2.0663 C.3     1  LIG1        0.0790
     82 H         -13.6893   -9.1389   -1.9548 H       1  LIG1        0.0660
     83 H         -13.2093   -7.7469   -2.9632 H       1  LIG1        0.0660
     84 H         -11.9657   -8.7444   -2.1561 H       1  LIG1        0.0660
     85 N          -9.3707   -8.0582   -1.7485 N.1     1  LIG1       -0.1906
     86 C         -10.0786   -7.1729   -1.5114 C.1     1  LIG1        0.1068
     87 C          -9.6743   -3.9252   -1.1967 C.ar    1  LIG1        0.1267
     88 C          -8.4352   -4.0840   -1.7943 C.ar    1  LIG1        0.1605
     89 C          -7.7439   -2.8435   -1.7149 C.ar    1  LIG1        0.0840
     90 C          -8.5972   -1.9596   -1.0736 C.ar    1  LIG1        0.0214
     91 N          -9.7387   -2.6059   -0.7709 N.ar    1  LIG1       -0.3541
     92 H         -10.5267   -2.1956   -0.2884 H       1  LIG1        0.1656
     93 H          -8.4463   -0.9212   -0.8268 H       1  LIG1        0.0820
     94 O          -7.9936   -5.2172   -2.3662 O.3     1  LIG1       -0.5034
     95 H          -7.1023   -5.0652   -2.7092 H       1  LIG1        0.2923
     96 C          -6.4430   -2.5926   -2.2227 C.1     1  LIG1       -0.0645
     97 C          -5.3372   -2.4067   -2.6665 C.1     1  LIG1       -0.1137
     98 H          -4.3687   -2.1877   -3.0565 H       1  LIG1        0.1232
@<TRIPOS>BOND
     1    98    97    1
     2    83    81    1
     3    25    22    1
     4    95    94    1
     5    97    96    3
     6    23    22    1
     7    94    88    1
     8    24    22    1
     9    96    89    1
    10    22    21    1
    11    84    81    1
    12    11    12    3
    13    81    82    1
    14    81    80    1
    15    88    89   ar
    16    88    87   ar
    17    85    86    3
    18    89    90   ar
    19    86    77    1
    20    87    78    1
    21    87    91   ar
    22    77    78   ar
    23    77    76   ar
    24    90    93    1
    25    90    91   ar
    26    78    79   ar
    27    12     4    1
    28    80    76    1
    29    76    75   ar
    30    20    19    1
    31    21    15    1
    32    91    92    1
    33    74    71    1
    34    58    57    1
    35    19    18    3
    36    79    75   ar
    37    30    27    1
    38    75    64    1
    39    57    56    3
    40    34    26    1
    41    18    14    1
    42    60    59    1
    43    56    52    1
    44    50    49    1
    45    65    64   ar
    46    65    61   ar
    47    49    40    1
    48    15    14   ar
    49    15    16   ar
    50    59    53    1
    51    52    53   ar
    52    52    51   ar
    53    27    26   ar
    54    27    29   ar
    55    44    39    1
    56    44    45    1
    57    26    28   ar
    58    40    39   ar
    59    40    41   ar
    60    53    54   ar
    61    14    13   ar
    62    64    63   ar
    63    39    38   ar
    64    51    41    1
    65    51    55   ar
    66    41    42   ar
    67    54    55   ar
    68    54    61    1
    69    38    42   ar
    70    38    29    1
    71    42    43    1
    72    61    62   ar
    73    73    71    1
    74    16    28    1
    75    16    17   ar
    76    29    32   ar
    77    28    31   ar
    78    71    72    1
    79    71    70    1
    80     4     3   ar
    81     4     5   ar
    82     7     3    1
    83    13    17   ar
    84    13     5    1
    85    63    62   ar
    86    63    70    1
    87    46    45    1
    88    32    31   ar
    89    32    35    1
    90    47    45    1
    91    62    66    1
    92    31    33    1
    93    45    48    1
    94    68    66    1
    95     3     2   ar
    96     5     6   ar
    97    35    36    3
    98    66    69    1
    99    66    67    1
   100    36    37    1
   101     2     8    1
   102     2     1   ar
   103     6     1   ar
   104     1    10    1
   105    10     9    3
