@<TRIPOS>MOLECULE
mol_data/opt/cam/geoms/mol2/6dd4ha6he-13hi12ld6ad6ll12fe.out
 100 107 0 0 0
SMALL
GASTEIGER

@<TRIPOS>ATOM
      1 C          -5.3100   -2.6236   -0.2168 C.ar    1  LIG1        0.1408
      2 C          -3.9293   -2.7976   -0.2629 C.ar    1  LIG1       -0.0245
      3 C          -3.1461   -1.6584   -0.3167 C.ar    1  LIG1       -0.0396
      4 C          -3.7617   -0.4077   -0.3429 C.ar    1  LIG1        0.0778
      5 C          -5.1734   -0.3311   -0.3377 C.ar    1  LIG1        0.0915
      6 N          -5.9161   -1.4366   -0.2584 N.ar    1  LIG1       -0.2350
      7 H          -2.0641   -1.7253   -0.3197 H       1  LIG1        0.0632
      8 H          -3.4948   -3.7891   -0.2398 H       1  LIG1        0.0646
      9 N          -6.8305   -4.7266   -0.0519 N.1     1  LIG1       -0.1893
     10 C          -6.1703   -3.7813   -0.1243 C.1     1  LIG1        0.1191
     11 N          -2.2133    1.6647   -0.2335 N.1     1  LIG1       -0.1908
     12 C          -2.9338    0.7633   -0.3009 C.1     1  LIG1        0.1013
     13 C          -5.7227    1.9161   -1.3697 C.ar    1  LIG1        0.0344
     14 C          -6.4214    3.1240   -1.2849 C.ar    1  LIG1       -0.0326
     15 C          -5.9025    0.9596   -0.3532 C.ar    1  LIG1        0.0223
     16 C          -7.2982    3.3972   -0.2384 C.ar    1  LIG1       -0.0128
     17 H          -6.2957    3.8555   -2.0777 H       1  LIG1        0.0642
     18 C          -6.8214    1.2166    0.6648 C.ar    1  LIG1       -0.0502
     19 C          -7.5073    2.4152    0.7401 C.ar    1  LIG1       -0.0532
     20 H          -6.9738    0.4569    1.4240 H       1  LIG1        0.0625
     21 N          -4.8703    1.6825   -2.4372 N.pl3   1  LIG1       -0.3574
     22 H          -4.7817    0.7281   -2.7506 H       1  LIG1        0.1423
     23 H          -4.9347    2.3399   -3.1990 H       1  LIG1        0.1423
     24 H          -8.1812    2.6061    1.5668 H       1  LIG1        0.0624
     25 C          -9.3722    4.8555    0.0584 C.ar    1  LIG1        0.1247
     26 C          -7.9777    4.7129   -0.1734 C.ar    1  LIG1        0.0229
     27 C          -7.2829    5.8847   -0.3911 C.ar    1  LIG1       -0.0332
     28 C          -7.8964    7.1442   -0.3325 C.ar    1  LIG1        0.0528
     29 C          -9.2635    7.1820    0.0117 C.ar    1  LIG1        0.1064
     30 N          -9.9640    6.0405    0.1481 N.ar    1  LIG1       -0.2291
     31 H          -6.2226    5.8380   -0.6166 H       1  LIG1        0.0638
     32 N         -10.1852    3.7683    0.2206 N.pl3   1  LIG1       -0.3426
     33 H         -11.1746    3.9572    0.2004 H       1  LIG1        0.1437
     34 H          -9.8751    2.8700   -0.1117 H       1  LIG1        0.1437
     35 C          -7.1326    8.2793   -0.7338 C.1     1  LIG1       -0.0674
     36 C          -6.4437    9.1946   -1.1126 C.1     1  LIG1       -0.1138
     37 H          -5.8473    9.9998   -1.4756 H       1  LIG1        0.1232
     38 C         -10.0608    8.3816    0.2101 C.ar    1  LIG1        0.0879
     39 C          -9.8311    9.6936    0.6387 C.ar    1  LIG1        0.0554
     40 C         -11.0894   10.3468    0.7428 C.ar    1  LIG1       -0.0007
     41 C         -12.0556    9.4129    0.3895 C.ar    1  LIG1        0.0911
     42 N         -11.4262    8.2492    0.0784 N.ar    1  LIG1       -0.3487
     43 H         -11.8520    7.3558   -0.1082 H       1  LIG1        0.1661
     44 N          -8.6494   10.2830    1.0576 N.pl3   1  LIG1       -0.3561
     45 H          -7.8093    9.9507    0.6045 H       1  LIG1        0.1424
     46 H          -8.6910   11.2915    1.0842 H       1  LIG1        0.1424
     47 C         -11.2568   11.7499    1.2311 C.3     1  LIG1       -0.0358
     48 H         -12.3025   12.0515    1.2460 H       1  LIG1        0.0279
     49 H         -10.7230   12.4635    0.5904 H       1  LIG1        0.0279
     50 H         -10.8514   11.8607    2.2433 H       1  LIG1        0.0279
     51 C         -13.4962    9.4668    0.3091 C.ar    1  LIG1        0.1947
     52 C         -14.4477   10.4371    0.1714 C.ar    1  LIG1        0.1852
     53 C         -15.7214    9.7714    0.1315 C.ar    1  LIG1        0.1397
     54 C         -15.4651    8.4269    0.2352 C.ar    1  LIG1        0.1583
     55 O         -14.1301    8.2493    0.3481 O.2     1  LIG1       -0.4482
     56 O         -14.2469   11.7733    0.1199 O.3     1  LIG1       -0.4901
     57 C         -14.5323   12.3818   -1.1409 C.3     1  LIG1        0.0790
     58 H         -14.2882   13.4377   -1.0302 H       1  LIG1        0.0660
     59 H         -13.9158   11.9408   -1.9305 H       1  LIG1        0.0660
     60 H         -15.5905   12.2814   -1.3987 H       1  LIG1        0.0660
     61 N         -18.0097   10.9312   -0.1011 N.1     1  LIG1       -0.1906
     62 C         -16.9837   10.4063    0.0110 C.1     1  LIG1        0.1067
     63 C         -15.7004    5.9699    0.4377 C.ar    1  LIG1        0.0390
     64 C         -16.2885    7.2296    0.2532 C.ar    1  LIG1        0.0380
     65 C         -17.6707    7.2600    0.0902 C.ar    1  LIG1       -0.0301
     66 C         -18.3838    6.0640    0.1159 C.ar    1  LIG1        0.0785
     67 C         -17.6980    4.8442    0.2940 C.ar    1  LIG1        0.0935
     68 N         -16.3703    4.8304    0.4519 N.ar    1  LIG1       -0.2528
     69 H         -18.2046    8.1930   -0.0471 H       1  LIG1        0.0639
     70 H         -14.6261    5.8963    0.5777 H       1  LIG1        0.0837
     71 N         -20.9563    6.1797   -0.1765 N.1     1  LIG1       -0.1908
     72 C         -19.8102    6.1158   -0.0344 C.1     1  LIG1        0.1013
     73 C         -18.1547    2.5696    1.2906 C.ar    1  LIG1        0.2248
     74 C         -18.3925    3.5394    0.2970 C.ar    1  LIG1        0.0666
     75 C         -19.3154    3.2084   -0.6888 C.ar    1  LIG1       -0.0034
     76 C         -19.9457    1.9689   -0.6848 C.ar    1  LIG1        0.1500
     77 C         -19.5750    1.0476    0.3048 C.ar    1  LIG1        0.1549
     78 N         -18.7103    1.3765    1.2725 N.ar    1  LIG1       -0.2054
     79 H         -19.5457    3.9286   -1.4622 H       1  LIG1        0.0663
     80 O         -17.3454    2.8975    2.3130 O.3     1  LIG1       -0.4792
     81 C         -17.1286    1.9036    3.3056 C.3     1  LIG1        0.0804
     82 H         -16.4606    2.3626    4.0339 H       1  LIG1        0.0660
     83 H         -18.0668    1.6087    3.7815 H       1  LIG1        0.0660
     84 H         -16.6667    1.0117    2.8755 H       1  LIG1        0.0660
     85 O         -20.9069    1.5936   -1.5602 O.3     1  LIG1       -0.4928
     86 C         -21.3549    2.5423   -2.5052 C.3     1  LIG1        0.0789
     87 H         -22.1668    2.0625   -3.0505 H       1  LIG1        0.0660
     88 H         -21.7289    3.4504   -2.0178 H       1  LIG1        0.0660
     89 H         -20.5616    2.8123   -3.2127 H       1  LIG1        0.0660
     90 C         -20.1264   -0.3005    0.3580 C.ar    1  LIG1        0.1990
     91 C         -20.5308   -1.2297   -0.5604 C.ar    1  LIG1        0.1800
     92 C         -20.9082   -2.4089    0.1710 C.ar    1  LIG1        0.1045
     93 C         -20.6947   -2.1058    1.4829 C.ar    1  LIG1        0.1117
     94 O         -20.2250   -0.8628    1.6116 O.2     1  LIG1       -0.4562
     95 H         -20.8372   -2.6715    2.3901 H       1  LIG1        0.1043
     96 O         -20.5359   -1.1235   -1.9015 O.3     1  LIG1       -0.5024
     97 H         -20.8409   -1.9686   -2.2611 H       1  LIG1        0.2923
     98 C         -21.3805   -3.6041   -0.4292 C.1     1  LIG1       -0.0628
     99 C         -21.7711   -4.5832   -1.0131 C.1     1  LIG1       -0.1137
    100 H         -22.1217   -5.4626   -1.5027 H       1  LIG1        0.1232
@<TRIPOS>BOND
     1    89    86    1
     2    23    21    1
     3    87    86    1
     4    22    21    1
     5    86    88    1
     6    86    85    1
     7    21    13    1
     8    97    96    1
     9    17    14    1
    10    59    57    1
    11    96    91    1
    12    85    76    1
    13   100    99    1
    14    37    36    1
    15    79    75    1
    16    60    57    1
    17    13    14   ar
    18    13    15   ar
    19    14    16   ar
    20    57    58    1
    21    57    56    1
    22    36    35    3
    23    99    98    3
    24    35    28    1
    25    75    76   ar
    26    75    74   ar
    27    76    77   ar
    28    31    27    1
    29    91    92   ar
    30    91    90   ar
    31    98    92    1
    32    27    28   ar
    33    27    26   ar
    34    15     5    1
    35    15    18   ar
    36     4     5   ar
    37     4     3   ar
    38     4    12    1
    39     5     6   ar
    40    28    29   ar
    41     7     3    1
    42     3     2   ar
    43    12    11    3
    44     2     8    1
    45     2     1   ar
    46     6     1   ar
    47    16    26    1
    48    16    19   ar
    49     1    10    1
    50    71    72    3
    51    26    25   ar
    52    10     9    3
    53    34    32    1
    54    43    42    1
    55    61    62    3
    56    69    65    1
    57    72    66    1
    58    62    53    1
    59    29    30   ar
    60    29    38    1
    61    25    30   ar
    62    25    32    1
    63    42    38   ar
    64    42    41   ar
    65    65    66   ar
    66    65    64   ar
    67    66    67   ar
    68    56    52    1
    69    53    52   ar
    70    53    54   ar
    71    92    93   ar
    72    52    51   ar
    73    33    32    1
    74    38    39   ar
    75    54    64    1
    76    54    55   ar
    77    64    63   ar
    78    67    74    1
    79    67    68   ar
    80    74    73   ar
    81    77    90    1
    82    77    78   ar
    83    51    55   ar
    84    51    41    1
    85    90    94   ar
    86    41    40   ar
    87    63    68   ar
    88    63    70    1
    89    49    47    1
    90    45    44    1
    91    39    40   ar
    92    39    44    1
    93    18    19   ar
    94    18    20    1
    95    19    24    1
    96    40    47    1
    97    44    46    1
    98    47    48    1
    99    47    50    1
   100    78    73   ar
   101    73    80    1
   102    93    94   ar
   103    93    95    1
   104    80    81    1
   105    84    81    1
   106    81    83    1
   107    81    82    1
