@<TRIPOS>MOLECULE
mol_data/opt/cam/geoms/mol2/6dd6di-13af12fh-.out
 45 48 0 0 0
SMALL
GASTEIGER

@<TRIPOS>ATOM
      1 C          -4.4100   -2.0612    0.6535 C.ar    1  LIG1        0.1408
      2 C          -3.1894   -2.2669    0.0131 C.ar    1  LIG1       -0.0245
      3 C          -2.6473   -1.2046   -0.6861 C.ar    1  LIG1       -0.0396
      4 C          -3.3314    0.0105   -0.7188 C.ar    1  LIG1        0.0778
      5 C          -4.5560    0.1267   -0.0269 C.ar    1  LIG1        0.0925
      6 N          -5.0695   -0.9049    0.6403 N.ar    1  LIG1       -0.2350
      7 H          -1.7072   -1.3069   -1.2157 H       1  LIG1        0.0632
      8 H          -2.6940   -3.2283    0.0639 H       1  LIG1        0.0646
      9 N          -5.4525   -4.0311    1.9911 N.1     1  LIG1       -0.1893
     10 C          -5.0119   -3.1430    1.3982 C.1     1  LIG1        0.1191
     11 N          -2.3027    1.9483   -2.0950 N.1     1  LIG1       -0.1908
     12 C          -2.7797    1.0941   -1.4783 C.1     1  LIG1        0.1013
     13 C          -6.7257    1.3879   -0.2078 C.ar    1  LIG1        0.1499
     14 C          -5.3419    1.3795    0.0047 C.ar    1  LIG1        0.0378
     15 C          -4.7580    2.6152    0.2852 C.ar    1  LIG1       -0.0448
     16 C          -5.5027    3.7797    0.3625 C.ar    1  LIG1       -0.0223
     17 C          -6.8962    3.6702    0.1423 C.ar    1  LIG1        0.0916
     18 N          -7.4640    2.4871   -0.1447 N.ar    1  LIG1       -0.2340
     19 H          -3.6898    2.6717    0.4652 H       1  LIG1        0.0628
     20 N          -8.0491   -0.7359   -0.9195 N.1     1  LIG1       -0.1893
     21 C          -7.4481    0.1906   -0.5802 C.1     1  LIG1        0.1198
     22 C          -4.8247    5.0804    0.6747 C.3     1  LIG1       -0.0376
     23 H          -5.2138    5.5198    1.5976 H       1  LIG1        0.0278
     24 H          -4.9817    5.8085   -0.1259 H       1  LIG1        0.0278
     25 H          -3.7499    4.9345    0.7929 H       1  LIG1        0.0278
     26 C          -7.8377    4.7752    0.1940 C.ar    1  LIG1        0.0693
     27 C          -7.7433    6.1419    0.4500 C.ar    1  LIG1        0.0074
     28 C          -9.0368    6.6808    0.3527 C.ar    1  LIG1        0.1458
     29 C          -9.9070    5.6370    0.0381 C.ar    1  LIG1        0.1282
     30 N          -9.1551    4.5013   -0.0509 N.ar    1  LIG1       -0.3475
     31 H          -9.4860    3.5721   -0.2642 H       1  LIG1        0.1661
     32 H          -6.8643    6.7165    0.6829 H       1  LIG1        0.0676
     33 O          -9.3127    7.9909    0.5434 O.3     1  LIG1       -0.5045
     34 H         -10.2616    8.1616    0.4306 H       1  LIG1        0.2922
     35 C         -11.3269    5.6357   -0.1747 C.ar    1  LIG1        0.1975
     36 C         -12.2830    6.6030   -0.1461 C.ar    1  LIG1        0.1854
     37 C         -13.5355    5.9901   -0.4417 C.ar    1  LIG1        0.1057
     38 C         -13.2631    4.6722   -0.6347 C.ar    1  LIG1        0.1170
     39 O         -11.9358    4.4444   -0.4769 O.2     1  LIG1       -0.4556
     40 H         -13.8696    3.8143   -0.8776 H       1  LIG1        0.1050
     41 O         -12.1210    7.9252    0.1122 O.3     1  LIG1       -0.5020
     42 H         -13.0048    8.3245    0.0463 H       1  LIG1        0.2924
     43 N         -14.7219    6.7692   -0.4817 N.pl3   1  LIG1       -0.3527
     44 H         -15.1686    6.7479   -1.3915 H       1  LIG1        0.1425
     45 H         -15.3995    6.4781    0.2140 H       1  LIG1        0.1425
@<TRIPOS>BOND
     1    11    12    3
     2    12     4    1
     3    44    43    1
     4     7     3    1
     5    20    21    3
     6    40    38    1
     7     4     3   ar
     8     4     5   ar
     9     3     2   ar
    10    38    39   ar
    11    38    37   ar
    12    21    13    1
    13    43    37    1
    14    43    45    1
    15    39    35   ar
    16    37    36   ar
    17    31    30    1
    18    13    18   ar
    19    13    14   ar
    20    35    36   ar
    21    35    29    1
    22    36    41    1
    23    18    17   ar
    24    24    22    1
    25    30    29   ar
    26    30    26   ar
    27     5    14    1
    28     5     6   ar
    29    14    15   ar
    30     2     8    1
    31     2     1   ar
    32    29    28   ar
    33    42    41    1
    34    17    26    1
    35    17    16   ar
    36    26    27   ar
    37    15    16   ar
    38    15    19    1
    39    28    27   ar
    40    28    33    1
    41    16    22    1
    42    34    33    1
    43    27    32    1
    44     6     1   ar
    45     1    10    1
    46    22    25    1
    47    22    23    1
    48    10     9    3
