@<TRIPOS>MOLECULE
mol_data/opt/cam/geoms/mol2/6dd6dd6dd6dd.out
 46 49 0 0 0
SMALL
GASTEIGER

@<TRIPOS>ATOM
      1 C          -3.8074   -1.6278   -1.5737 C.ar    1  LIG1        0.1408
      2 C          -2.9973   -2.2130   -0.6015 C.ar    1  LIG1       -0.0245
      3 C          -2.9415   -1.6110    0.6421 C.ar    1  LIG1       -0.0396
      4 C          -3.6885   -0.4552    0.8717 C.ar    1  LIG1        0.0778
      5 C          -4.4756    0.0583   -0.1759 C.ar    1  LIG1        0.0925
      6 N          -4.5256   -0.5243   -1.3680 N.ar    1  LIG1       -0.2350
      7 H          -2.3337   -2.0270    1.4371 H       1  LIG1        0.0632
      8 H          -2.4349   -3.1115   -0.8227 H       1  LIG1        0.0646
      9 N          -3.9144   -2.7098   -3.9330 N.1     1  LIG1       -0.1893
     10 C          -3.8859   -2.2166   -2.8890 C.1     1  LIG1        0.1191
     11 N          -3.6023    0.6795    3.1977 N.1     1  LIG1       -0.1908
     12 C          -3.6505    0.1715    2.1603 C.1     1  LIG1        0.1013
     13 C          -6.6612    1.2927   -0.4043 C.ar    1  LIG1        0.1500
     14 C          -5.3082    1.2813   -0.0271 C.ar    1  LIG1        0.0387
     15 C          -4.7807    2.4716    0.4535 C.ar    1  LIG1       -0.0303
     16 C          -5.5820    3.6090    0.5261 C.ar    1  LIG1        0.0785
     17 C          -6.9203    3.5172    0.1069 C.ar    1  LIG1        0.0926
     18 N          -7.4311    2.3750   -0.3369 N.ar    1  LIG1       -0.2343
     19 H          -3.7463    2.5312    0.7705 H       1  LIG1        0.0638
     20 N          -7.8694   -0.8654   -1.2014 N.1     1  LIG1       -0.1893
     21 C          -7.3216    0.0929   -0.8625 C.1     1  LIG1        0.1198
     22 N          -4.5703    5.8232    1.4081 N.1     1  LIG1       -0.1908
     23 C          -5.0283    4.8337    1.0240 C.1     1  LIG1        0.1013
     24 C          -9.1337    4.5659    0.7025 C.ar    1  LIG1        0.1500
     25 C          -7.8544    4.6722    0.1316 C.ar    1  LIG1        0.0387
     26 C          -7.5207    5.8928   -0.4383 C.ar    1  LIG1       -0.0303
     27 C          -8.4461    6.9341   -0.4432 C.ar    1  LIG1        0.0785
     28 C          -9.7084    6.7175    0.1361 C.ar    1  LIG1        0.0926
     29 N         -10.0211    5.5561    0.6994 N.ar    1  LIG1       -0.2343
     30 H          -6.5468    6.0476   -0.8871 H       1  LIG1        0.0638
     31 N          -9.8943    2.4129    1.9431 N.1     1  LIG1       -0.1893
     32 C          -9.5563    3.3602    1.3760 C.1     1  LIG1        0.1198
     33 N          -7.7944    9.2002   -1.5130 N.1     1  LIG1       -0.1908
     34 C          -8.0885    8.1932   -1.0274 C.1     1  LIG1        0.1013
     35 C         -11.4375    8.0851    1.3554 C.ar    1  LIG1        0.1493
     36 C         -10.7687    7.7578    0.1641 C.ar    1  LIG1        0.0387
     37 C         -11.1642    8.4202   -0.9916 C.ar    1  LIG1       -0.0309
     38 C         -12.1983    9.3495   -0.9228 C.ar    1  LIG1        0.0705
     39 C         -12.8027    9.5887    0.3150 C.ar    1  LIG1        0.0464
     40 N         -12.4257    8.9773    1.4270 N.ar    1  LIG1       -0.2427
     41 H         -10.6880    8.2122   -1.9424 H       1  LIG1        0.0638
     42 H         -13.6166   10.3027    0.3989 H       1  LIG1        0.0843
     43 N         -10.7197    7.0604    3.6339 N.1     1  LIG1       -0.1893
     44 C         -11.0467    7.4949    2.6151 C.1     1  LIG1        0.1198
     45 N         -13.0196   10.5991   -3.0361 N.1     1  LIG1       -0.1908
     46 C         -12.6487   10.0417   -2.0940 C.1     1  LIG1        0.1007
@<TRIPOS>BOND
     1     9    10    3
     2    45    46    3
     3    10     1    1
     4    46    38    1
     5    41    37    1
     6     1     6   ar
     7     1     2   ar
     8    33    34    3
     9     6     5   ar
    10    20    21    3
    11    34    27    1
    12    37    38   ar
    13    37    36   ar
    14    38    39   ar
    15    30    26    1
    16    21    13    1
    17     8     2    1
    18     2     3   ar
    19    27    26   ar
    20    27    28   ar
    21    26    25   ar
    22    13    18   ar
    23    13    14   ar
    24    18    17   ar
    25     5    14    1
    26     5     4   ar
    27    14    15   ar
    28    17    25    1
    29    17    16   ar
    30    25    24   ar
    31    28    36    1
    32    28    29   ar
    33    36    35   ar
    34    39    42    1
    35    39    40   ar
    36    15    16   ar
    37    15    19    1
    38    16    23    1
    39     3     4   ar
    40     3     7    1
    41    29    24   ar
    42    24    32    1
    43     4    12    1
    44    23    22    3
    45    35    40   ar
    46    35    44    1
    47    32    31    3
    48    12    11    3
    49    44    43    3
