@<TRIPOS>MOLECULE
mol_data/opt/cam/geoms/mol2/6dd6dd.out
 24 25 0 0 0
SMALL
GASTEIGER

@<TRIPOS>ATOM
      1 C          -4.4754   -1.9887   -0.6287 C.ar    1  LIG1        0.1408
      2 C          -3.1491   -2.1141   -0.2178 C.ar    1  LIG1       -0.0245
      3 C          -2.5336   -1.0015    0.3252 C.ar    1  LIG1       -0.0396
      4 C          -3.2553    0.1874    0.4360 C.ar    1  LIG1        0.0778
      5 C          -4.5890    0.2143   -0.0135 C.ar    1  LIG1        0.0925
      6 N          -5.1753   -0.8590   -0.5316 N.ar    1  LIG1       -0.2350
      7 H          -1.5071   -1.0435    0.6701 H       1  LIG1        0.0632
      8 H          -2.6279   -3.0574   -0.3222 H       1  LIG1        0.0646
      9 N          -5.6576   -4.0528   -1.6738 N.1     1  LIG1       -0.1893
     10 C          -5.1535   -3.1244   -1.2070 C.1     1  LIG1        0.1191
     11 N          -2.1188    2.2655    1.4829 N.1     1  LIG1       -0.1908
     12 C          -2.6348    1.3411    1.0183 C.1     1  LIG1        0.1013
     13 C          -6.7077    1.4080    0.6461 C.ar    1  LIG1        0.1493
     14 C          -5.4310    1.4374    0.0615 C.ar    1  LIG1        0.0387
     15 C          -5.0046    2.6460   -0.4748 C.ar    1  LIG1       -0.0309
     16 C          -5.8525    3.7491   -0.4258 C.ar    1  LIG1        0.0705
     17 C          -7.1092    3.6025    0.1690 C.ar    1  LIG1        0.0464
     18 N          -7.5227    2.4620    0.6987 N.ar    1  LIG1       -0.2427
     19 H          -4.0296    2.7344   -0.9393 H       1  LIG1        0.0638
     20 H          -7.7953    4.4429    0.2155 H       1  LIG1        0.0843
     21 N          -7.5935   -0.7264    1.8367 N.1     1  LIG1       -0.1893
     22 C          -7.2029    0.2112    1.2870 C.1     1  LIG1        0.1198
     23 N          -5.1471    6.0263   -1.4354 N.1     1  LIG1       -0.1908
     24 C          -5.4581    5.0092   -0.9830 C.1     1  LIG1        0.1007
@<TRIPOS>BOND
     1     9    10    3
     2    23    24    3
     3    10     1    1
     4    24    16    1
     5    19    15    1
     6     1     6   ar
     7     1     2   ar
     8     6     5   ar
     9    15    16   ar
    10    15    14   ar
    11    16    17   ar
    12     8     2    1
    13     2     3   ar
    14     5    14    1
    15     5     4   ar
    16    14    13   ar
    17    17    20    1
    18    17    18   ar
    19     3     4   ar
    20     3     7    1
    21     4    12    1
    22    13    18   ar
    23    13    22    1
    24    12    11    3
    25    22    21    3
