@<TRIPOS>MOLECULE
mol_data/opt/cam/geoms/mol2/6dd6dd6dd.out
 35 37 0 0 0
SMALL
GASTEIGER

@<TRIPOS>ATOM
      1 C          -4.2232   -1.8675   -1.1647 C.ar    1  LIG1        0.1408
      2 C          -3.1095   -2.1946   -0.3923 C.ar    1  LIG1       -0.0245
      3 C          -2.7089   -1.2949    0.5781 C.ar    1  LIG1       -0.0396
      4 C          -3.4260   -0.1093    0.7430 C.ar    1  LIG1        0.0778
      5 C          -4.5360    0.1294   -0.0888 C.ar    1  LIG1        0.0925
      6 N          -4.9163   -0.7389   -1.0187 N.ar    1  LIG1       -0.2350
      7 H          -1.8546   -1.5009    1.2123 H       1  LIG1        0.0632
      8 H          -2.5831   -3.1270   -0.5538 H       1  LIG1        0.0646
      9 N          -4.9880   -3.5184   -3.0191 N.1     1  LIG1       -0.1893
     10 C          -4.6687   -2.7734   -2.1963 C.1     1  LIG1        0.1191
     11 N          -2.6933    1.5778    2.5656 N.1     1  LIG1       -0.1908
     12 C          -3.0299    0.8247    1.7556 C.1     1  LIG1        0.1013
     13 C          -6.7619    1.2960    0.1060 C.ar    1  LIG1        0.1500
     14 C          -5.3621    1.3614    0.0133 C.ar    1  LIG1        0.0387
     15 C          -4.7937    2.6271   -0.0132 C.ar    1  LIG1       -0.0303
     16 C          -5.6084    3.7563    0.0315 C.ar    1  LIG1        0.0785
     17 C          -7.0014    3.5810    0.1029 C.ar    1  LIG1        0.0926
     18 N          -7.5449    2.3702    0.1477 N.ar    1  LIG1       -0.2343
     19 H          -3.7190    2.7508   -0.0730 H       1  LIG1        0.0638
     20 N          -8.0018   -0.9787    0.3101 N.1     1  LIG1       -0.1893
     21 C          -7.4466    0.0279    0.2018 C.1     1  LIG1        0.1198
     22 N          -4.5190    6.1048   -0.0178 N.1     1  LIG1       -0.1908
     23 C          -5.0107    5.0590    0.0120 C.1     1  LIG1        0.1013
     24 C          -8.9637    4.7973    1.1112 C.ar    1  LIG1        0.1493
     25 C          -7.9537    4.7207    0.1378 C.ar    1  LIG1        0.0387
     26 C          -7.9053    5.7345   -0.8112 C.ar    1  LIG1       -0.0309
     27 C          -8.8525    6.7536   -0.7668 C.ar    1  LIG1        0.0705
     28 C          -9.8220    6.7237    0.2400 C.ar    1  LIG1        0.0464
     29 N          -9.8706    5.7734    1.1603 N.ar    1  LIG1       -0.2427
     30 H          -7.1503    5.7330   -1.5885 H       1  LIG1        0.0638
     31 H         -10.5784    7.5008    0.2961 H       1  LIG1        0.0843
     32 N          -9.1027    3.0756    3.0538 N.1     1  LIG1       -0.1893
     33 C          -9.0473    3.8237    2.1757 C.1     1  LIG1        0.1198
     34 N          -8.8537    8.6586   -2.5199 N.1     1  LIG1       -0.1908
     35 C          -8.8487    7.8084   -1.7370 C.1     1  LIG1        0.1007
@<TRIPOS>BOND
     1     9    10    3
     2    34    35    3
     3    10     1    1
     4    35    27    1
     5    30    26    1
     6     1     6   ar
     7     1     2   ar
     8     6     5   ar
     9    26    27   ar
    10    26    25   ar
    11    27    28   ar
    12     8     2    1
    13     2     3   ar
    14     5    14    1
    15     5     4   ar
    16    19    15    1
    17    22    23    3
    18    15    14   ar
    19    15    16   ar
    20    23    16    1
    21    14    13   ar
    22    16    17   ar
    23    17    25    1
    24    17    18   ar
    25    13    18   ar
    26    13    21    1
    27    25    24   ar
    28    21    20    3
    29    28    31    1
    30    28    29   ar
    31     3     4   ar
    32     3     7    1
    33     4    12    1
    34    24    29   ar
    35    24    33    1
    36    12    11    3
    37    33    32    3
