@<TRIPOS>MOLECULE
mol_data/opt/cam/geoms/mol2/6de6de6de6de.out
 50 53 0 0 0
SMALL
GASTEIGER

@<TRIPOS>ATOM
      1 C          -3.7277   -1.4038   -1.9877 C.ar    1  LIG1        0.1408
      2 C          -2.9691   -2.0855   -1.0380 C.ar    1  LIG1       -0.0246
      3 C          -2.9668   -1.6020    0.2571 C.ar    1  LIG1       -0.0416
      4 C          -3.7094   -0.4609    0.5722 C.ar    1  LIG1        0.0508
      5 C          -4.4381    0.1529   -0.4675 C.ar    1  LIG1        0.0905
      6 N          -4.4433   -0.3144   -1.7111 N.ar    1  LIG1       -0.2350
      7 H          -2.4016   -2.1009    1.0356 H       1  LIG1        0.0631
      8 H          -2.4053   -2.9674   -1.3160 H       1  LIG1        0.0646
      9 N          -3.7316   -2.2622   -4.4403 N.1     1  LIG1       -0.1893
     10 C          -3.7497   -1.8678   -3.3546 C.1     1  LIG1        0.1191
     11 C          -3.7342    0.0315    1.9130 C.1     1  LIG1       -0.0675
     12 C          -3.7435    0.4220    3.0511 C.1     1  LIG1       -0.1138
     13 H          -3.7673    0.7698    4.0593 H       1  LIG1        0.1232
     14 C          -6.6153    1.4205   -0.5810 C.ar    1  LIG1        0.1500
     15 C          -5.2556    1.3748   -0.2425 C.ar    1  LIG1        0.0386
     16 C          -4.6976    2.5333    0.2775 C.ar    1  LIG1       -0.0323
     17 C          -5.4697    3.6855    0.4279 C.ar    1  LIG1        0.0514
     18 C          -6.8227    3.6185    0.0436 C.ar    1  LIG1        0.0906
     19 N          -7.3692    2.5079   -0.4364 N.ar    1  LIG1       -0.2344
     20 H          -3.6545    2.5531    0.5690 H       1  LIG1        0.0638
     21 N          -7.8534   -0.6869   -1.4654 N.1     1  LIG1       -0.1893
     22 C          -7.2968    0.2510   -1.0852 C.1     1  LIG1        0.1198
     23 C          -4.8888    4.8710    0.9737 C.1     1  LIG1       -0.0675
     24 C          -4.3789    5.8559    1.4404 C.1     1  LIG1       -0.1138
     25 H          -3.9379    6.7314    1.8608 H       1  LIG1        0.1232
     26 C          -8.9313    4.7185    0.8801 C.ar    1  LIG1        0.1500
     27 C          -7.7353    4.7870    0.1527 C.ar    1  LIG1        0.0386
     28 C          -7.4583    5.9843   -0.4901 C.ar    1  LIG1       -0.0323
     29 C          -8.3569    7.0492   -0.4204 C.ar    1  LIG1        0.0514
     30 C          -9.5363    6.8625    0.3269 C.ar    1  LIG1        0.0906
     31 N          -9.7966    5.7260    0.9631 N.ar    1  LIG1       -0.2344
     32 H          -6.5417    6.1004   -1.0559 H       1  LIG1        0.0638
     33 N          -9.5396    2.5955    2.2512 N.1     1  LIG1       -0.1893
     34 C          -9.2768    3.5322    1.6287 C.1     1  LIG1        0.1198
     35 C          -8.0536    8.2803   -1.0795 C.1     1  LIG1       -0.0675
     36 C          -7.7695    9.3052   -1.6423 C.1     1  LIG1       -0.1138
     37 H          -7.5250   10.2180   -2.1366 H       1  LIG1        0.1232
     38 C         -11.0107    8.3610    1.7155 C.ar    1  LIG1        0.1493
     39 C         -10.5693    7.9234    0.4587 C.ar    1  LIG1        0.0386
     40 C         -11.1645    8.4935   -0.6595 C.ar    1  LIG1       -0.0329
     41 C         -12.1706    9.4449   -0.4992 C.ar    1  LIG1        0.0435
     42 C         -12.5373    9.7916    0.8082 C.ar    1  LIG1        0.0444
     43 N         -11.9700    9.2734    1.8856 N.ar    1  LIG1       -0.2428
     44 H         -10.8586    8.1942   -1.6548 H       1  LIG1        0.0638
     45 H         -13.3222   10.5239    0.9735 H       1  LIG1        0.0842
     46 N          -9.8792    7.5214    3.9006 N.1     1  LIG1       -0.1893
     47 C         -10.3944    7.8727    2.9281 C.1     1  LIG1        0.1198
     48 C         -12.8159   10.0470   -1.6219 C.1     1  LIG1       -0.0681
     49 C         -13.3624   10.5574   -2.5644 C.1     1  LIG1       -0.1139
     50 H         -13.8500   11.0075   -3.3990 H       1  LIG1        0.1232
@<TRIPOS>BOND
     1     9    10    3
     2    50    49    1
     3    10     1    1
     4    49    48    3
     5    37    36    1
     6     1     6   ar
     7     1     2   ar
     8     6     5   ar
     9    44    40    1
    10    36    35    3
    11    48    41    1
    12    21    22    3
    13     8     2    1
    14    22    14    1
    15    35    29    1
    16    32    28    1
    17     2     3   ar
    18    40    41   ar
    19    40    39   ar
    20    14    19   ar
    21    14    15   ar
    22    41    42   ar
    23    28    29   ar
    24    28    27   ar
    25     5    15    1
    26     5     4   ar
    27    19    18   ar
    28    29    30   ar
    29    15    16   ar
    30    18    27    1
    31    18    17   ar
    32    27    26   ar
    33     3     4   ar
    34     3     7    1
    35    16    17   ar
    36    16    20    1
    37    30    39    1
    38    30    31   ar
    39    17    23    1
    40    39    38   ar
    41     4    11    1
    42    42    45    1
    43    42    43   ar
    44    26    31   ar
    45    26    34    1
    46    23    24    3
    47    24    25    1
    48    34    33    3
    49    38    43   ar
    50    38    47    1
    51    11    12    3
    52    47    46    3
    53    12    13    1
