@<TRIPOS>MOLECULE
mol_data/opt/cam/geoms/mol2/6de6de6de.out
 38 40 0 0 0
SMALL
GASTEIGER

@<TRIPOS>ATOM
      1 C          -4.2832   -1.7486   -1.4858 C.ar    1  LIG1        0.1408
      2 C          -3.1532   -2.1355   -0.7680 C.ar    1  LIG1       -0.0246
      3 C          -2.7155   -1.3050    0.2466 C.ar    1  LIG1       -0.0416
      4 C          -3.4041   -0.1195    0.5176 C.ar    1  LIG1        0.0508
      5 C          -4.5332    0.1771   -0.2737 C.ar    1  LIG1        0.0905
      6 N          -4.9556   -0.6236   -1.2461 N.ar    1  LIG1       -0.2350
      7 H          -1.8478   -1.5644    0.8418 H       1  LIG1        0.0631
      8 H          -2.6434   -3.0615   -1.0039 H       1  LIG1        0.0646
      9 N          -5.1173   -3.2678   -3.4220 N.1     1  LIG1       -0.1893
     10 C          -4.7683   -2.5811   -2.5610 C.1     1  LIG1        0.1191
     11 C          -2.9737    0.7312    1.5815 C.1     1  LIG1       -0.0675
     12 C          -2.5924    1.4255    2.4873 C.1     1  LIG1       -0.1138
     13 H          -2.2685    2.0422    3.2951 H       1  LIG1        0.1232
     14 C          -6.7179    1.3672    0.1411 C.ar    1  LIG1        0.1500
     15 C          -5.3335    1.4147   -0.0744 C.ar    1  LIG1        0.0386
     16 C          -4.7500    2.6717   -0.1310 C.ar    1  LIG1       -0.0323
     17 C          -5.5292    3.8212    0.0013 C.ar    1  LIG1        0.0514
     18 C          -6.9137    3.6540    0.1998 C.ar    1  LIG1        0.0906
     19 N          -7.4755    2.4530    0.2758 N.ar    1  LIG1       -0.2344
     20 H          -3.6819    2.7710   -0.2820 H       1  LIG1        0.0638
     21 N          -7.9605   -0.9018    0.3948 N.1     1  LIG1       -0.1893
     22 C          -7.4084    0.1045    0.2669 C.1     1  LIG1        0.1198
     23 C          -4.9115    5.1089   -0.0487 C.1     1  LIG1       -0.0675
     24 C          -4.3628    6.1788   -0.0920 C.1     1  LIG1       -0.1138
     25 H          -3.8850    7.1317   -0.1264 H       1  LIG1        0.1232
     26 C          -8.6931    4.9296    1.4467 C.ar    1  LIG1        0.1493
     27 C          -7.8408    4.8076    0.3402 C.ar    1  LIG1        0.0386
     28 C          -7.9249    5.7887   -0.6397 C.ar    1  LIG1       -0.0329
     29 C          -8.8450    6.8268   -0.5035 C.ar    1  LIG1        0.0435
     30 C          -9.6537    6.8346    0.6411 C.ar    1  LIG1        0.0444
     31 N          -9.5764    5.9195    1.5938 N.ar    1  LIG1       -0.2428
     32 H          -7.2866    5.7447   -1.5141 H       1  LIG1        0.0638
     33 H         -10.3873    7.6235    0.7796 H       1  LIG1        0.0842
     34 N          -8.5407    3.2754    3.4467 N.1     1  LIG1       -0.1893
     35 C          -8.6205    3.9929    2.5448 C.1     1  LIG1        0.1198
     36 C          -8.9714    7.8487   -1.4930 C.1     1  LIG1       -0.0681
     37 C          -9.0819    8.7120   -2.3236 C.1     1  LIG1       -0.1139
     38 H          -9.1834    9.4758   -3.0607 H       1  LIG1        0.1232
@<TRIPOS>BOND
     1     9    10    3
     2    38    37    1
     3    10     1    1
     4    37    36    3
     5    32    28    1
     6    36    29    1
     7     1     6   ar
     8     1     2   ar
     9     6     5   ar
    10     8     2    1
    11     2     3   ar
    12    28    29   ar
    13    28    27   ar
    14    29    30   ar
    15    20    16    1
    16     5    15    1
    17     5     4   ar
    18    16    15   ar
    19    16    17   ar
    20    25    24    1
    21    24    23    3
    22    15    14   ar
    23    23    17    1
    24    17    18   ar
    25    14    22    1
    26    14    19   ar
    27    18    19   ar
    28    18    27    1
    29     3     4   ar
    30     3     7    1
    31    22    21    3
    32    27    26   ar
    33     4    11    1
    34    30    33    1
    35    30    31   ar
    36    26    31   ar
    37    26    35    1
    38    11    12    3
    39    12    13    1
    40    35    34    3
