@<TRIPOS>MOLECULE
mol_data/opt/cam/geoms/mol2/6de6de.out
 26 27 0 0 0
SMALL
GASTEIGER

@<TRIPOS>ATOM
      1 C          -4.5116   -1.9416   -0.7548 C.ar    1  LIG1        0.1408
      2 C          -3.1654   -2.0832   -0.4242 C.ar    1  LIG1       -0.0246
      3 C          -2.5176   -0.9930    0.1257 C.ar    1  LIG1       -0.0416
      4 C          -3.2169    0.1999    0.3278 C.ar    1  LIG1        0.0508
      5 C          -4.5761    0.2362   -0.0485 C.ar    1  LIG1        0.0905
      6 N          -5.1981   -0.8145   -0.5733 N.ar    1  LIG1       -0.2350
      7 H          -1.4735   -1.0524    0.4102 H       1  LIG1        0.0631
      8 H          -2.6537   -3.0225   -0.5940 H       1  LIG1        0.0646
      9 N          -5.7560   -3.9616   -1.8151 N.1     1  LIG1       -0.1893
     10 C          -5.2249   -3.0526   -1.3393 C.1     1  LIG1        0.1191
     11 C          -2.5563    1.3197    0.9207 C.1     1  LIG1       -0.0675
     12 C          -1.9706    2.2415    1.4259 C.1     1  LIG1       -0.1138
     13 H          -1.4616    3.0625    1.8780 H       1  LIG1        0.1232
     14 C          -6.6343    1.4198    0.7970 C.ar    1  LIG1        0.1493
     15 C          -5.4099    1.4568    0.1145 C.ar    1  LIG1        0.0386
     16 C          -5.0272    2.6719   -0.4396 C.ar    1  LIG1       -0.0329
     17 C          -5.8594    3.7832   -0.3164 C.ar    1  LIG1        0.0435
     18 C          -7.0655    3.6200    0.3783 C.ar    1  LIG1        0.0444
     19 N          -7.4408    2.4757    0.9264 N.ar    1  LIG1       -0.2428
     20 H          -4.0897    2.7577   -0.9757 H       1  LIG1        0.0638
     21 H          -7.7437    4.4610    0.4898 H       1  LIG1        0.0842
     22 N          -7.4288   -0.7285    2.0271 N.1     1  LIG1       -0.1893
     23 C          -7.0797    0.2151    1.4595 C.1     1  LIG1        0.1198
     24 C          -5.5075    5.0472   -0.8803 C.1     1  LIG1       -0.0681
     25 C          -5.2160    6.1145   -1.3531 C.1     1  LIG1       -0.1139
     26 H          -4.9607    7.0604   -1.7738 H       1  LIG1        0.1232
@<TRIPOS>BOND
     1     9    10    3
     2    26    25    1
     3    25    24    3
     4    10     1    1
     5    20    16    1
     6    24    17    1
     7     1     6   ar
     8     1     2   ar
     9     8     2    1
    10     6     5   ar
    11    16    17   ar
    12    16    15   ar
    13     2     3   ar
    14    17    18   ar
    15     5    15    1
    16     5     4   ar
    17    15    14   ar
    18     3     4   ar
    19     3     7    1
    20     4    11    1
    21    18    21    1
    22    18    19   ar
    23    14    19   ar
    24    14    23    1
    25    11    12    3
    26    12    13    1
    27    23    22    3
