@<TRIPOS>MOLECULE
mol_data/opt/cam/geoms/mol2/6df13ie13ff-6da4fd12hf4ef6de-.out
 93 100 0 0 0
SMALL
GASTEIGER

@<TRIPOS>ATOM
      1 C          -3.8510   -1.0273    2.3899 C.ar    1  LIG1        0.1410
      2 C          -2.7198   -1.5505    1.7644 C.ar    1  LIG1       -0.0223
      3 C          -2.3485   -1.0280    0.5384 C.ar    1  LIG1       -0.0153
      4 C          -3.0982    0.0063   -0.0071 C.ar    1  LIG1        0.1442
      5 C          -4.1815    0.5253    0.7306 C.ar    1  LIG1        0.1301
      6 N          -4.5602   -0.0158    1.8881 N.ar    1  LIG1       -0.2312
      7 H          -1.5077   -1.4215   -0.0209 H       1  LIG1        0.0655
      8 H          -2.1659   -2.3602    2.2237 H       1  LIG1        0.0647
      9 N          -4.6298   -2.0338    4.6551 N.1     1  LIG1       -0.1893
     10 C          -4.2976   -1.5758    3.6471 C.1     1  LIG1        0.1191
     11 O          -2.7767    0.4543   -1.2367 O.3     1  LIG1       -0.5046
     12 H          -3.4746    1.0522   -1.5439 H       1  LIG1        0.2922
     13 C          -4.9993    1.6338    0.2272 C.ar    1  LIG1        0.0732
     14 C          -4.6974    2.8289   -0.4022 C.ar    1  LIG1       -0.0075
     15 C          -5.9347    3.5261   -0.5727 C.ar    1  LIG1        0.0550
     16 C          -6.9416    2.7452   -0.0165 C.ar    1  LIG1        0.0829
     17 N          -6.3552    1.6044    0.4495 N.ar    1  LIG1       -0.3504
     18 H          -6.7892    0.9079    1.0391 H       1  LIG1        0.1660
     19 C          -3.3573    3.3934   -0.7681 C.3     1  LIG1       -0.0365
     20 H          -3.3444    4.4641   -0.5530 H       1  LIG1        0.0279
     21 H          -3.1304    3.2909   -1.8355 H       1  LIG1        0.0279
     22 H          -2.5486    2.9227   -0.2072 H       1  LIG1        0.0279
     23 C          -6.0792    4.7768   -1.2284 C.1     1  LIG1       -0.0672
     24 C          -6.1586    5.8319   -1.8037 C.1     1  LIG1       -0.1138
     25 H          -6.2464    6.7690   -2.3024 H       1  LIG1        0.1232
     26 C          -8.3697    2.9424    0.0836 C.ar    1  LIG1        0.1103
     27 C          -9.1386    4.0647    0.3363 C.ar    1  LIG1        0.1863
     28 C         -10.4806    3.6504    0.3986 C.ar    1  LIG1        0.1849
     29 C         -10.5395    2.2771    0.1811 C.ar    1  LIG1        0.0955
     30 N          -9.2363    1.8749    0.0156 N.ar    1  LIG1       -0.3470
     31 H          -8.9530    0.9496   -0.2670 H       1  LIG1        0.1662
     32 O          -8.6959    5.3221    0.5516 O.3     1  LIG1       -0.5019
     33 H          -9.4783    5.8839    0.6406 H       1  LIG1        0.2924
     34 O         -11.5028    4.5415    0.6406 O.3     1  LIG1       -0.5019
     35 H         -11.8461    4.3944    1.5319 H       1  LIG1        0.2924
     36 C         -11.6695   -0.0026    0.1897 C.ar    1  LIG1        0.1499
     37 C         -11.6997    1.4040    0.1192 C.ar    1  LIG1        0.0379
     38 C         -12.9855    1.9522   -0.0272 C.ar    1  LIG1       -0.0478
     39 C         -14.1013    1.1461   -0.0720 C.ar    1  LIG1       -0.0349
     40 C         -13.9562   -0.2480    0.0250 C.ar    1  LIG1        0.0760
     41 N         -12.7443   -0.7873    0.1420 N.ar    1  LIG1       -0.2356
     42 H         -13.0872    3.0263   -0.1224 H       1  LIG1        0.0626
     43 N          -9.3877   -1.2317    0.3973 N.1     1  LIG1       -0.1893
     44 C         -10.4196   -0.7143    0.3171 C.1     1  LIG1        0.1198
     45 H         -15.0813    1.5831   -0.1920 H       1  LIG1        0.0639
     46 C         -16.4288   -0.8893    0.2118 C.ar    1  LIG1        0.1268
     47 C         -17.4235   -1.8554    0.1348 C.ar    1  LIG1       -0.0076
     48 C         -15.0825   -1.2124   -0.0372 C.ar    1  LIG1        0.0430
     49 C         -17.1415   -3.1849   -0.1827 C.ar    1  LIG1        0.0401
     50 H         -18.4478   -1.5809    0.3707 H       1  LIG1        0.0662
     51 C         -14.8051   -2.5431   -0.3407 C.ar    1  LIG1       -0.0310
     52 C         -15.7896   -3.5247   -0.4232 C.ar    1  LIG1        0.0633
     53 H         -13.7718   -2.8126   -0.5195 H       1  LIG1        0.0638
     54 O         -16.7470    0.3847    0.5572 O.3     1  LIG1       -0.5061
     55 H         -17.6893    0.4361    0.7591 H       1  LIG1        0.2922
     56 N         -14.9737   -5.8880   -1.1063 N.1     1  LIG1       -0.1908
     57 C         -15.3669   -4.8454   -0.7921 C.1     1  LIG1        0.0999
     58 C         -18.2269   -4.1388   -0.2429 C.ar    1  LIG1        0.1613
     59 C         -19.5862   -4.0040   -0.3663 C.ar    1  LIG1        0.1138
     60 C         -20.1207   -5.3273   -0.3549 C.ar    1  LIG1        0.1845
     61 C         -19.0642   -6.1949   -0.2240 C.ar    1  LIG1        0.1801
     62 O         -17.9156   -5.4595   -0.1592 O.2     1  LIG1       -0.4491
     63 N         -20.3675   -2.8554   -0.4856 N.pl3   1  LIG1       -0.3522
     64 H         -20.0400   -2.2180   -1.2015 H       1  LIG1        0.1425
     65 H         -21.3365   -3.1016   -0.6532 H       1  LIG1        0.1425
     66 O         -21.4414   -5.5164   -0.5416 O.3     1  LIG1       -0.5020
     67 H         -21.7040   -6.3961   -0.2163 H       1  LIG1        0.2924
     68 C         -19.8238   -8.5981    0.0709 C.ar    1  LIG1        0.0362
     69 C         -19.5110   -9.9558   -0.0663 C.ar    1  LIG1       -0.0343
     70 C         -18.8532   -7.6347   -0.2764 C.ar    1  LIG1        0.0398
     71 C         -18.2717  -10.3943   -0.5085 C.ar    1  LIG1        0.0275
     72 H         -20.2703  -10.6883    0.1854 H       1  LIG1        0.0637
     73 C         -17.5977   -8.0748   -0.6985 C.ar    1  LIG1       -0.0076
     74 C         -17.2983   -9.4235   -0.8015 C.ar    1  LIG1        0.1254
     75 H         -16.8338   -7.3464   -0.9457 H       1  LIG1        0.0662
     76 C         -21.0958   -8.2525    0.6227 C.1     1  LIG1       -0.0689
     77 C         -22.1732   -7.9971    1.1046 C.1     1  LIG1       -0.1139
     78 H         -23.1082   -7.7852    1.5717 H       1  LIG1        0.1232
     79 O         -16.0741   -9.8501   -1.1724 O.3     1  LIG1       -0.5061
     80 H         -15.5137   -9.0913   -1.3873 H       1  LIG1        0.2922
     81 C         -17.5730  -12.4523   -1.8139 C.ar    1  LIG1        0.1479
     82 C         -17.9779  -11.8432   -0.6152 C.ar    1  LIG1        0.0227
     83 C         -18.1221  -12.6770    0.4888 C.ar    1  LIG1       -0.0343
     84 C         -17.8552  -14.0410    0.3786 C.ar    1  LIG1        0.0434
     85 C         -17.4384  -14.5241   -0.8686 C.ar    1  LIG1        0.0444
     86 N         -17.3064  -13.7547   -1.9370 N.ar    1  LIG1       -0.2428
     87 H         -18.4289  -12.2609    1.4418 H       1  LIG1        0.0637
     88 H         -17.2108  -15.5788   -0.9930 H       1  LIG1        0.0842
     89 N         -17.4057  -11.0693   -4.0093 N.1     1  LIG1       -0.1893
     90 C         -17.4641  -11.6806   -3.0305 C.1     1  LIG1        0.1197
     91 C         -17.9909  -14.9225    1.4944 C.1     1  LIG1       -0.0681
     92 C         -18.1047  -15.6691    2.4312 C.1     1  LIG1       -0.1139
     93 H         -18.2030  -16.3309    3.2612 H       1  LIG1        0.1232
@<TRIPOS>BOND
     1    89    90    3
     2    90    81    1
     3    25    24    1
     4    86    81   ar
     5    86    85   ar
     6    21    19    1
     7    81    82   ar
     8    24    23    3
     9    12    11    1
    10    80    79    1
    11    11     4    1
    12    23    15    1
    13    64    63    1
    14    79    74    1
    15    56    57    3
    16    88    85    1
    17    75    73    1
    18    85    84   ar
    19    74    73   ar
    20    74    71   ar
    21    57    52    1
    22    19    20    1
    23    19    14    1
    24    19    22    1
    25    73    70   ar
    26    65    63    1
    27    82    71    1
    28    82    83   ar
    29    15    14   ar
    30    15    16   ar
    31    66    60    1
    32    66    67    1
    33    53    51    1
    34    71    69   ar
    35    63    59    1
    36    52    51   ar
    37    52    49   ar
    38    14    13   ar
    39    59    60   ar
    40    59    58   ar
    41    60    61   ar
    42    51    48   ar
    43    70    61    1
    44    70    68   ar
    45    31    30    1
    46    58    49    1
    47    58    62   ar
    48    61    62   ar
    49    45    39    1
    50    49    47   ar
    51    42    38    1
    52    39    38   ar
    53    39    40   ar
    54    69    68   ar
    55    69    72    1
    56    48    40    1
    57    48    46   ar
    58    38    37   ar
    59     7     3    1
    60    16    26    1
    61    16    17   ar
    62     4     3   ar
    63     4     5   ar
    64    30    26   ar
    65    30    29   ar
    66    40    41   ar
    67    68    76    1
    68    26    27   ar
    69    37    29    1
    70    37    36   ar
    71    47    46   ar
    72    47    50    1
    73    41    36   ar
    74    29    28   ar
    75    36    44    1
    76    46    54    1
    77    13    17   ar
    78    13     5    1
    79    44    43    3
    80    27    28   ar
    81    27    32    1
    82    84    83   ar
    83    84    91    1
    84    28    34    1
    85    17    18    1
    86    83    87    1
    87     3     2   ar
    88    32    33    1
    89    54    55    1
    90    76    77    3
    91    34    35    1
    92     5     6   ar
    93    77    78    1
    94    91    92    3
    95     2     8    1
    96     2     1   ar
    97     6     1   ar
    98     1    10    1
    99    92    93    1
   100    10     9    3
