@<TRIPOS>MOLECULE
mol_data/opt/cam/geoms/mol2/6df13dh6ha4fi.out
 49 52 0 0 0
SMALL
GASTEIGER

@<TRIPOS>ATOM
      1 C          -4.6958   -2.0563    0.0092 C.ar    1  LIG1        0.1410
      2 C          -3.3698   -2.2920    0.3720 C.ar    1  LIG1       -0.0223
      3 C          -2.5722   -1.1955    0.6198 C.ar    1  LIG1       -0.0153
      4 C          -3.0855    0.0974    0.5025 C.ar    1  LIG1        0.1443
      5 C          -4.4377    0.2420    0.1126 C.ar    1  LIG1        0.1311
      6 N          -5.1999   -0.8349   -0.1141 N.ar    1  LIG1       -0.2312
      7 H          -1.5354   -1.2989    0.9177 H       1  LIG1        0.0655
      8 H          -2.9898   -3.3027    0.4562 H       1  LIG1        0.0647
      9 N          -6.2835   -4.0576   -0.4653 N.1     1  LIG1       -0.1893
     10 C          -5.5881   -3.1584   -0.2554 C.1     1  LIG1        0.1191
     11 O          -2.2313    1.0795    0.8247 O.3     1  LIG1       -0.5046
     12 H          -2.4974    1.9664    0.5433 H       1  LIG1        0.2922
     13 C          -5.1815    1.5028   -0.0273 C.ar    1  LIG1        0.0884
     14 C          -4.8591    2.8555   -0.2121 C.ar    1  LIG1        0.0998
     15 C          -6.0761    3.5891   -0.3236 C.ar    1  LIG1        0.0686
     16 C          -7.1114    2.6755   -0.2084 C.ar    1  LIG1        0.0725
     17 N          -6.5284    1.4376   -0.0382 N.ar    1  LIG1       -0.3503
     18 H          -7.0341    0.5622    0.0370 H       1  LIG1        0.1660
     19 N          -2.5276    3.9129   -0.4630 N.1     1  LIG1       -0.1907
     20 C          -3.5802    3.4339   -0.3535 C.1     1  LIG1        0.1032
     21 N          -6.1730    4.9677   -0.4776 N.pl3   1  LIG1       -0.3553
     22 H          -5.3175    5.4041   -0.7953 H       1  LIG1        0.1424
     23 H          -6.9630    5.2637   -1.0356 H       1  LIG1        0.1424
     24 C          -9.4784    1.8975   -0.6031 C.ar    1  LIG1        0.1261
     25 C          -8.5570    2.8837   -0.1815 C.ar    1  LIG1        0.0397
     26 C          -9.1107    4.0636    0.3084 C.ar    1  LIG1       -0.0473
     27 C         -10.4852    4.2343    0.3782 C.ar    1  LIG1       -0.0348
     28 C         -11.3116    3.1901   -0.0360 C.ar    1  LIG1        0.0766
     29 N         -10.7897    2.0508   -0.5191 N.ar    1  LIG1       -0.2317
     30 H          -8.4520    4.8442    0.6750 H       1  LIG1        0.0626
     31 N          -9.0344    0.6652   -1.0899 N.pl3   1  LIG1       -0.3426
     32 H          -9.8138    0.1147   -1.4279 H       1  LIG1        0.1437
     33 H          -8.2915    0.7236   -1.7760 H       1  LIG1        0.1437
     34 H         -10.9074    5.1482    0.7661 H       1  LIG1        0.0639
     35 C         -13.5540    4.4045    0.0956 C.ar    1  LIG1        0.1260
     36 C         -14.9433    4.3397    0.1755 C.ar    1  LIG1       -0.0193
     37 C         -12.7956    3.2257    0.0485 C.ar    1  LIG1        0.0421
     38 C         -15.5955    3.1192    0.2077 C.ar    1  LIG1       -0.0554
     39 H         -15.5152    5.2641    0.2113 H       1  LIG1        0.0654
     40 C         -13.4915    2.0112    0.0736 C.ar    1  LIG1       -0.0461
     41 C         -14.8746    1.9263    0.1551 C.ar    1  LIG1       -0.0496
     42 H         -12.8979    1.1059    0.0228 H       1  LIG1        0.0628
     43 H         -16.6795    3.0959    0.2750 H       1  LIG1        0.0621
     44 O         -12.9240    5.6155    0.0479 O.3     1  LIG1       -0.5061
     45 H         -13.5902    6.3125    0.0475 H       1  LIG1        0.2922
     46 C         -15.5776    0.5939    0.1743 C.3     1  LIG1       -0.0397
     47 H         -14.8660   -0.2260    0.2911 H       1  LIG1        0.0278
     48 H         -16.1318    0.4210   -0.7541 H       1  LIG1        0.0278
     49 H         -16.2968    0.5326    0.9964 H       1  LIG1        0.0278
@<TRIPOS>BOND
     1    33    31    1
     2    32    31    1
     3    31    24    1
     4    23    21    1
     5    22    21    1
     6    48    46    1
     7    24    29   ar
     8    24    25   ar
     9    29    28   ar
    10    21    15    1
    11     9    10    3
    12    19    20    3
    13    20    14    1
    14    15    14   ar
    15    15    16   ar
    16    10     1    1
    17    14    13   ar
    18    16    25    1
    19    16    17   ar
    20    25    26   ar
    21     6     1   ar
    22     6     5   ar
    23    17    13   ar
    24    17    18    1
    25    28    37    1
    26    28    27   ar
    27    13     5    1
    28     1     2   ar
    29    42    40    1
    30    45    44    1
    31    44    35    1
    32    37    40   ar
    33    37    35   ar
    34    40    41   ar
    35    35    36   ar
    36     5     4   ar
    37    41    46    1
    38    41    38   ar
    39    46    47    1
    40    46    49    1
    41    36    38   ar
    42    36    39    1
    43    38    43    1
    44    26    27   ar
    45    26    30    1
    46     2     8    1
    47     2     3   ar
    48    27    34    1
    49     4     3   ar
    50     4    11    1
    51    12    11    1
    52     3     7    1
