@<TRIPOS>MOLECULE
mol_data/opt/cam/geoms/mol2/6df12ee12ae13ai-6hf4he-4he-4dd-.out
 96 103 0 0 0
SMALL
GASTEIGER

@<TRIPOS>ATOM
      1 C          -4.9361   -1.6771   -2.2193 C.ar    1  LIG1        0.1411
      2 C          -3.5720   -1.9727   -2.1871 C.ar    1  LIG1       -0.0223
      3 C          -2.7226   -1.0106   -1.6825 C.ar    1  LIG1       -0.0152
      4 C          -3.2317    0.2049   -1.2210 C.ar    1  LIG1        0.1459
      5 C          -4.6279    0.4110   -1.2991 C.ar    1  LIG1        0.1499
      6 N          -5.4378   -0.5259   -1.7954 N.ar    1  LIG1       -0.2295
      7 H          -1.6528   -1.1705   -1.6166 H       1  LIG1        0.0655
      8 H          -3.2016   -2.9263   -2.5436 H       1  LIG1        0.0647
      9 N          -6.6869   -3.3929   -3.0836 N.1     1  LIG1       -0.1893
     10 C          -5.8999   -2.6341   -2.7079 C.1     1  LIG1        0.1191
     11 O          -2.3413    1.0573   -0.6946 O.3     1  LIG1       -0.5045
     12 H          -2.6776    1.9656   -0.6117 H       1  LIG1        0.2922
     13 C          -5.3339    1.5976   -0.8010 C.ar    1  LIG1        0.1741
     14 C          -5.0516    2.9284   -0.6110 C.ar    1  LIG1        0.0881
     15 C          -6.2609    3.5418   -0.1173 C.ar    1  LIG1        0.0895
     16 C          -7.1846    2.5282   -0.0559 C.ar    1  LIG1        0.1872
     17 O          -6.6253    1.3693   -0.4603 O.2     1  LIG1       -0.4475
     18 C          -3.8375    3.6094   -0.8824 C.1     1  LIG1       -0.0646
     19 C          -2.8003    4.1817   -1.1053 C.1     1  LIG1       -0.1138
     20 H          -1.8914    4.6982   -1.3172 H       1  LIG1        0.1232
     21 C          -6.4552    4.9041    0.2149 C.1     1  LIG1       -0.0645
     22 C          -6.6242    6.0621    0.4983 C.1     1  LIG1       -0.1138
     23 H          -6.7653    7.0887    0.7480 H       1  LIG1        0.1232
     24 C          -8.5674    2.4753    0.3180 C.ar    1  LIG1        0.1731
     25 C          -9.4734    3.4071    0.7212 C.ar    1  LIG1        0.0034
     26 C         -10.7106    2.7163    0.9094 C.ar    1  LIG1        0.0725
     27 C         -10.4616    1.3939    0.6011 C.ar    1  LIG1        0.1672
     28 O          -9.1638    1.2480    0.2453 O.2     1  LIG1       -0.4490
     29 H          -9.2899    4.4602    0.8649 H       1  LIG1        0.0669
     30 C         -11.9447    3.2759    1.3294 C.1     1  LIG1       -0.0658
     31 C         -12.9883    3.7604    1.6853 C.1     1  LIG1       -0.1138
     32 H         -13.9092    4.1916    2.0037 H       1  LIG1        0.1232
     33 C         -11.2579    0.2030    0.5830 C.ar    1  LIG1        0.0840
     34 C         -12.6134    0.0034    0.7799 C.ar    1  LIG1       -0.0298
     35 C         -12.8768   -1.3734    0.6314 C.ar    1  LIG1       -0.0244
     36 C         -11.6595   -1.9936    0.3472 C.ar    1  LIG1        0.0533
     37 N         -10.6986   -1.0163    0.3133 N.ar    1  LIG1       -0.3514
     38 H          -9.7215   -1.1970    0.1196 H       1  LIG1        0.1660
     39 H         -13.3344    0.7787    0.9923 H       1  LIG1        0.0642
     40 C         -14.2308   -2.0062    0.7397 C.3     1  LIG1       -0.0377
     41 H         -14.4319   -2.3902    1.7461 H       1  LIG1        0.0278
     42 H         -14.3462   -2.8405    0.0433 H       1  LIG1        0.0278
     43 H         -15.0093   -1.2733    0.5144 H       1  LIG1        0.0278
     44 C         -10.2030   -3.8397   -0.6003 C.ar    1  LIG1        0.1263
     45 C         -11.3186   -3.4065    0.1658 C.ar    1  LIG1        0.0415
     46 C         -12.0547   -4.4028    0.7876 C.ar    1  LIG1       -0.0056
     47 C         -11.7025   -5.7496    0.6866 C.ar    1  LIG1        0.1435
     48 C         -10.5645   -6.0705   -0.0641 C.ar    1  LIG1        0.1162
     49 N          -9.8590   -5.1103   -0.6874 N.ar    1  LIG1       -0.2281
     50 H         -12.8982   -4.1597    1.4207 H       1  LIG1        0.0662
     51 N          -9.3709   -2.9216   -1.2513 N.pl3   1  LIG1       -0.3426
     52 H          -8.6599   -3.3938   -1.8020 H       1  LIG1        0.1437
     53 H          -9.8689   -2.2399   -1.8118 H       1  LIG1        0.1437
     54 O         -12.4457   -6.6347    1.3928 O.3     1  LIG1       -0.5046
     55 H         -12.4666   -7.4947    0.9169 H       1  LIG1        0.2922
     56 C         -10.7394   -8.6008   -0.3650 C.ar    1  LIG1        0.0346
     57 C         -10.1152   -9.8451   -0.3879 C.ar    1  LIG1       -0.0315
     58 C          -9.9838   -7.4378   -0.1548 C.ar    1  LIG1        0.0258
     59 C          -8.7398   -9.9830   -0.2263 C.ar    1  LIG1        0.0011
     60 H         -10.7162  -10.7364   -0.5436 H       1  LIG1        0.0643
     61 C          -8.6022   -7.5745   -0.0462 C.ar    1  LIG1       -0.0347
     62 C          -7.9652   -8.8159   -0.0699 C.ar    1  LIG1        0.0332
     63 H          -8.0090   -6.6753    0.0645 H       1  LIG1        0.0637
     64 N         -12.1434   -8.5097   -0.5169 N.pl3   1  LIG1       -0.3574
     65 H         -12.4172   -7.8102   -1.2006 H       1  LIG1        0.1423
     66 H         -12.5761   -9.3975   -0.7400 H       1  LIG1        0.1423
     67 C          -6.5390   -8.8679    0.0556 C.1     1  LIG1       -0.0690
     68 C          -5.3398   -8.8837    0.1593 C.1     1  LIG1       -0.1139
     69 H          -4.2784   -8.9096    0.2487 H       1  LIG1        0.1232
     70 C          -8.2740  -12.2083   -1.3231 C.ar    1  LIG1        0.0330
     71 C          -7.7145  -13.4876   -1.2510 C.ar    1  LIG1       -0.0315
     72 C          -8.1332  -11.3418   -0.2213 C.ar    1  LIG1        0.0052
     73 C          -7.0074  -13.9237   -0.1396 C.ar    1  LIG1        0.0005
     74 H          -7.8445  -14.1567   -2.0953 H       1  LIG1        0.0643
     75 C          -7.4208  -11.7823    0.8858 C.ar    1  LIG1       -0.0362
     76 C          -6.8506  -13.0555    0.9594 C.ar    1  LIG1        0.0331
     77 H          -7.2941  -11.1109    1.7269 H       1  LIG1        0.0637
     78 N          -8.9834  -11.8350   -2.4533 N.pl3   1  LIG1       -0.3575
     79 H          -9.0700  -10.8394   -2.5990 H       1  LIG1        0.1423
     80 H          -8.7355  -12.3331   -3.2957 H       1  LIG1        0.1423
     81 C          -6.1110  -13.4173    2.1302 C.1     1  LIG1       -0.0690
     82 C          -5.4968  -13.6917    3.1294 C.1     1  LIG1       -0.1139
     83 H          -4.9510  -13.9370    4.0111 H       1  LIG1        0.1232
     84 C          -5.6276  -15.7830   -1.1652 C.ar    1  LIG1        0.0596
     85 C          -5.1307  -17.0911   -1.1415 C.ar    1  LIG1       -0.0425
     86 C          -6.4451  -15.2990   -0.1278 C.ar    1  LIG1        0.0019
     87 C          -5.4350  -17.9357   -0.0921 C.ar    1  LIG1       -0.0431
     88 H          -4.4995  -17.4313   -1.9539 H       1  LIG1        0.0631
     89 C          -6.7392  -16.1638    0.9248 C.ar    1  LIG1       -0.0354
     90 C          -6.2441  -17.4660    0.9460 C.ar    1  LIG1        0.0524
     91 H          -7.3643  -15.8175    1.7378 H       1  LIG1        0.0637
     92 H          -5.0533  -18.9492   -0.0679 H       1  LIG1        0.0631
     93 N          -4.9327  -14.3333   -3.1999 N.1     1  LIG1       -0.1909
     94 C          -5.2547  -14.9541   -2.2788 C.1     1  LIG1        0.0998
     95 N          -6.8349  -19.0366    2.9224 N.1     1  LIG1       -0.1909
     96 C          -6.5727  -18.3336    2.0425 C.1     1  LIG1        0.0992
@<TRIPOS>BOND
     1    80    78    1
     2    93    94    3
     3     9    10    3
     4    10     1    1
     5    79    78    1
     6     8     2    1
     7    78    70    1
     8    94    84    1
     9     1     2   ar
    10     1     6   ar
    11     2     3   ar
    12    74    71    1
    13    88    85    1
    14    53    51    1
    15    52    51    1
    16     6     5   ar
    17     3     7    1
    18     3     4   ar
    19    70    71   ar
    20    70    72   ar
    21    20    19    1
    22     5     4   ar
    23     5    13    1
    24    51    44    1
    25    71    73   ar
    26     4    11    1
    27    65    64    1
    28    84    85   ar
    29    84    86   ar
    30    85    87   ar
    31    19    18    3
    32    18    14    1
    33    13    14   ar
    34    13    17   ar
    35    66    64    1
    36    11    12    1
    37    49    44   ar
    38    49    48   ar
    39    14    15   ar
    40    44    45   ar
    41    60    57    1
    42    64    56    1
    43    17    16   ar
    44    57    56   ar
    45    57    59   ar
    46    56    58   ar
    47    59    72    1
    48    59    62   ar
    49    72    75   ar
    50    58    48    1
    51    58    61   ar
    52    73    86    1
    53    73    76   ar
    54    86    89   ar
    55    15    16   ar
    56    15    21    1
    57    87    92    1
    58    87    90   ar
    59    62    61   ar
    60    62    67    1
    61    48    47   ar
    62    16    24    1
    63    61    63    1
    64    42    40    1
    65    67    68    3
    66    38    37    1
    67    68    69    1
    68    45    36    1
    69    45    46   ar
    70    21    22    3
    71    28    24   ar
    72    28    27   ar
    73    37    36   ar
    74    37    33   ar
    75    24    25   ar
    76    36    35   ar
    77    22    23    1
    78    43    40    1
    79    33    27    1
    80    33    34   ar
    81    27    26   ar
    82    35    40    1
    83    35    34   ar
    84    47    46   ar
    85    47    54    1
    86    25    29    1
    87    25    26   ar
    88    40    41    1
    89    34    39    1
    90    46    50    1
    91    75    76   ar
    92    75    77    1
    93    26    30    1
    94    55    54    1
    95    89    90   ar
    96    89    91    1
    97    90    96    1
    98    76    81    1
    99    30    31    3
   100    31    32    1
   101    96    95    3
   102    81    82    3
   103    82    83    1
