@<TRIPOS>MOLECULE
mol_data/opt/cam/geoms/mol2/6df12de13hf6af-.out
 44 47 0 0 0
SMALL
GASTEIGER

@<TRIPOS>ATOM
      1 C          -4.5779   -2.0205   -0.2372 C.ar    1  LIG1        0.1411
      2 C          -3.2951   -2.1827    0.2923 C.ar    1  LIG1       -0.0223
      3 C          -2.6346   -1.0564    0.7311 C.ar    1  LIG1       -0.0152
      4 C          -3.2434    0.1967    0.6385 C.ar    1  LIG1        0.1459
      5 C          -4.5439    0.2582    0.0887 C.ar    1  LIG1        0.1499
      6 N          -5.1768   -0.8416   -0.3320 N.ar    1  LIG1       -0.2295
      7 H          -1.6407   -1.1052    1.1603 H       1  LIG1        0.0655
      8 H          -2.8431   -3.1654    0.3515 H       1  LIG1        0.0647
      9 N          -5.8841   -4.1041   -1.0776 N.1     1  LIG1       -0.1893
     10 C          -5.3168   -3.1674   -0.7083 C.1     1  LIG1        0.1191
     11 O          -2.5447    1.2216    1.1536 O.3     1  LIG1       -0.5045
     12 H          -2.7489    2.0845    0.7655 H       1  LIG1        0.2922
     13 C          -5.3510    1.4790   -0.0200 C.ar    1  LIG1        0.1760
     14 C          -5.1167    2.8137   -0.2145 C.ar    1  LIG1        0.1151
     15 C          -6.3946    3.4792   -0.2864 C.ar    1  LIG1        0.0899
     16 C          -7.3321    2.4842   -0.1143 C.ar    1  LIG1        0.1704
     17 O          -6.6907    1.2920    0.0409 O.2     1  LIG1       -0.4490
     18 N          -2.7854    3.8710   -0.4842 N.1     1  LIG1       -0.1907
     19 C          -3.8501    3.4245   -0.3810 C.1     1  LIG1        0.1043
     20 C          -6.5797    4.8511   -0.5811 C.1     1  LIG1       -0.0645
     21 C          -6.6865    6.0211   -0.8511 C.1     1  LIG1       -0.1138
     22 H          -6.7649    7.0542   -1.1026 H       1  LIG1        0.1232
     23 C          -8.7552    2.4041   -0.0677 C.ar    1  LIG1        0.1084
     24 C          -9.7541    3.3536    0.1468 C.ar    1  LIG1        0.0960
     25 C         -10.9768    2.6444    0.1423 C.ar    1  LIG1        0.1636
     26 C         -10.7236    1.2988   -0.0556 C.ar    1  LIG1        0.0925
     27 N          -9.3730    1.1697   -0.2098 N.ar    1  LIG1       -0.3473
     28 H          -8.8670    0.2991   -0.2356 H       1  LIG1        0.1662
     29 N          -9.6611    4.7012    0.4093 N.pl3   1  LIG1       -0.3534
     30 H          -8.8716    5.1941    0.0181 H       1  LIG1        0.1425
     31 H         -10.5427    5.1854    0.3186 H       1  LIG1        0.1425
     32 O         -12.1792    3.2795    0.3212 O.3     1  LIG1       -0.5031
     33 H         -12.8170    2.9387   -0.3183 H       1  LIG1        0.2923
     34 C         -11.3338   -0.9749   -0.8833 C.ar    1  LIG1        0.0370
     35 C         -11.6525    0.1786   -0.1532 C.ar    1  LIG1        0.0235
     36 C         -12.8961    0.2262    0.4785 C.ar    1  LIG1       -0.0080
     37 C         -13.7486   -0.8622    0.3572 C.ar    1  LIG1        0.1355
     38 C         -13.3271   -1.9660   -0.3833 C.ar    1  LIG1        0.0690
     39 N         -12.1455   -2.0193   -0.9882 N.ar    1  LIG1       -0.2590
     40 H         -13.1929    1.0774    1.0803 H       1  LIG1        0.0661
     41 H         -13.9753   -2.8361   -0.4879 H       1  LIG1        0.0867
     42 H         -10.3901   -1.0456   -1.4182 H       1  LIG1        0.0836
     43 O         -14.9548   -0.8065    0.9740 O.3     1  LIG1       -0.5052
     44 H         -15.4301   -1.6341    0.8303 H       1  LIG1        0.2922
@<TRIPOS>BOND
     1    42    34    1
     2    22    21    1
     3     9    10    3
     4    39    34   ar
     5    39    38   ar
     6    34    35   ar
     7    21    20    3
     8    10     1    1
     9    20    15    1
    10    41    38    1
    11    18    19    3
    12    38    37   ar
    13    19    14    1
    14     6     1   ar
    15     6     5   ar
    16    33    32    1
    17    15    14   ar
    18    15    16   ar
    19     1     2   ar
    20    28    27    1
    21    14    13   ar
    22    27    23   ar
    23    27    26   ar
    24    35    26    1
    25    35    36   ar
    26    16    23    1
    27    16    17   ar
    28    23    24   ar
    29    26    25   ar
    30    13    17   ar
    31    13     5    1
    32    30    29    1
    33     5     4   ar
    34    25    24   ar
    35    25    32    1
    36    24    29    1
    37     2     8    1
    38     2     3   ar
    39    31    29    1
    40    37    36   ar
    41    37    43    1
    42    36    40    1
    43     4     3   ar
    44     4    11    1
    45     3     7    1
    46    12    11    1
    47    44    43    1
