@<TRIPOS>MOLECULE
mol_data/opt/cam/geoms/mol2/6df6df6df.out
 35 37 0 0 0
SMALL
GASTEIGER

@<TRIPOS>ATOM
      1 C          -4.0764   -1.8341   -1.1474 C.ar    1  LIG1        0.1410
      2 C          -3.0565   -2.1480   -0.2461 C.ar    1  LIG1       -0.0223
      3 C          -2.8185   -1.2856    0.8057 C.ar    1  LIG1       -0.0154
      4 C          -3.5960   -0.1375    0.9241 C.ar    1  LIG1        0.1429
      5 C          -4.5910    0.1013   -0.0396 C.ar    1  LIG1        0.1165
      6 N          -4.8235   -0.7377   -1.0428 N.ar    1  LIG1       -0.2326
      7 H          -2.0512   -1.4804    1.5457 H       1  LIG1        0.0655
      8 H          -2.4749   -3.0530   -0.3742 H       1  LIG1        0.0647
      9 N          -4.5240   -3.4301   -3.1474 N.1     1  LIG1       -0.1893
     10 C          -4.3462   -2.7099   -2.2613 C.1     1  LIG1        0.1191
     11 O          -3.3504    0.6864    1.9635 O.3     1  LIG1       -0.5046
     12 H          -4.0322    1.3694    2.0209 H       1  LIG1        0.2922
     13 C          -6.8411    1.2518    0.0729 C.ar    1  LIG1        0.1502
     14 C          -5.4378    1.3236    0.0191 C.ar    1  LIG1        0.0433
     15 C          -4.8645    2.5885    0.0027 C.ar    1  LIG1       -0.0060
     16 C          -5.6776    3.7174    0.0134 C.ar    1  LIG1        0.1435
     17 C          -7.0689    3.5371    0.0489 C.ar    1  LIG1        0.1166
     18 N          -7.6191    2.3295    0.0891 N.ar    1  LIG1       -0.2319
     19 H          -3.7887    2.7197   -0.0469 H       1  LIG1        0.0662
     20 N          -8.0657   -1.0341    0.2290 N.1     1  LIG1       -0.1893
     21 C          -7.5183   -0.0204    0.1442 C.1     1  LIG1        0.1198
     22 O          -5.0801    4.9247   -0.0088 O.3     1  LIG1       -0.5046
     23 H          -5.7416    5.6259    0.0689 H       1  LIG1        0.2922
     24 C          -8.9000    4.9131    1.1099 C.ar    1  LIG1        0.1495
     25 C          -7.9938    4.7029    0.0564 C.ar    1  LIG1        0.0432
     26 C          -7.9998    5.6151   -0.9925 C.ar    1  LIG1       -0.0066
     27 C          -8.9054    6.6716   -0.9691 C.ar    1  LIG1        0.1356
     28 C          -9.7745    6.7768    0.1190 C.ar    1  LIG1        0.0705
     29 N          -9.7669    5.9246    1.1314 N.ar    1  LIG1       -0.2403
     30 H          -7.3418    5.4986   -1.8476 H       1  LIG1        0.0662
     31 H         -10.5006    7.5874    0.1664 H       1  LIG1        0.0867
     32 N          -8.8643    3.3778    3.2053 N.1     1  LIG1       -0.1893
     33 C          -8.8983    4.0471    2.2641 C.1     1  LIG1        0.1198
     34 O          -8.9012    7.5389   -1.9995 O.3     1  LIG1       -0.5052
     35 H          -9.5929    8.2029   -1.8836 H       1  LIG1        0.2922
@<TRIPOS>BOND
     1     9    10    3
     2    10     1    1
     3    34    35    1
     4    34    27    1
     5    30    26    1
     6     1     6   ar
     7     1     2   ar
     8     6     5   ar
     9    26    27   ar
    10    26    25   ar
    11    27    28   ar
    12     8     2    1
    13     2     3   ar
    14    19    15    1
    15     5    14    1
    16     5     4   ar
    17    22    16    1
    18    22    23    1
    19    15    16   ar
    20    15    14   ar
    21    16    17   ar
    22    14    13   ar
    23    17    25    1
    24    17    18   ar
    25    25    24   ar
    26    13    18   ar
    27    13    21    1
    28    28    31    1
    29    28    29   ar
    30    21    20    3
    31     3     4   ar
    32     3     7    1
    33     4    11    1
    34    24    29   ar
    35    24    33    1
    36    11    12    1
    37    33    32    3
