@<TRIPOS>MOLECULE
mol_data/opt/cam/geoms/mol2/6df6hd6fl4fh-.out
 52 55 0 0 0
SMALL
GASTEIGER

@<TRIPOS>ATOM
      1 C          -4.1292   -2.2339   -0.4742 C.ar    1  LIG1        0.1410
      2 C          -2.8967   -2.2945    0.1710 C.ar    1  LIG1       -0.0223
      3 C          -2.4731   -1.1756    0.8634 C.ar    1  LIG1       -0.0154
      4 C          -3.2666   -0.0348    0.8690 C.ar    1  LIG1        0.1429
      5 C          -4.4680   -0.0286    0.1244 C.ar    1  LIG1        0.1170
      6 N          -4.8838   -1.1345   -0.4944 N.ar    1  LIG1       -0.2326
      7 H          -1.5457   -1.1665    1.4240 H       1  LIG1        0.0655
      8 H          -2.3076   -3.2031    0.1475 H       1  LIG1        0.0647
      9 N          -5.0587   -4.3284   -1.6972 N.1     1  LIG1       -0.1893
     10 C          -4.6525   -3.3898   -1.1588 C.1     1  LIG1        0.1191
     11 O          -2.8344    1.0111    1.6040 O.3     1  LIG1       -0.5046
     12 H          -3.5526    1.6448    1.7371 H       1  LIG1        0.2922
     13 C          -6.7432    1.1192    0.0004 C.ar    1  LIG1        0.1263
     14 C          -5.3179    1.1809    0.0210 C.ar    1  LIG1        0.0447
     15 C          -4.7742    2.4471   -0.0941 C.ar    1  LIG1       -0.0297
     16 C          -5.5605    3.6032   -0.1614 C.ar    1  LIG1        0.0786
     17 C          -6.9680    3.4627   -0.1185 C.ar    1  LIG1        0.0956
     18 N          -7.4896    2.2272   -0.0379 N.ar    1  LIG1       -0.2303
     19 H          -3.6967    2.5681   -0.1440 H       1  LIG1        0.0639
     20 N          -7.4043   -0.0546    0.0422 N.pl3   1  LIG1       -0.3426
     21 H          -8.4017   -0.0215   -0.0981 H       1  LIG1        0.1437
     22 H          -6.8941   -0.8831   -0.2350 H       1  LIG1        0.1437
     23 N          -4.2146    5.8098   -0.2264 N.1     1  LIG1       -0.1908
     24 C          -4.8538    4.8442   -0.2017 C.1     1  LIG1        0.1013
     25 C          -9.2727    4.4067    0.2880 C.ar    1  LIG1        0.2225
     26 C          -7.9317    4.5716   -0.1447 C.ar    1  LIG1        0.0665
     27 C          -7.5849    5.8521   -0.6077 C.ar    1  LIG1       -0.0035
     28 C          -8.4865    6.8941   -0.5534 C.ar    1  LIG1        0.1469
     29 C          -9.7498    6.6494    0.0242 C.ar    1  LIG1        0.1198
     30 N         -10.1165    5.4270    0.3852 N.ar    1  LIG1       -0.2087
     31 H          -6.6111    6.0229   -1.0378 H       1  LIG1        0.0663
     32 O          -9.7811    3.2276    0.6471 O.3     1  LIG1       -0.4919
     33 H          -9.0923    2.5529    0.4373 H       1  LIG1        0.2937
     34 O          -8.2574    8.1327   -1.0529 O.3     1  LIG1       -0.4929
     35 C          -6.9335    8.4596   -1.4177 C.3     1  LIG1        0.0789
     36 H          -6.9381    9.5224   -1.6584 H       1  LIG1        0.0660
     37 H          -6.2309    8.2728   -0.5979 H       1  LIG1        0.0660
     38 H          -6.6051    7.8976   -2.3009 H       1  LIG1        0.0660
     39 C         -10.4655    8.9313    0.8332 C.ar    1  LIG1        0.1262
     40 C         -11.4612    9.8927    0.9605 C.ar    1  LIG1       -0.0178
     41 C         -10.7596    7.7237    0.1895 C.ar    1  LIG1        0.0472
     42 C         -12.7402    9.6655    0.4730 C.ar    1  LIG1       -0.0376
     43 H         -11.2365   10.8321    1.4598 H       1  LIG1        0.0655
     44 C         -12.0558    7.4972   -0.2666 C.ar    1  LIG1       -0.0282
     45 C         -13.0600    8.4559   -0.1445 C.ar    1  LIG1        0.0254
     46 H         -12.2738    6.5367   -0.7226 H       1  LIG1        0.0644
     47 H         -13.5025   10.4303    0.5891 H       1  LIG1        0.0637
     48 O          -9.2185    9.1067    1.3603 O.3     1  LIG1       -0.5061
     49 H          -9.1812    9.9676    1.7914 H       1  LIG1        0.2922
     50 N         -14.3659    8.1904   -0.5771 N.pl3   1  LIG1       -0.3579
     51 H         -14.8909    9.0119   -0.8409 H       1  LIG1        0.1423
     52 H         -14.4271    7.4774   -1.2898 H       1  LIG1        0.1423
@<TRIPOS>BOND
     1    38    35    1
     2     9    10    3
     3    36    35    1
     4    35    34    1
     5    35    37    1
     6    52    50    1
     7    10     1    1
     8    34    28    1
     9    31    27    1
    10    51    50    1
    11    46    44    1
    12    27    28   ar
    13    27    26   ar
    14    50    45    1
    15    28    29   ar
    16     6     1   ar
    17     6     5   ar
    18     1     2   ar
    19    44    45   ar
    20    44    41   ar
    21    22    20    1
    22    23    24    3
    23    24    16    1
    24    16    17   ar
    25    16    15   ar
    26    26    17    1
    27    26    25   ar
    28    45    42   ar
    29    19    15    1
    30    17    18   ar
    31    21    20    1
    32    15    14   ar
    33    18    13   ar
    34    13    14   ar
    35    13    20    1
    36    14     5    1
    37    29    41    1
    38    29    30   ar
    39     5     4   ar
    40     8     2    1
    41     2     3   ar
    42    41    39   ar
    43    25    30   ar
    44    25    32    1
    45    33    32    1
    46    42    47    1
    47    42    40   ar
    48    39    40   ar
    49    39    48    1
    50     3     4   ar
    51     3     7    1
    52     4    11    1
    53    40    43    1
    54    48    49    1
    55    11    12    1
