@<TRIPOS>MOLECULE
mol_data/opt/cam/geoms/mol2/6df6df-6df.out
 35 37 0 0 0
SMALL
GASTEIGER

@<TRIPOS>ATOM
      1 C          -4.2741   -1.9367   -0.8279 C.ar    1  LIG1        0.1410
      2 C          -3.1884   -2.2467   -0.0097 C.ar    1  LIG1       -0.0223
      3 C          -2.7540   -1.2767    0.8720 C.ar    1  LIG1       -0.0154
      4 C          -3.3854   -0.0357    0.9100 C.ar    1  LIG1        0.1429
      5 C          -4.4694    0.1881    0.0365 C.ar    1  LIG1        0.1165
      6 N          -4.8964   -0.7620   -0.7979 N.ar    1  LIG1       -0.2326
      7 H          -1.9303   -1.4511    1.5544 H       1  LIG1        0.0655
      8 H          -2.7151   -3.2196   -0.0663 H       1  LIG1        0.0647
      9 N          -5.1819   -3.7229   -2.4834 N.1     1  LIG1       -0.1893
     10 C          -4.7879   -2.9184   -1.7535 C.1     1  LIG1        0.1191
     11 O          -2.9909    0.8459    1.8614 O.3     1  LIG1       -0.5046
     12 H          -2.5868    1.6365    1.4680 H       1  LIG1        0.2922
     13 C          -4.8153    2.7387    0.0323 C.ar    1  LIG1        0.1502
     14 C          -5.3006    1.4246    0.0181 C.ar    1  LIG1        0.0433
     15 C          -6.6812    1.2816   -0.0897 C.ar    1  LIG1       -0.0060
     16 C          -7.5001    2.3978   -0.1254 C.ar    1  LIG1        0.1435
     17 C          -6.9131    3.6758   -0.0176 C.ar    1  LIG1        0.1166
     18 N          -5.5983    3.8199    0.0200 N.ar    1  LIG1       -0.2319
     19 H          -7.0995    0.2841   -0.1725 H       1  LIG1        0.0662
     20 N          -2.2530    3.1497    0.0543 N.1     1  LIG1       -0.1893
     21 C          -3.4012    3.0030    0.0279 C.1     1  LIG1        0.1198
     22 O          -8.8317    2.3328   -0.2929 O.3     1  LIG1       -0.5046
     23 H          -9.1477    1.4254   -0.1975 H       1  LIG1        0.2922
     24 C          -8.7986    5.1334    0.8744 C.ar    1  LIG1        0.1495
     25 C          -7.7211    4.9230   -0.0031 C.ar    1  LIG1        0.0432
     26 C          -7.3736    5.9607   -0.8568 C.ar    1  LIG1       -0.0066
     27 C          -8.1154    7.1341   -0.8365 C.ar    1  LIG1        0.1356
     28 C          -9.1854    7.2300    0.0564 C.ar    1  LIG1        0.0705
     29 N          -9.5097    6.2614    0.8963 N.ar    1  LIG1       -0.2403
     30 H          -6.5321    5.8620   -1.5319 H       1  LIG1        0.0662
     31 H          -9.7917    8.1345    0.0935 H       1  LIG1        0.0867
     32 N          -9.4304    3.3572    2.6629 N.1     1  LIG1       -0.1893
     33 C          -9.1638    4.1472    1.8624 C.1     1  LIG1        0.1198
     34 O          -7.7707    8.1277   -1.6815 O.3     1  LIG1       -0.5052
     35 H          -8.3587    8.8842   -1.5627 H       1  LIG1        0.2922
@<TRIPOS>BOND
     1     9    10    3
     2    10     1    1
     3    34    35    1
     4    34    27    1
     5    30    26    1
     6    26    27   ar
     7    26    25   ar
     8    27    28   ar
     9     1     6   ar
    10     1     2   ar
    11     6     5   ar
    12    22    23    1
    13    22    16    1
    14    19    15    1
    15    16    15   ar
    16    16    17   ar
    17    15    14   ar
    18     8     2    1
    19    17    25    1
    20    17    18   ar
    21     2     3   ar
    22    25    24   ar
    23    14    13   ar
    24    14     5    1
    25    18    13   ar
    26    21    13    1
    27    21    20    3
    28     5     4   ar
    29    28    31    1
    30    28    29   ar
    31     3     4   ar
    32     3     7    1
    33    24    29   ar
    34    24    33    1
    35     4    11    1
    36    12    11    1
    37    33    32    3
