@<TRIPOS>MOLECULE
mol_data/opt/cam/geoms/mol2/6df6ia-12el-6ie12al-12fa-13id13li.out
 98 105 0 0 0
SMALL
GASTEIGER

@<TRIPOS>ATOM
      1 C          -3.3192   -1.4278   -2.6416 C.ar    1  LIG1        0.1410
      2 C          -2.3355   -1.8935   -1.7687 C.ar    1  LIG1       -0.0223
      3 C          -2.2511   -1.3227   -0.5130 C.ar    1  LIG1       -0.0154
      4 C          -3.1376   -0.3058   -0.1767 C.ar    1  LIG1        0.1428
      5 C          -4.0856    0.1184   -1.1292 C.ar    1  LIG1        0.1154
      6 N          -4.1690   -0.4496   -2.3282 N.ar    1  LIG1       -0.2326
      7 H          -1.5210   -1.6496    0.2182 H       1  LIG1        0.0655
      8 H          -1.6654   -2.6886   -2.0732 H       1  LIG1        0.0647
      9 N          -3.5291   -2.4935   -5.0018 N.1     1  LIG1       -0.1893
     10 C          -3.4494   -2.0083   -3.9558 C.1     1  LIG1        0.1191
     11 O          -3.0505    0.2258    1.0606 O.3     1  LIG1       -0.5046
     12 H          -3.7798    0.8471    1.1974 H       1  LIG1        0.2922
     13 C          -6.4215    1.0912   -0.9309 C.ar    1  LIG1        0.0483
     14 C          -5.0226    1.2316   -0.8183 C.ar    1  LIG1        0.0250
     15 C          -4.5265    2.4733   -0.4231 C.ar    1  LIG1       -0.0486
     16 C          -5.3911    3.5209   -0.1533 C.ar    1  LIG1       -0.0320
     17 C          -6.7588    3.2868   -0.2900 C.ar    1  LIG1        0.1076
     18 N          -7.2489    2.0972   -0.6667 N.ar    1  LIG1       -0.2481
     19 H          -3.4535    2.6271   -0.3493 H       1  LIG1        0.0625
     20 C          -7.0615   -0.2015   -1.3525 C.3     1  LIG1       -0.0217
     21 H          -6.7063   -1.0416   -0.7489 H       1  LIG1        0.0293
     22 H          -6.8171   -0.4320   -2.3915 H       1  LIG1        0.0293
     23 H          -8.1418   -0.1098   -1.2462 H       1  LIG1        0.0293
     24 H          -5.0191    4.4920    0.1441 H       1  LIG1        0.0640
     25 C          -7.7449    4.3319   -0.0268 C.ar    1  LIG1        0.1728
     26 C          -7.6660    5.6480    0.3713 C.ar    1  LIG1        0.1142
     27 C          -9.0230    6.1106    0.4406 C.ar    1  LIG1        0.1818
     28 C          -9.8293    5.0620    0.0881 C.ar    1  LIG1        0.1801
     29 O          -9.0395    3.9928   -0.1981 O.2     1  LIG1       -0.4482
     30 C          -6.5155    6.4350    0.6373 C.1     1  LIG1       -0.0621
     31 C          -5.5595    7.1297    0.8715 C.1     1  LIG1       -0.1137
     32 H          -4.7155    7.7514    1.0654 H       1  LIG1        0.1232
     33 O          -9.4358    7.3649    0.7476 O.3     1  LIG1       -0.4901
     34 C          -9.2212    7.7544    2.1037 C.3     1  LIG1        0.0790
     35 H          -9.5983    8.7729    2.1927 H       1  LIG1        0.0660
     36 H          -9.7710    7.0981    2.7862 H       1  LIG1        0.0660
     37 H          -8.1573    7.7365    2.3544 H       1  LIG1        0.0660
     38 C         -11.9555    3.6912   -0.0508 C.ar    1  LIG1        0.0499
     39 C         -11.2731    4.9297   -0.0544 C.ar    1  LIG1        0.0432
     40 C         -12.0431    6.0808   -0.1956 C.ar    1  LIG1       -0.0316
     41 C         -13.4271    6.0129   -0.3348 C.ar    1  LIG1        0.0543
     42 C         -14.0188    4.7314   -0.3396 C.ar    1  LIG1        0.1217
     43 N         -13.2727    3.6280   -0.1947 N.ar    1  LIG1       -0.2468
     44 H         -11.5605    7.0501   -0.1966 H       1  LIG1        0.0638
     45 C         -11.2649    2.3665    0.1323 C.3     1  LIG1       -0.0216
     46 H         -10.6438    2.3598    1.0316 H       1  LIG1        0.0293
     47 H         -10.5955    2.1397   -0.7006 H       1  LIG1        0.0293
     48 H         -12.0266    1.5919    0.2182 H       1  LIG1        0.0293
     49 C         -14.1497    7.2388   -0.4718 C.1     1  LIG1       -0.0674
     50 C         -14.6942    8.3078   -0.5805 C.1     1  LIG1       -0.1138
     51 H         -15.1793    9.2517   -0.6795 H       1  LIG1        0.1232
     52 C         -15.4475    4.4999   -0.4936 C.ar    1  LIG1        0.1588
     53 C         -16.5482    5.3000   -0.6707 C.ar    1  LIG1        0.0283
     54 C         -17.6663    4.4304   -0.7548 C.ar    1  LIG1        0.1695
     55 C         -17.1819    3.1488   -0.6250 C.ar    1  LIG1        0.2156
     56 O         -15.8359    3.2008   -0.4668 O.2     1  LIG1       -0.4462
     57 H         -16.5463    6.3739   -0.7321 H       1  LIG1        0.0693
     58 O         -18.9711    4.7305   -0.9255 O.3     1  LIG1       -0.4912
     59 C         -19.2788    6.1026   -1.0518 C.3     1  LIG1        0.0790
     60 H         -20.3586    6.1641   -1.1841 H       1  LIG1        0.0660
     61 H         -18.9928    6.6624   -0.1532 H       1  LIG1        0.0660
     62 H         -18.7823    6.5465   -1.9230 H       1  LIG1        0.0660
     63 C         -17.7499    1.8326   -0.6199 C.ar    1  LIG1        0.2154
     64 C         -18.9947    1.2755   -0.7616 C.ar    1  LIG1        0.1665
     65 C         -18.8417   -0.1393   -0.6557 C.ar    1  LIG1        0.0280
     66 C         -17.5088   -0.3610   -0.4573 C.ar    1  LIG1        0.1558
     67 O         -16.8459    0.8189   -0.4332 O.2     1  LIG1       -0.4463
     68 O         -20.1384    1.9686   -0.9641 O.3     1  LIG1       -0.5031
     69 H         -20.8702    1.3472   -1.0427 H       1  LIG1        0.2923
     70 H         -19.6203   -0.8848   -0.7182 H       1  LIG1        0.0693
     71 C         -16.6629   -1.5084   -0.2710 C.ar    1  LIG1        0.0869
     72 C         -16.9063   -2.8635   -0.2472 C.ar    1  LIG1       -0.0041
     73 C         -15.6425   -3.4921   -0.0188 C.ar    1  LIG1        0.0821
     74 C         -14.6688   -2.5000    0.0958 C.ar    1  LIG1        0.0848
     75 N         -15.3131   -1.3120   -0.0671 N.ar    1  LIG1       -0.3493
     76 H         -14.9058   -0.3975    0.0611 H       1  LIG1        0.1661
     77 C         -18.2177   -3.5532   -0.4385 C.3     1  LIG1       -0.0364
     78 H         -18.0872   -4.6368   -0.4241 H       1  LIG1        0.0279
     79 H         -18.6756   -3.2837   -1.3957 H       1  LIG1        0.0279
     80 H         -18.9287   -3.2921    0.3525 H       1  LIG1        0.0279
     81 N         -15.3698   -6.0534    0.0523 N.1     1  LIG1       -0.1908
     82 C         -15.4506   -4.8982    0.0257 C.1     1  LIG1        0.1016
     83 C         -13.2402   -2.5440    0.3058 C.ar    1  LIG1        0.1066
     84 C         -12.4248   -3.4188    0.9999 C.ar    1  LIG1        0.1496
     85 C         -11.0814   -2.9597    0.9145 C.ar    1  LIG1        0.0092
     86 C         -11.1171   -1.8110    0.1654 C.ar    1  LIG1        0.0087
     87 N         -12.4161   -1.5417   -0.1744 N.ar    1  LIG1       -0.3563
     88 H         -12.6867   -0.8842   -0.8879 H       1  LIG1        0.1655
     89 H         -10.3141   -1.1623   -0.1519 H       1  LIG1        0.0811
     90 O         -12.7981   -4.5530    1.6544 O.3     1  LIG1       -0.4927
     91 C         -13.5046   -4.3502    2.8694 C.3     1  LIG1        0.0789
     92 H         -13.7173   -5.3406    3.2720 H       1  LIG1        0.0660
     93 H         -12.9009   -3.7825    3.5874 H       1  LIG1        0.0660
     94 H         -14.4496   -3.8233    2.7017 H       1  LIG1        0.0660
     95 C          -9.8935   -3.6233    1.5327 C.3     1  LIG1       -0.0348
     96 H          -8.9686   -3.1169    1.2468 H       1  LIG1        0.0279
     97 H          -9.8207   -4.6680    1.2192 H       1  LIG1        0.0279
     98 H          -9.9515   -3.6206    2.6257 H       1  LIG1        0.0279
@<TRIPOS>BOND
     1     9    10    3
     2    10     1    1
     3     1     6   ar
     4     1     2   ar
     5    22    20    1
     6     6     5   ar
     7     8     2    1
     8    62    59    1
     9     2     3   ar
    10    79    77    1
    11    20    23    1
    12    20    13    1
    13    20    21    1
    14    60    59    1
    15     5    14    1
    16     5     4   ar
    17    59    58    1
    18    59    61    1
    19    69    68    1
    20    68    64    1
    21    13    14   ar
    22    13    18   ar
    23    58    54    1
    24    88    87    1
    25    14    15   ar
    26    64    65   ar
    27    64    63   ar
    28    54    53   ar
    29    54    55   ar
    30    57    53    1
    31    70    65    1
    32    47    45    1
    33    51    50    1
    34    53    52   ar
    35    18    17   ar
    36    65    66   ar
    37    55    63    1
    38    55    56   ar
    39    63    67   ar
    40    50    49    3
    41     3     4   ar
    42     3     7    1
    43    52    56   ar
    44    52    42    1
    45    49    41    1
    46    66    67   ar
    47    66    71    1
    48    77    78    1
    49    77    72    1
    50    77    80    1
    51    15    19    1
    52    15    16   ar
    53    42    41   ar
    54    42    43   ar
    55    41    40   ar
    56    17    16   ar
    57    17    25    1
    58    71    72   ar
    59    71    75   ar
    60    72    73   ar
    61    29    25   ar
    62    29    28   ar
    63    44    40    1
    64    40    39   ar
    65    43    38   ar
    66     4    11    1
    67    87    86   ar
    68    87    83   ar
    69    16    24    1
    70    89    86    1
    71    75    76    1
    72    75    74   ar
    73    39    38   ar
    74    39    28    1
    75    38    45    1
    76    25    26   ar
    77    73    82    1
    78    73    74   ar
    79    82    81    3
    80    28    27   ar
    81    74    83    1
    82    45    48    1
    83    45    46    1
    84    86    85   ar
    85    83    84   ar
    86    26    27   ar
    87    26    30    1
    88    27    33    1
    89    30    31    3
    90    33    34    1
    91    31    32    1
    92    85    84   ar
    93    85    95    1
    94    84    90    1
    95    11    12    1
    96    97    95    1
    97    96    95    1
    98    95    98    1
    99    90    91    1
   100    34    35    1
   101    34    37    1
   102    34    36    1
   103    94    91    1
   104    91    92    1
   105    91    93    1
