@<TRIPOS>MOLECULE
mol_data/opt/cam/geoms/mol2/6df6df6df6df-.out
 46 49 0 0 0
SMALL
GASTEIGER

@<TRIPOS>ATOM
      1 C          -4.0439   -1.9183   -1.1468 C.ar    1  LIG1        0.1410
      2 C          -3.0534   -2.2601   -0.2229 C.ar    1  LIG1       -0.0223
      3 C          -2.8279   -1.4133    0.8442 C.ar    1  LIG1       -0.0154
      4 C          -3.5874   -0.2524    0.9552 C.ar    1  LIG1        0.1429
      5 C          -4.5520    0.0151   -0.0316 C.ar    1  LIG1        0.1165
      6 N          -4.7732   -0.8095   -1.0495 N.ar    1  LIG1       -0.2326
      7 H          -2.0838   -1.6297    1.6017 H       1  LIG1        0.0655
      8 H          -2.4846   -3.1739   -0.3459 H       1  LIG1        0.0647
      9 N          -4.4705   -3.4865   -3.1732 N.1     1  LIG1       -0.1893
     10 C          -4.3014   -2.7779   -2.2761 C.1     1  LIG1        0.1191
     11 O          -3.3540    0.5544    2.0110 O.3     1  LIG1       -0.5046
     12 H          -4.0246    1.2489    2.0598 H       1  LIG1        0.2922
     13 C          -6.7848    1.2034   -0.0028 C.ar    1  LIG1        0.1502
     14 C          -5.3790    1.2508    0.0152 C.ar    1  LIG1        0.0433
     15 C          -4.7855    2.5056    0.0570 C.ar    1  LIG1       -0.0060
     16 C          -5.5775    3.6500    0.0532 C.ar    1  LIG1        0.1435
     17 C          -6.9718    3.4945    0.0084 C.ar    1  LIG1        0.1166
     18 N          -7.5426    2.2948   -0.0050 N.ar    1  LIG1       -0.2319
     19 H          -3.7065    2.6196    0.0640 H       1  LIG1        0.0662
     20 N          -8.0651   -1.0563    0.0518 N.1     1  LIG1       -0.1893
     21 C          -7.4898   -0.0556    0.0107 C.1     1  LIG1        0.1198
     22 O          -4.9534    4.8427    0.0942 O.3     1  LIG1       -0.5046
     23 H          -5.5967    5.5606    0.1703 H       1  LIG1        0.2922
     24 C          -8.9206    4.8239    0.9152 C.ar    1  LIG1        0.1502
     25 C          -7.8825    4.6681   -0.0178 C.ar    1  LIG1        0.0433
     26 C          -7.7713    5.6523   -0.9889 C.ar    1  LIG1       -0.0060
     27 C          -8.6558    6.7300   -1.0287 C.ar    1  LIG1        0.1435
     28 C          -9.6745    6.7850   -0.0552 C.ar    1  LIG1        0.1166
     29 N          -9.7773    5.8361    0.8781 N.ar    1  LIG1       -0.2319
     30 H          -7.0218    5.5920   -1.7716 H       1  LIG1        0.0662
     31 N          -9.2285    3.1738    2.8989 N.1     1  LIG1       -0.1893
     32 C          -9.0988    3.8891    2.0011 C.1     1  LIG1        0.1198
     33 O          -8.5254    7.5760   -2.0706 O.3     1  LIG1       -0.5046
     34 H          -8.4961    8.5046   -1.7887 H       1  LIG1        0.2922
     35 C         -10.6325    9.1735   -0.1443 C.ar    1  LIG1        0.1495
     36 C         -10.7780    7.7870   -0.0127 C.ar    1  LIG1        0.0432
     37 C         -12.0673    7.3145    0.2327 C.ar    1  LIG1       -0.0066
     38 C         -13.1240    8.2068    0.3013 C.ar    1  LIG1        0.1356
     39 C         -12.8631    9.5747    0.1266 C.ar    1  LIG1        0.0705
     40 N         -11.6499   10.0421   -0.0809 N.ar    1  LIG1       -0.2403
     41 H         -12.2187    6.2499    0.3779 H       1  LIG1        0.0662
     42 H         -13.6833   10.2850    0.1724 H       1  LIG1        0.0867
     43 N          -8.2592   10.1486   -0.5267 N.1     1  LIG1       -0.1893
     44 C          -9.3317    9.7563   -0.3329 C.1     1  LIG1        0.1198
     45 O         -14.4009    7.8476    0.5249 O.3     1  LIG1       -0.5052
     46 H         -14.4679    6.8926    0.6515 H       1  LIG1        0.2922
@<TRIPOS>BOND
     1     9    10    3
     2    10     1    1
     3    33    34    1
     4    33    27    1
     5    30    26    1
     6     1     6   ar
     7     1     2   ar
     8     6     5   ar
     9    27    26   ar
    10    27    28   ar
    11    26    25   ar
    12    43    44    3
    13     8     2    1
    14    44    35    1
    15     2     3   ar
    16    35    40   ar
    17    35    36   ar
    18    40    39   ar
    19    28    36    1
    20    28    29   ar
    21     5    14    1
    22     5     4   ar
    23    25    17    1
    24    25    24   ar
    25    36    37   ar
    26    18    13   ar
    27    18    17   ar
    28    13    21    1
    29    13    14   ar
    30    17    16   ar
    31    21    20    3
    32    14    15   ar
    33    16    15   ar
    34    16    22    1
    35    15    19    1
    36    22    23    1
    37    39    42    1
    38    39    38   ar
    39    37    38   ar
    40    37    41    1
    41    38    45    1
    42    45    46    1
    43     3     4   ar
    44     3     7    1
    45    29    24   ar
    46    24    32    1
    47     4    11    1
    48    32    31    3
    49    11    12    1
