@<TRIPOS>MOLECULE
mol_data/opt/cam/geoms/mol2/6df6df-6df-6df.out
 46 49 0 0 0
SMALL
GASTEIGER

@<TRIPOS>ATOM
      1 C          -3.9790   -1.8759    1.0233 C.ar    1  LIG1        0.1410
      2 C          -3.1477   -2.3532    0.0105 C.ar    1  LIG1       -0.0223
      3 C          -2.9922   -1.5665   -1.1137 C.ar    1  LIG1       -0.0154
      4 C          -3.6390   -0.3355   -1.1991 C.ar    1  LIG1        0.1429
      5 C          -4.4435    0.0707   -0.1148 C.ar    1  LIG1        0.1165
      6 N          -4.6095   -0.7074    0.9570 N.ar    1  LIG1       -0.2326
      7 H          -2.3825   -1.8815   -1.9525 H       1  LIG1        0.0655
      8 H          -2.6548   -3.3130    0.1080 H       1  LIG1        0.0647
      9 N          -4.3841   -3.3261    3.1418 N.1     1  LIG1       -0.1893
     10 C          -4.2092   -2.6693    2.2074 C.1     1  LIG1        0.1191
     11 O          -3.5485    0.3480   -2.3658 O.3     1  LIG1       -0.5046
     12 H          -3.0640    1.1831   -2.2533 H       1  LIG1        0.2922
     13 C          -4.8320    2.5946   -0.4681 C.ar    1  LIG1        0.1502
     14 C          -5.2594    1.3171   -0.0826 C.ar    1  LIG1        0.0433
     15 C          -6.5532    1.2341    0.4252 C.ar    1  LIG1       -0.0060
     16 C          -7.3566    2.3588    0.4959 C.ar    1  LIG1        0.1435
     17 C          -6.8407    3.5937    0.0493 C.ar    1  LIG1        0.1166
     18 N          -5.6022    3.6802   -0.4083 N.ar    1  LIG1       -0.2319
     19 H          -6.9122    0.2738    0.7811 H       1  LIG1        0.0662
     20 N          -2.4034    2.9079   -1.3268 N.1     1  LIG1       -0.1893
     21 C          -3.4868    2.8148   -0.9305 C.1     1  LIG1        0.1198
     22 O          -8.6172    2.3232    0.9794 O.3     1  LIG1       -0.5046
     23 H          -8.8132    1.4440    1.3281 H       1  LIG1        0.2922
     24 C          -7.0557    6.0621    0.5070 C.ar    1  LIG1        0.1502
     25 C          -7.6269    4.8509    0.0845 C.ar    1  LIG1        0.0433
     26 C          -8.9565    4.8899   -0.3192 C.ar    1  LIG1       -0.0060
     27 C          -9.6450    6.0941   -0.3311 C.ar    1  LIG1        0.1435
     28 C          -8.9607    7.2667    0.0307 C.ar    1  LIG1        0.1166
     29 N          -7.7104    7.2216    0.4741 N.ar    1  LIG1       -0.2319
     30 H          -9.4626    3.9762   -0.6097 H       1  LIG1        0.0662
     31 N          -4.6830    6.2127    1.5556 N.1     1  LIG1       -0.1893
     32 C          -5.7245    6.1289    1.0626 C.1     1  LIG1        0.1198
     33 O         -10.9541    6.1917   -0.6368 O.3     1  LIG1       -0.5046
     34 H         -11.2550    5.4103   -1.1166 H       1  LIG1        0.2922
     35 C         -10.2892    9.1069   -1.1259 C.ar    1  LIG1        0.1495
     36 C          -9.5988    8.6083   -0.0073 C.ar    1  LIG1        0.0432
     37 C          -9.4634    9.4470    1.0906 C.ar    1  LIG1       -0.0066
     38 C         -10.0384   10.7099    1.0565 C.ar    1  LIG1        0.1356
     39 C         -10.7281   11.0969   -0.0950 C.ar    1  LIG1        0.0705
     40 N         -10.8392   10.3216   -1.1605 N.ar    1  LIG1       -0.2403
     41 H          -8.9100    9.1248    1.9644 H       1  LIG1        0.0662
     42 H         -11.1958   12.0792   -0.1523 H       1  LIG1        0.0867
     43 N         -10.4506    7.7352   -3.3275 N.1     1  LIG1       -0.1893
     44 C         -10.3918    8.3460   -2.3479 C.1     1  LIG1        0.1198
     45 O          -9.9076   11.5063    2.1379 O.3     1  LIG1       -0.5052
     46 H         -10.3384   12.3555    1.9788 H       1  LIG1        0.2922
@<TRIPOS>BOND
     1    43    44    3
     2    11    12    1
     3    11     4    1
     4    44    35    1
     5     7     3    1
     6    20    21    3
     7     4     3   ar
     8     4     5   ar
     9    40    35   ar
    10    40    39   ar
    11    35    36   ar
    12    34    33    1
    13     3     2   ar
    14    21    13    1
    15    33    27    1
    16    30    26    1
    17    13    18   ar
    18    13    14   ar
    19    18    17   ar
    20    27    26   ar
    21    27    28   ar
    22    26    25   ar
    23    42    39    1
    24     5    14    1
    25     5     6   ar
    26    39    38   ar
    27    14    15   ar
    28    36    28    1
    29    36    37   ar
    30     2     8    1
    31     2     1   ar
    32    28    29   ar
    33    17    25    1
    34    17    16   ar
    35    25    24   ar
    36    15    16   ar
    37    15    19    1
    38    29    24   ar
    39    16    22    1
    40    24    32    1
    41     6     1   ar
    42    22    23    1
    43     1    10    1
    44    38    37   ar
    45    38    45    1
    46    32    31    3
    47    37    41    1
    48    46    45    1
    49    10     9    3
