@<TRIPOS>MOLECULE
mol_data/opt/cam/geoms/mol2/6df6df6df6df.out
 46 49 0 0 0
SMALL
GASTEIGER

@<TRIPOS>ATOM
      1 C          -3.5617   -1.5471   -1.4816 C.ar    1  LIG1        0.1410
      2 C          -2.9186   -2.1629   -0.4052 C.ar    1  LIG1       -0.0223
      3 C          -3.1195   -1.6523    0.8618 C.ar    1  LIG1       -0.0154
      4 C          -3.9464   -0.5436    1.0178 C.ar    1  LIG1        0.1429
      5 C          -4.5396    0.0169   -0.1266 C.ar    1  LIG1        0.1165
      6 N          -4.3524   -0.4857   -1.3419 N.ar    1  LIG1       -0.2326
      7 H          -2.6602   -2.0936    1.7385 H       1  LIG1        0.0655
      8 H          -2.2834   -3.0249   -0.5701 H       1  LIG1        0.0647
      9 N          -3.1788   -2.4765   -3.8768 N.1     1  LIG1       -0.1893
     10 C          -3.3679   -2.0511   -2.8191 C.1     1  LIG1        0.1191
     11 O          -4.1330   -0.0674    2.2656 O.3     1  LIG1       -0.5046
     12 H          -4.8250    0.6077    2.2707 H       1  LIG1        0.2922
     13 C          -6.7356    1.2132   -0.5060 C.ar    1  LIG1        0.1502
     14 C          -5.4128    1.2178   -0.0287 C.ar    1  LIG1        0.0433
     15 C          -4.9384    2.3998    0.5247 C.ar    1  LIG1       -0.0060
     16 C          -5.7584    3.5234    0.5660 C.ar    1  LIG1        0.1435
     17 C          -7.0568    3.4189    0.0450 C.ar    1  LIG1        0.1166
     18 N          -7.5222    2.2840   -0.4629 N.ar    1  LIG1       -0.2319
     19 H          -3.9254    2.4781    0.9053 H       1  LIG1        0.0662
     20 N          -7.8156   -0.9463   -1.4647 N.1     1  LIG1       -0.1893
     21 C          -7.3261    0.0149   -1.0514 C.1     1  LIG1        0.1198
     22 O          -5.2561    4.6505    1.1049 O.3     1  LIG1       -0.5046
     23 H          -5.9401    5.3319    1.1615 H       1  LIG1        0.2922
     24 C          -9.1926    4.5591    0.7635 C.ar    1  LIG1        0.1502
     25 C          -7.9813    4.5853    0.0511 C.ar    1  LIG1        0.0433
     26 C          -7.6802    5.7398   -0.6583 C.ar    1  LIG1       -0.0060
     27 C          -8.5817    6.8002   -0.6634 C.ar    1  LIG1        0.1435
     28 C          -9.7738    6.6670    0.0662 C.ar    1  LIG1        0.1166
     29 N         -10.0516    5.5730    0.7654 N.ar    1  LIG1       -0.2319
     30 H          -6.7658    5.8261   -1.2359 H       1  LIG1        0.0662
     31 N          -9.8013    2.5052    2.2331 N.1     1  LIG1       -0.1893
     32 C          -9.5449    3.4146    1.5684 C.1     1  LIG1        0.1198
     33 O          -8.2556    7.9004   -1.3673 O.3     1  LIG1       -0.5046
     34 H          -8.9264    8.5866   -1.2461 H       1  LIG1        0.2922
     35 C         -11.1458    8.3787    1.3119 C.ar    1  LIG1        0.1495
     36 C         -10.7766    7.7660    0.1023 C.ar    1  LIG1        0.0432
     37 C         -11.3907    8.2115   -1.0624 C.ar    1  LIG1       -0.0066
     38 C         -12.3505    9.2164   -0.9818 C.ar    1  LIG1        0.1356
     39 C         -12.6552    9.7443    0.2751 C.ar    1  LIG1        0.0705
     40 N         -12.0648    9.3402    1.3883 N.ar    1  LIG1       -0.2403
     41 H         -11.1679    7.7660   -2.0264 H       1  LIG1        0.0662
     42 H         -13.4061   10.5269    0.3752 H       1  LIG1        0.0867
     43 N          -9.9384    7.7440    3.5229 N.1     1  LIG1       -0.1893
     44 C         -10.4947    8.0131    2.5467 C.1     1  LIG1        0.1198
     45 O         -12.9402    9.6277   -2.1200 O.3     1  LIG1       -0.5052
     46 H         -13.6064   10.3011   -1.9312 H       1  LIG1        0.2922
@<TRIPOS>BOND
     1     9    10    3
     2    10     1    1
     3    45    46    1
     4    45    38    1
     5    41    37    1
     6     1     6   ar
     7     1     2   ar
     8    20    21    3
     9    33    34    1
    10    33    27    1
    11     6     5   ar
    12    30    26    1
    13    37    38   ar
    14    37    36   ar
    15    21    13    1
    16    38    39   ar
    17    27    26   ar
    18    27    28   ar
    19    26    25   ar
    20     8     2    1
    21    13    18   ar
    22    13    14   ar
    23    18    17   ar
    24     2     3   ar
    25     5    14    1
    26     5     4   ar
    27    14    15   ar
    28    17    25    1
    29    17    16   ar
    30    25    24   ar
    31    28    36    1
    32    28    29   ar
    33    36    35   ar
    34    39    42    1
    35    39    40   ar
    36    15    16   ar
    37    15    19    1
    38    16    22    1
    39    24    29   ar
    40    24    32    1
    41     3     4   ar
    42     3     7    1
    43     4    11    1
    44    22    23    1
    45    35    40   ar
    46    35    44    1
    47    32    31    3
    48    11    12    1
    49    44    43    3
