@<TRIPOS>MOLECULE
mol_data/opt/cam/geoms/mol2/6df6df-6df6df-.out
 46 49 0 0 0
SMALL
GASTEIGER

@<TRIPOS>ATOM
      1 C          -3.9216   -1.8435    1.0517 C.ar    1  LIG1        0.1410
      2 C          -3.1768   -2.3550   -0.0104 C.ar    1  LIG1       -0.0223
      3 C          -3.1045   -1.5994   -1.1642 C.ar    1  LIG1       -0.0154
      4 C          -3.7476   -0.3659   -1.2307 C.ar    1  LIG1        0.1429
      5 C          -4.4656    0.0736   -0.1001 C.ar    1  LIG1        0.1165
      6 N          -4.5499   -0.6727    1.0032 N.ar    1  LIG1       -0.2326
      7 H          -2.5642   -1.9416   -2.0392 H       1  LIG1        0.0655
      8 H          -2.6841   -3.3162    0.0741 H       1  LIG1        0.0647
      9 N          -4.1505   -3.2277    3.2396 N.1     1  LIG1       -0.1893
     10 C          -4.0555   -2.6003    2.2739 C.1     1  LIG1        0.1191
     11 O          -3.7399    0.2926   -2.4164 O.3     1  LIG1       -0.5046
     12 H          -3.2249    1.1142   -2.3622 H       1  LIG1        0.2922
     13 C          -4.8552    2.5878   -0.4918 C.ar    1  LIG1        0.1502
     14 C          -5.2701    1.3264   -0.0433 C.ar    1  LIG1        0.0433
     15 C          -6.5202    1.2721    0.5665 C.ar    1  LIG1       -0.0060
     16 C          -7.3038    2.4102    0.6602 C.ar    1  LIG1        0.1435
     17 C          -6.8242    3.6129    0.1017 C.ar    1  LIG1        0.1166
     18 N          -5.6114    3.6852   -0.4229 N.ar    1  LIG1       -0.2319
     19 H          -6.8557    0.3310    0.9896 H       1  LIG1        0.0662
     20 N          -2.4763    2.8673   -1.4907 N.1     1  LIG1       -0.1893
     21 C          -3.5375    2.7816   -1.0360 C.1     1  LIG1        0.1198
     22 O          -8.4919    2.4419    1.2871 O.3     1  LIG1       -0.5046
     23 H          -8.7820    1.5518    1.5238 H       1  LIG1        0.2922
     24 C          -8.9413    4.9702   -0.3112 C.ar    1  LIG1        0.1502
     25 C          -7.6125    4.8709    0.1286 C.ar    1  LIG1        0.0433
     26 C          -7.0123    6.0470    0.5516 C.ar    1  LIG1       -0.0060
     27 C          -7.7234    7.2408    0.5868 C.ar    1  LIG1        0.1435
     28 C          -9.0684    7.2262    0.1654 C.ar    1  LIG1        0.1166
     29 N          -9.6287    6.1068   -0.2938 N.ar    1  LIG1       -0.2319
     30 H          -5.9724    6.0548    0.8553 H       1  LIG1        0.0662
     31 N         -10.1661    2.9479   -1.3923 N.1     1  LIG1       -0.1893
     32 C          -9.6297    3.8435   -0.8967 C.1     1  LIG1        0.1198
     33 O          -7.0486    8.3665    0.9226 O.3     1  LIG1       -0.5046
     34 H          -7.3896    8.7519    1.7467 H       1  LIG1        0.2922
     35 C         -10.0907    9.4112    1.0563 C.ar    1  LIG1        0.1495
     36 C          -9.9474    8.4258    0.0713 C.ar    1  LIG1        0.0432
     37 C         -10.7379    8.5630   -1.0694 C.ar    1  LIG1       -0.0066
     38 C         -11.5818    9.6535   -1.1935 C.ar    1  LIG1        0.1356
     39 C         -11.6227   10.5949   -0.1544 C.ar    1  LIG1        0.0705
     40 N         -10.9040   10.4692    0.9419 N.ar    1  LIG1       -0.2403
     41 H         -10.6843    7.8002   -1.8392 H       1  LIG1        0.0662
     42 H         -12.2755   11.4585   -0.2409 H       1  LIG1        0.0867
     43 N          -8.7456    9.1996    3.2652 N.1     1  LIG1       -0.1893
     44 C          -9.3753    9.3166    2.3004 C.1     1  LIG1        0.1198
     45 O         -12.3748    9.8751   -2.2593 O.3     1  LIG1       -0.5052
     46 H         -12.2835    9.1592   -2.9007 H       1  LIG1        0.2922
@<TRIPOS>BOND
     1    46    45    1
     2    11    12    1
     3    11     4    1
     4    45    38    1
     5     7     3    1
     6    41    37    1
     7    20    21    3
     8    31    32    3
     9     4     3   ar
    10     4     5   ar
    11    38    37   ar
    12    38    39   ar
    13     3     2   ar
    14    37    36   ar
    15    21    13    1
    16    32    24    1
    17    13    18   ar
    18    13    14   ar
    19    18    17   ar
    20    24    29   ar
    21    24    25   ar
    22    29    28   ar
    23    42    39    1
    24    39    40   ar
    25     5    14    1
    26     5     6   ar
    27    14    15   ar
    28     2     8    1
    29     2     1   ar
    30    36    28    1
    31    36    35   ar
    32    17    25    1
    33    17    16   ar
    34    25    26   ar
    35    28    27   ar
    36    26    27   ar
    37    26    30    1
    38    15    16   ar
    39    15    19    1
    40    27    33    1
    41    16    22    1
    42    33    34    1
    43    40    35   ar
    44     6     1   ar
    45     1    10    1
    46    35    44    1
    47    22    23    1
    48    10     9    3
    49    44    43    3
