@<TRIPOS>MOLECULE
mol_data/opt/cam/geoms/mol2/6df6df6df-6df.out
 46 49 0 0 0
SMALL
GASTEIGER

@<TRIPOS>ATOM
      1 C          -4.6156   -2.2652   -0.1059 C.ar    1  LIG1        0.1410
      2 C          -3.2269   -2.3799   -0.0059 C.ar    1  LIG1       -0.0223
      3 C          -2.4786   -1.2264    0.1182 C.ar    1  LIG1       -0.0154
      4 C          -3.1308    0.0032    0.1306 C.ar    1  LIG1        0.1429
      5 C          -4.5314    0.0210    0.0074 C.ar    1  LIG1        0.1165
      6 N          -5.2469   -1.0942   -0.0978 N.ar    1  LIG1       -0.2326
      7 H          -1.3994   -1.2496    0.2140 H       1  LIG1        0.0655
      8 H          -2.7576   -3.3563   -0.0201 H       1  LIG1        0.0647
      9 N          -6.0438   -4.4210   -0.3509 N.1     1  LIG1       -0.1893
     10 C          -5.4280   -3.4497   -0.2378 C.1     1  LIG1        0.1191
     11 O          -2.3749    1.1122    0.2651 O.3     1  LIG1       -0.5046
     12 H          -2.9338    1.8918    0.3837 H       1  LIG1        0.2922
     13 C          -6.3908    1.5290    0.8274 C.ar    1  LIG1        0.1502
     14 C          -5.2896    1.2988   -0.0146 C.ar    1  LIG1        0.0433
     15 C          -4.9679    2.3178   -0.8997 C.ar    1  LIG1       -0.0060
     16 C          -5.7064    3.4997   -0.9427 C.ar    1  LIG1        0.1435
     17 C          -6.8001    3.6262   -0.0629 C.ar    1  LIG1        0.1166
     18 N          -7.1099    2.6431    0.7853 N.ar    1  LIG1       -0.2319
     19 H          -4.1577    2.2095   -1.6135 H       1  LIG1        0.0662
     20 N          -7.1244   -0.1698    2.6518 N.1     1  LIG1       -0.1893
     21 C          -6.7985    0.5640    1.8214 C.1     1  LIG1        0.1198
     22 O          -5.3757    4.3832   -1.9079 O.3     1  LIG1       -0.5046
     23 H          -5.2390    5.2776   -1.5569 H       1  LIG1        0.2922
     24 C          -7.4429    6.1208   -0.0726 C.ar    1  LIG1        0.1502
     25 C          -7.7683    4.7589   -0.0440 C.ar    1  LIG1        0.0433
     26 C          -9.1213    4.4540    0.0824 C.ar    1  LIG1       -0.0060
     27 C         -10.0658    5.4660    0.1241 C.ar    1  LIG1        0.1435
     28 C          -9.6349    6.8049    0.0058 C.ar    1  LIG1        0.1166
     29 N          -8.3475    7.1027   -0.0528 N.ar    1  LIG1       -0.2319
     30 H          -9.4183    3.4147    0.1747 H       1  LIG1        0.0662
     31 N          -4.9450    6.8168   -0.1621 N.1     1  LIG1       -0.1893
     32 C          -6.0695    6.5468   -0.1006 C.1     1  LIG1        0.1198
     33 O         -11.3774    5.2460    0.3061 O.3     1  LIG1       -0.5046
     34 H         -11.5862    4.3065    0.2261 H       1  LIG1        0.2922
     35 C         -11.6854    8.0295   -0.8686 C.ar    1  LIG1        0.1495
     36 C         -10.5853    7.9473    0.0019 C.ar    1  LIG1        0.0432
     37 C         -10.3586    9.0162    0.8575 C.ar    1  LIG1       -0.0066
     38 C         -11.2354   10.0927    0.8457 C.ar    1  LIG1        0.1356
     39 C         -12.3147   10.0624   -0.0409 C.ar    1  LIG1        0.0705
     40 N         -12.5261    9.0645   -0.8825 N.ar    1  LIG1       -0.2403
     41 H          -9.5076    9.0172    1.5279 H       1  LIG1        0.0662
     42 H         -13.0250   10.8879   -0.0713 H       1  LIG1        0.0867
     43 N         -12.1041    6.1904   -2.6558 N.1     1  LIG1       -0.1893
     44 C         -11.9341    7.0078   -1.8566 C.1     1  LIG1        0.1198
     45 O         -11.0063   11.1177    1.6919 O.3     1  LIG1       -0.5052
     46 H         -11.6810   11.7994    1.5799 H       1  LIG1        0.2922
@<TRIPOS>BOND
     1    43    44    3
     2    22    23    1
     3    22    16    1
     4    44    35    1
     5    19    15    1
     6    16    15   ar
     7    16    17   ar
     8    15    14   ar
     9    40    35   ar
    10    40    39   ar
    11    35    36   ar
    12     9    10    3
    13    10     1    1
    14    31    32    3
    15     1     6   ar
    16     1     2   ar
    17    32    24    1
    18     6     5   ar
    19    24    29   ar
    20    24    25   ar
    21    42    39    1
    22    17    25    1
    23    17    18   ar
    24    29    28   ar
    25    25    26   ar
    26    39    38   ar
    27     8     2    1
    28    14     5    1
    29    14    13   ar
    30     2     3   ar
    31    36    28    1
    32    36    37   ar
    33    28    27   ar
    34     5     4   ar
    35    26    27   ar
    36    26    30    1
    37     3     4   ar
    38     3     7    1
    39    27    33    1
    40     4    11    1
    41    34    33    1
    42    11    12    1
    43    18    13   ar
    44    13    21    1
    45    38    37   ar
    46    38    45    1
    47    37    41    1
    48    46    45    1
    49    21    20    3
