@<TRIPOS>MOLECULE
mol_data/opt/cam/geoms/mol2/6df6df.out
 24 25 0 0 0
SMALL
GASTEIGER

@<TRIPOS>ATOM
      1 C          -4.4457   -1.9981   -0.6211 C.ar    1  LIG1        0.1410
      2 C          -3.1340   -2.0862   -0.1496 C.ar    1  LIG1       -0.0223
      3 C          -2.5647   -0.9673    0.4254 C.ar    1  LIG1       -0.0154
      4 C          -3.3137    0.2025    0.5067 C.ar    1  LIG1        0.1429
      5 C          -4.6229    0.2000   -0.0061 C.ar    1  LIG1        0.1165
      6 N          -5.1686   -0.8830   -0.5482 N.ar    1  LIG1       -0.2326
      7 H          -1.5560   -0.9754    0.8215 H       1  LIG1        0.0655
      8 H          -2.5857   -3.0169   -0.2327 H       1  LIG1        0.0647
      9 N          -5.5262   -4.0857   -1.7266 N.1     1  LIG1       -0.1893
     10 C          -5.0676   -3.1467   -1.2331 C.1     1  LIG1        0.1191
     11 O          -2.7398    1.2803    1.0813 O.3     1  LIG1       -0.5046
     12 H          -3.3876    1.9913    1.1777 H       1  LIG1        0.2922
     13 C          -6.7377    1.4277    0.6349 C.ar    1  LIG1        0.1495
     14 C          -5.4657    1.4257    0.0361 C.ar    1  LIG1        0.0432
     15 C          -5.0250    2.6120   -0.5412 C.ar    1  LIG1       -0.0066
     16 C          -5.8528    3.7298   -0.5202 C.ar    1  LIG1        0.1356
     17 C          -7.1038    3.6173    0.0890 C.ar    1  LIG1        0.0705
     18 N          -7.5303    2.4992    0.6535 N.ar    1  LIG1       -0.2403
     19 H          -4.0642    2.6734   -1.0416 H       1  LIG1        0.0662
     20 H          -7.7803    4.4707    0.1186 H       1  LIG1        0.0867
     21 N          -7.6461   -0.6579    1.8899 N.1     1  LIG1       -0.1893
     22 C          -7.2443    0.2576    1.3110 C.1     1  LIG1        0.1198
     23 O          -5.4083    4.8659   -1.0936 O.3     1  LIG1       -0.5052
     24 H          -6.0823    5.5552   -1.0373 H       1  LIG1        0.2922
@<TRIPOS>BOND
     1     9    10    3
     2    10     1    1
     3    23    24    1
     4    23    16    1
     5    19    15    1
     6     1     6   ar
     7     1     2   ar
     8     6     5   ar
     9    15    16   ar
    10    15    14   ar
    11    16    17   ar
    12     8     2    1
    13     2     3   ar
    14     5    14    1
    15     5     4   ar
    16    14    13   ar
    17    17    20    1
    18    17    18   ar
    19     3     4   ar
    20     3     7    1
    21     4    11    1
    22    13    18   ar
    23    13    22    1
    24    11    12    1
    25    22    21    3
