@<TRIPOS>MOLECULE
mol_data/opt/cam/geoms/mol2/6df6df-6df-6df-.out
 46 49 0 0 0
SMALL
GASTEIGER

@<TRIPOS>ATOM
      1 C          -4.4791   -2.1736    0.4171 C.ar    1  LIG1        0.1410
      2 C          -3.1730   -2.3769   -0.0277 C.ar    1  LIG1       -0.0223
      3 C          -2.4734   -1.2775   -0.4823 C.ar    1  LIG1       -0.0154
      4 C          -3.0667   -0.0158   -0.4718 C.ar    1  LIG1        0.1429
      5 C          -4.3889    0.0920    0.0090 C.ar    1  LIG1        0.1165
      6 N          -5.0654   -0.9807    0.4261 N.ar    1  LIG1       -0.2326
      7 H          -1.4619   -1.3594   -0.8624 H       1  LIG1        0.0655
      8 H          -2.7352   -3.3679   -0.0195 H       1  LIG1        0.0647
      9 N          -5.8945   -4.1940    1.2354 N.1     1  LIG1       -0.1893
     10 C          -5.2737   -3.2874    0.8772 C.1     1  LIG1        0.1191
     11 O          -2.3716    1.0004   -1.0298 O.3     1  LIG1       -0.5046
     12 H          -2.2167    1.7261   -0.4033 H       1  LIG1        0.2922
     13 C          -4.7755    2.6075    0.4282 C.ar    1  LIG1        0.1502
     14 C          -5.2012    1.3414    0.0052 C.ar    1  LIG1        0.0433
     15 C          -6.5310    1.2489   -0.3978 C.ar    1  LIG1       -0.0060
     16 C          -7.3452    2.3678   -0.4029 C.ar    1  LIG1        0.1435
     17 C          -6.8059    3.6048    0.0068 C.ar    1  LIG1        0.1166
     18 N          -5.5521    3.6900    0.4206 N.ar    1  LIG1       -0.2319
     19 H          -6.9182    0.2805   -0.6979 H       1  LIG1        0.0662
     20 N          -2.3586    2.8792    1.3328 N.1     1  LIG1       -0.1893
     21 C          -3.4482    2.7994    0.9507 C.1     1  LIG1        0.1198
     22 O          -8.6387    2.3251   -0.7921 O.3     1  LIG1       -0.5046
     23 H          -8.8657    1.4321   -1.0820 H       1  LIG1        0.2922
     24 C          -7.0531    6.0633   -0.4839 C.ar    1  LIG1        0.1502
     25 C          -7.5936    4.8619   -0.0000 C.ar    1  LIG1        0.0433
     26 C          -8.8897    4.9119    0.5002 C.ar    1  LIG1       -0.0060
     27 C          -9.5805    6.1134    0.5247 C.ar    1  LIG1        0.1435
     28 C          -8.9460    7.2701    0.0383 C.ar    1  LIG1        0.1166
     29 N          -7.7170    7.2167   -0.4577 N.ar    1  LIG1       -0.2319
     30 H          -9.3592    4.0087    0.8753 H       1  LIG1        0.0662
     31 N          -4.7414    6.1550   -1.6670 N.1     1  LIG1       -0.1893
     32 C          -5.7542    6.1104   -1.1131 C.1     1  LIG1        0.1198
     33 O         -10.8413    6.2209    1.0055 O.3     1  LIG1       -0.5046
     34 H         -11.1275    5.3749    1.3718 H       1  LIG1        0.2922
     35 C          -8.9459    9.7412    0.5225 C.ar    1  LIG1        0.1495
     36 C          -9.6075    8.5994    0.0494 C.ar    1  LIG1        0.0432
     37 C         -10.8989    8.7642   -0.4442 C.ar    1  LIG1       -0.0066
     38 C         -11.4620   10.0307   -0.4691 C.ar    1  LIG1        0.1356
     39 C         -10.7090   11.1066    0.0113 C.ar    1  LIG1        0.0705
     40 N          -9.4912   10.9620    0.5002 N.ar    1  LIG1       -0.2403
     41 H         -11.4542    7.9051   -0.8059 H       1  LIG1        0.0662
     42 H         -11.1342   12.1060   -0.0068 H       1  LIG1        0.0867
     43 N          -6.6122    9.6161    1.6580 N.1     1  LIG1       -0.1893
     44 C          -7.6382    9.6604    1.1285 C.1     1  LIG1        0.1198
     45 O         -12.7020   10.2950   -0.9362 O.3     1  LIG1       -0.5052
     46 H         -13.1246    9.4816   -1.2371 H       1  LIG1        0.2922
@<TRIPOS>BOND
     1    31    32    3
     2    46    45    1
     3    32    24    1
     4    23    22    1
     5    11     4    1
     6    11    12    1
     7    45    38    1
     8     7     3    1
     9    41    37    1
    10    22    16    1
    11    19    15    1
    12    24    29   ar
    13    24    25   ar
    14     3     4   ar
    15     3     2   ar
    16     4     5   ar
    17    38    37   ar
    18    38    39   ar
    19    29    28   ar
    20    37    36   ar
    21    16    15   ar
    22    16    17   ar
    23    15    14   ar
    24     2     8    1
    25     2     1   ar
    26    42    39    1
    27    25    17    1
    28    25    26   ar
    29    14     5    1
    30    14    13   ar
    31    17    18   ar
    32     5     6   ar
    33    39    40   ar
    34    28    36    1
    35    28    27   ar
    36    36    35   ar
    37     1     6   ar
    38     1    10    1
    39    18    13   ar
    40    13    21    1
    41    26    27   ar
    42    26    30    1
    43    40    35   ar
    44    35    44    1
    45    27    33    1
    46    10     9    3
    47    21    20    3
    48    33    34    1
    49    44    43    3
