@<TRIPOS>MOLECULE
mol_data/opt/cam/geoms/mol2/6df6df6df-6df-.out
 46 49 0 0 0
SMALL
GASTEIGER

@<TRIPOS>ATOM
      1 C          -4.4890   -2.1701   -0.6272 C.ar    1  LIG1        0.1410
      2 C          -3.2002   -2.3634   -0.1236 C.ar    1  LIG1       -0.0223
      3 C          -2.5675   -1.3008    0.4898 C.ar    1  LIG1       -0.0154
      4 C          -3.2295   -0.0792    0.5768 C.ar    1  LIG1        0.1429
      5 C          -4.5193    0.0251    0.0264 C.ar    1  LIG1        0.1165
      6 N          -5.1279   -1.0058   -0.5509 N.ar    1  LIG1       -0.2326
      7 H          -1.5737   -1.3906    0.9125 H       1  LIG1        0.0655
      8 H          -2.7190   -3.3300   -0.2119 H       1  LIG1        0.0647
      9 N          -5.6987   -4.1491   -1.7967 N.1     1  LIG1       -0.1893
     10 C          -5.1799   -3.2576   -1.2758 C.1     1  LIG1        0.1191
     11 O          -2.5906    0.9364    1.1922 O.3     1  LIG1       -0.5046
     12 H          -3.1811    1.6936    1.3027 H       1  LIG1        0.2922
     13 C          -6.5959    1.3789    0.5322 C.ar    1  LIG1        0.1502
     14 C          -5.2746    1.3043    0.0589 C.ar    1  LIG1        0.0433
     15 C          -4.7224    2.4847   -0.4148 C.ar    1  LIG1       -0.0060
     16 C          -5.4492    3.6762   -0.4199 C.ar    1  LIG1        0.1435
     17 C          -6.7718    3.6414    0.0680 C.ar    1  LIG1        0.1166
     18 N          -7.3012    2.5021    0.5198 N.ar    1  LIG1       -0.2319
     19 H          -3.7222    2.5106   -0.8350 H       1  LIG1        0.0662
     20 N          -7.8269   -0.6582    1.5746 N.1     1  LIG1       -0.1893
     21 C          -7.2702    0.2300    1.0890 C.1     1  LIG1        0.1198
     22 O          -4.8463    4.7327   -0.9954 O.3     1  LIG1       -0.5046
     23 H          -4.9618    5.5538   -0.4929 H       1  LIG1        0.2922
     24 C          -7.4894    6.0932    0.4268 C.ar    1  LIG1        0.1502
     25 C          -7.7419    4.7723    0.0368 C.ar    1  LIG1        0.0433
     26 C          -9.0477    4.4923   -0.3602 C.ar    1  LIG1       -0.0060
     27 C         -10.0032    5.4930   -0.3910 C.ar    1  LIG1        0.1435
     28 C          -9.6334    6.8018   -0.0138 C.ar    1  LIG1        0.1166
     29 N          -8.4031    7.0633    0.3954 N.ar    1  LIG1       -0.2319
     30 H          -9.3027    3.4744   -0.6369 H       1  LIG1        0.0662
     31 N          -5.1213    6.7092    1.2907 N.1     1  LIG1       -0.1893
     32 C          -6.1960    6.4740    0.9303 C.1     1  LIG1        0.1198
     33 O         -11.2779    5.2732   -0.7750 O.3     1  LIG1       -0.5046
     34 H         -11.3902    4.3523   -1.0444 H       1  LIG1        0.2922
     35 C         -10.2110    9.1737   -0.6162 C.ar    1  LIG1        0.1495
     36 C         -10.5824    7.9421   -0.0580 C.ar    1  LIG1        0.0432
     37 C         -11.8617    7.8405    0.4824 C.ar    1  LIG1       -0.0066
     38 C         -12.6957    8.9480    0.4671 C.ar    1  LIG1        0.1356
     39 C         -12.2210   10.1352   -0.1005 C.ar    1  LIG1        0.0705
     40 N         -11.0176   10.2396   -0.6331 N.ar    1  LIG1       -0.2403
     41 H         -12.1968    6.9020    0.9111 H       1  LIG1        0.0662
     42 H         -12.8614   11.0124   -0.1154 H       1  LIG1        0.0867
     43 N          -7.9356    9.5033   -1.8280 N.1     1  LIG1       -0.1893
     44 C          -8.9354    9.3530   -1.2683 C.1     1  LIG1        0.1198
     45 O         -13.9470    8.9563    0.9730 O.3     1  LIG1       -0.5052
     46 H         -14.1694    8.0889    1.3326 H       1  LIG1        0.2922
@<TRIPOS>BOND
     1    43    44    3
     2     9    10    3
     3    10     1    1
     4    44    35    1
     5    34    33    1
     6    22    23    1
     7    22    16    1
     8    19    15    1
     9    33    27    1
    10    30    26    1
    11    40    35   ar
    12    40    39   ar
    13     1     6   ar
    14     1     2   ar
    15    35    36   ar
    16     6     5   ar
    17    16    15   ar
    18    16    17   ar
    19    15    14   ar
    20    27    26   ar
    21    27    28   ar
    22    26    25   ar
    23     8     2    1
    24     2     3   ar
    25    42    39    1
    26    39    38   ar
    27    36    28    1
    28    36    37   ar
    29    28    29   ar
    30     5    14    1
    31     5     4   ar
    32    25    17    1
    33    25    24   ar
    34    14    13   ar
    35    17    18   ar
    36    29    24   ar
    37    24    32    1
    38    38    37   ar
    39    38    45    1
    40    37    41    1
    41     3     4   ar
    42     3     7    1
    43    18    13   ar
    44    13    21    1
    45     4    11    1
    46    32    31    3
    47    45    46    1
    48    21    20    3
    49    11    12    1
