@<TRIPOS>MOLECULE
mol_data/opt/cam/geoms/mol2/6df6df-4df6df.out
 47 50 0 0 0
SMALL
GASTEIGER

@<TRIPOS>ATOM
      1 C          -4.4326   -2.1607    0.4795 C.ar    1  LIG1        0.1410
      2 C          -3.1345   -2.3600    0.0102 C.ar    1  LIG1       -0.0223
      3 C          -2.4548   -1.2619   -0.4767 C.ar    1  LIG1       -0.0154
      4 C          -3.0596   -0.0058   -0.4745 C.ar    1  LIG1        0.1429
      5 C          -4.3736    0.0982    0.0296 C.ar    1  LIG1        0.1165
      6 N          -5.0302   -0.9734    0.4798 N.ar    1  LIG1       -0.2326
      7 H          -1.4502   -1.3407   -0.8756 H       1  LIG1        0.0655
      8 H          -2.6874   -3.3467    0.0256 H       1  LIG1        0.0647
      9 N          -5.8045   -4.1813    1.3681 N.1     1  LIG1       -0.1893
     10 C          -5.2044   -3.2740    0.9781 C.1     1  LIG1        0.1191
     11 O          -2.3817    1.0069   -1.0598 O.3     1  LIG1       -0.5046
     12 H          -2.2409    1.7518   -0.4533 H       1  LIG1        0.2922
     13 C          -4.7793    2.6154    0.4141 C.ar    1  LIG1        0.1502
     14 C          -5.1984    1.3395    0.0175 C.ar    1  LIG1        0.0433
     15 C          -6.5324    1.2294   -0.3670 C.ar    1  LIG1       -0.0060
     16 C          -7.3579    2.3406   -0.3785 C.ar    1  LIG1        0.1435
     17 C          -6.8253    3.5900    0.0072 C.ar    1  LIG1        0.1151
     18 N          -5.5664    3.6912    0.4009 N.ar    1  LIG1       -0.2320
     19 H          -6.9149    0.2539   -0.6493 H       1  LIG1        0.0662
     20 N          -2.3516    2.9345    1.2739 N.1     1  LIG1       -0.1893
     21 C          -3.4463    2.8306    0.9118 C.1     1  LIG1        0.1198
     22 O          -8.6526    2.2804   -0.7521 O.3     1  LIG1       -0.5046
     23 H          -8.8761    1.3845   -1.0355 H       1  LIG1        0.2922
     24 C          -7.0817    6.0328   -0.5202 C.ar    1  LIG1        0.0618
     25 C          -7.8393    7.2045   -0.4900 C.ar    1  LIG1       -0.0324
     26 C          -7.6244    4.8421   -0.0074 C.ar    1  LIG1        0.0248
     27 C          -9.1235    7.2345    0.0371 C.ar    1  LIG1        0.0276
     28 H          -7.4203    8.1096   -0.9153 H       1  LIG1        0.0638
     29 C          -8.9066    4.8697    0.5266 C.ar    1  LIG1       -0.0090
     30 C          -9.6486    6.0458    0.5637 C.ar    1  LIG1        0.1253
     31 H          -9.3357    3.9605    0.9324 H       1  LIG1        0.0661
     32 N          -4.7710    6.1916   -1.6794 N.1     1  LIG1       -0.1908
     33 C          -5.7882    6.0866   -1.1392 C.1     1  LIG1        0.0998
     34 O         -10.8733    6.1041    1.1294 O.3     1  LIG1       -0.5061
     35 H         -11.2186    5.2156    1.2780 H       1  LIG1        0.2922
     36 C         -11.1613    8.6189   -0.5662 C.ar    1  LIG1        0.1480
     37 C          -9.8997    8.4990    0.0452 C.ar    1  LIG1        0.0250
     38 C          -9.3698    9.6383    0.6370 C.ar    1  LIG1       -0.0081
     39 C         -10.0959   10.8229    0.6138 C.ar    1  LIG1        0.1355
     40 C         -11.3456   10.8258   -0.0083 C.ar    1  LIG1        0.0705
     41 N         -11.8607    9.7532   -0.5866 N.ar    1  LIG1       -0.2404
     42 H          -8.4048    9.6139    1.1304 H       1  LIG1        0.0661
     43 H         -11.9438   11.7358   -0.0392 H       1  LIG1        0.0867
     44 N         -12.2265    6.6009   -1.8100 N.1     1  LIG1       -0.1893
     45 C         -11.7617    7.4999   -1.2519 C.1     1  LIG1        0.1197
     46 O          -9.5611   11.9147    1.1993 O.3     1  LIG1       -0.5052
     47 H         -10.1644   12.6641    1.1181 H       1  LIG1        0.2922
@<TRIPOS>BOND
     1    44    45    3
     2    32    33    3
     3    45    36    1
     4    33    24    1
     5    11     4    1
     6    11    12    1
     7    23    22    1
     8    28    25    1
     9     7     3    1
    10    22    16    1
    11    19    15    1
    12    41    36   ar
    13    41    40   ar
    14    36    37   ar
    15    24    25   ar
    16    24    26   ar
    17    25    27   ar
    18     3     4   ar
    19     3     2   ar
    20     4     5   ar
    21    16    15   ar
    22    16    17   ar
    23    15    14   ar
    24    43    40    1
    25    40    39   ar
    26    26    17    1
    27    26    29   ar
    28    17    18   ar
    29     2     8    1
    30     2     1   ar
    31    14     5    1
    32    14    13   ar
    33     5     6   ar
    34    27    37    1
    35    27    30   ar
    36    37    38   ar
    37    18    13   ar
    38    13    21    1
    39     1     6   ar
    40     1    10    1
    41    29    30   ar
    42    29    31    1
    43    30    34    1
    44    39    38   ar
    45    39    46    1
    46    38    42    1
    47    21    20    3
    48    10     9    3
    49    47    46    1
    50    34    35    1
