@<TRIPOS>MOLECULE
mol_data/opt/cam/geoms/mol2/6dh12fi-12ea6fe-.out
 46 49 0 0 0
SMALL
GASTEIGER

@<TRIPOS>ATOM
      1 C          -4.0105   -1.6745   -1.4388 C.ar    1  LIG1        0.1410
      2 C          -2.7984   -1.8913   -0.7826 C.ar    1  LIG1       -0.0240
      3 C          -2.3788   -0.9523    0.1353 C.ar    1  LIG1       -0.0362
      4 C          -3.1585    0.1810    0.3990 C.ar    1  LIG1        0.0542
      5 C          -4.3700    0.3085   -0.3321 C.ar    1  LIG1        0.1316
      6 N          -4.7662   -0.6030   -1.2166 N.ar    1  LIG1       -0.2313
      7 H          -1.4461   -1.0904    0.6737 H       1  LIG1        0.0637
      8 H          -2.2082   -2.7746   -0.9953 H       1  LIG1        0.0646
      9 N          -4.8277   -3.4091   -3.1912 N.1     1  LIG1       -0.1893
     10 C          -4.4848   -2.6267   -2.4119 C.1     1  LIG1        0.1191
     11 N          -2.7843    1.0712    1.3725 N.pl3   1  LIG1       -0.3562
     12 H          -1.8459    0.9622    1.7249 H       1  LIG1        0.1424
     13 H          -3.0820    2.0340    1.2785 H       1  LIG1        0.1424
     14 C          -5.3013    1.4232   -0.1366 C.ar    1  LIG1        0.1972
     15 C          -5.1963    2.7549    0.1553 C.ar    1  LIG1        0.1679
     16 C          -6.5035    3.3233    0.1734 C.ar    1  LIG1        0.0406
     17 C          -7.3305    2.2819   -0.1453 C.ar    1  LIG1        0.1784
     18 O          -6.6222    1.1423   -0.3278 O.2     1  LIG1       -0.4460
     19 O          -4.0270    3.4220    0.3833 O.3     1  LIG1       -0.5030
     20 H          -4.2214    4.3406    0.6034 H       1  LIG1        0.2923
     21 C          -6.8391    4.7374    0.5167 C.3     1  LIG1       -0.0325
     22 H          -7.8777    4.8269    0.8353 H       1  LIG1        0.0280
     23 H          -6.7057    5.4124   -0.3341 H       1  LIG1        0.0280
     24 H          -6.2134    5.0990    1.3411 H       1  LIG1        0.0280
     25 C          -8.7586    2.1625   -0.2900 C.ar    1  LIG1        0.1862
     26 C          -9.7588    2.9845   -0.7433 C.ar    1  LIG1        0.0740
     27 C         -10.9772    2.2381   -0.6260 C.ar    1  LIG1        0.0005
     28 C         -10.6510    1.0173   -0.1253 C.ar    1  LIG1        0.1422
     29 O          -9.3004    0.9705    0.0853 O.2     1  LIG1       -0.4503
     30 C          -9.6254    4.2855   -1.2979 C.1     1  LIG1       -0.0657
     31 C          -9.5408    5.3845   -1.7819 C.1     1  LIG1       -0.1138
     32 H          -9.4680    6.3515   -2.2242 H       1  LIG1        0.1232
     33 H         -11.9562    2.5838   -0.9182 H       1  LIG1        0.0668
     34 C         -10.8437   -1.4341    0.4934 C.ar    1  LIG1        0.2233
     35 C         -11.4250   -0.1713    0.2106 C.ar    1  LIG1        0.0797
     36 C         -12.8130   -0.0920    0.2483 C.ar    1  LIG1       -0.0291
     37 C         -13.5834   -1.2142    0.5414 C.ar    1  LIG1        0.0437
     38 C         -12.8916   -2.4029    0.7993 C.ar    1  LIG1        0.0468
     39 N         -11.5732   -2.5050    0.7783 N.ar    1  LIG1       -0.2196
     40 H         -13.3052    0.8547    0.0558 H       1  LIG1        0.0639
     41 H         -13.4456   -3.3076    1.0362 H       1  LIG1        0.0843
     42 O          -9.5261   -1.6583    0.4994 O.3     1  LIG1       -0.4919
     43 H          -9.0311   -0.8496    0.3011 H       1  LIG1        0.2937
     44 C         -15.0102   -1.1605    0.5868 C.1     1  LIG1       -0.0681
     45 C         -16.2127   -1.1192    0.6256 C.1     1  LIG1       -0.1139
     46 H         -17.2772   -1.0863    0.6599 H       1  LIG1        0.1232
@<TRIPOS>BOND
     1     9    10    3
     2    10     1    1
     3    32    31    1
     4    31    30    3
     5     1     6   ar
     6     1     2   ar
     7    30    26    1
     8     6     5   ar
     9     8     2    1
    10    33    27    1
    11     2     3   ar
    12    26    27   ar
    13    26    25   ar
    14    27    28   ar
    15    23    21    1
    16     5    14    1
    17     5     4   ar
    18    18    17   ar
    19    18    14   ar
    20    25    17    1
    21    25    29   ar
    22    17    16   ar
    23    14    15   ar
    24    28    29   ar
    25    28    35    1
    26    40    36    1
    27     3     4   ar
    28     3     7    1
    29    15    16   ar
    30    15    19    1
    31    16    21    1
    32    35    36   ar
    33    35    34   ar
    34    36    37   ar
    35    43    42    1
    36    19    20    1
    37     4    11    1
    38    34    42    1
    39    34    39   ar
    40    21    22    1
    41    21    24    1
    42    37    44    1
    43    37    38   ar
    44    44    45    3
    45    45    46    1
    46    39    38   ar
    47    38    41    1
    48    13    11    1
    49    11    12    1
