@<TRIPOS>MOLECULE
mol_data/opt/cam/geoms/mol2/6dh13ia-13fl13ae.out
 48 51 0 0 0
SMALL
GASTEIGER

@<TRIPOS>ATOM
      1 C          -4.4367   -1.9835    0.6956 C.ar    1  LIG1        0.1409
      2 C          -3.1904   -2.2389    0.1324 C.ar    1  LIG1       -0.0240
      3 C          -2.5683   -1.2150   -0.5591 C.ar    1  LIG1       -0.0362
      4 C          -3.1797    0.0349   -0.6601 C.ar    1  LIG1        0.0524
      5 C          -4.4075    0.2269    0.0294 C.ar    1  LIG1        0.1093
      6 N          -5.0194   -0.7834    0.6471 N.ar    1  LIG1       -0.2330
      7 H          -1.6169   -1.3863   -1.0535 H       1  LIG1        0.0637
      8 H          -2.7387   -3.2200    0.2150 H       1  LIG1        0.0646
      9 N          -5.7390   -3.8893    1.8866 N.1     1  LIG1       -0.1893
     10 C          -5.1652   -3.0321    1.3638 C.1     1  LIG1        0.1191
     11 N          -2.6166    1.0446   -1.4051 N.pl3   1  LIG1       -0.3563
     12 H          -1.9490    0.7643   -2.1070 H       1  LIG1        0.1424
     13 H          -3.2504    1.7726   -1.7016 H       1  LIG1        0.1424
     14 C          -5.1460    1.4925    0.0294 C.ar    1  LIG1        0.0702
     15 C          -4.8136    2.8415    0.0959 C.ar    1  LIG1       -0.0230
     16 C          -6.0347    3.5592    0.1643 C.ar    1  LIG1       -0.0313
     17 C          -7.0743    2.6502    0.1659 C.ar    1  LIG1        0.0674
     18 N          -6.5220    1.4044    0.0710 N.ar    1  LIG1       -0.3515
     19 H          -6.9701    0.5264    0.2872 H       1  LIG1        0.1660
     20 C          -3.4603    3.4839    0.2028 C.3     1  LIG1       -0.0376
     21 H          -3.5163    4.3360    0.8845 H       1  LIG1        0.0278
     22 H          -3.0954    3.8705   -0.7560 H       1  LIG1        0.0278
     23 H          -2.7053    2.7962    0.5834 H       1  LIG1        0.0278
     24 H          -6.1487    4.6315    0.2252 H       1  LIG1        0.0642
     25 C          -8.4987    2.8547    0.2396 C.ar    1  LIG1        0.1091
     26 C          -9.2252    3.9623    0.6025 C.ar    1  LIG1        0.1865
     27 C         -10.6042    3.6346    0.5216 C.ar    1  LIG1        0.1888
     28 C         -10.7111    2.3257    0.1113 C.ar    1  LIG1        0.1094
     29 N          -9.4201    1.8441   -0.0268 N.ar    1  LIG1       -0.3460
     30 H          -9.2138    1.1102   -0.6881 H       1  LIG1        0.1662
     31 O          -8.7298    5.1572    1.0135 O.3     1  LIG1       -0.5019
     32 H          -9.4429    5.6111    1.4840 H       1  LIG1        0.2924
     33 O         -11.5976    4.4937    0.9014 O.3     1  LIG1       -0.4895
     34 C         -12.0152    5.3782   -0.1341 C.3     1  LIG1        0.0791
     35 H         -12.7807    6.0253    0.2957 H       1  LIG1        0.0660
     36 H         -11.1800    5.9887   -0.4960 H       1  LIG1        0.0660
     37 H         -12.4379    4.8256   -0.9795 H       1  LIG1        0.0660
     38 C         -11.8629    1.4751   -0.0970 C.ar    1  LIG1        0.0678
     39 C         -13.1444    1.7510   -0.5085 C.ar    1  LIG1       -0.0194
     40 C         -13.8677    0.5213   -0.5296 C.ar    1  LIG1        0.0426
     41 C         -12.9948   -0.4680   -0.1276 C.ar    1  LIG1        0.0177
     42 N         -11.7872    0.1141    0.1204 N.ar    1  LIG1       -0.3583
     43 H         -11.0039   -0.3435    0.5580 H       1  LIG1        0.1654
     44 H         -13.1538   -1.5275   -0.0045 H       1  LIG1        0.0819
     45 H         -13.5322    2.7190   -0.7840 H       1  LIG1        0.0651
     46 C         -15.2272    0.3359   -0.9061 C.1     1  LIG1       -0.0682
     47 C         -16.3784    0.1870   -1.2264 C.1     1  LIG1       -0.1139
     48 H         -17.3971    0.0533   -1.5073 H       1  LIG1        0.1232
@<TRIPOS>BOND
     1    12    11    1
     2    13    11    1
     3    48    47    1
     4    11     4    1
     5    47    46    3
     6     7     3    1
     7    37    34    1
     8    46    40    1
     9    45    39    1
    10    22    20    1
    11    30    29    1
    12     4     3   ar
    13     4     5   ar
    14     3     2   ar
    15    40    39   ar
    16    40    41   ar
    17    39    38   ar
    18    36    34    1
    19    34    35    1
    20    34    33    1
    21    41    44    1
    22    41    42   ar
    23    38    28    1
    24    38    42   ar
    25    29    28   ar
    26    29    25   ar
    27    14     5    1
    28    14    18   ar
    29    14    15   ar
    30     5     6   ar
    31    18    17   ar
    32    18    19    1
    33    15    16   ar
    34    15    20    1
    35    28    27   ar
    36    42    43    1
    37     2     8    1
    38     2     1   ar
    39    16    17   ar
    40    16    24    1
    41    17    25    1
    42    20    23    1
    43    20    21    1
    44    25    26   ar
    45    27    26   ar
    46    27    33    1
    47    26    31    1
    48     6     1   ar
    49     1    10    1
    50    31    32    1
    51    10     9    3
