@<TRIPOS>MOLECULE
mol_data/opt/cam/geoms/mol2/6dh4ia13lh-13fe-.out
 52 55 0 0 0
SMALL
GASTEIGER

@<TRIPOS>ATOM
      1 C          -3.6428   -1.9161    1.0530 C.ar    1  LIG1        0.1408
      2 C          -2.9428   -2.3733   -0.0605 C.ar    1  LIG1       -0.0240
      3 C          -3.0040   -1.6297   -1.2237 C.ar    1  LIG1       -0.0363
      4 C          -3.7477   -0.4485   -1.2496 C.ar    1  LIG1        0.0510
      5 C          -4.3974   -0.0484   -0.0536 C.ar    1  LIG1        0.0932
      6 N          -4.3519   -0.7831    1.0498 N.ar    1  LIG1       -0.2345
      7 H          -2.4859   -1.9624   -2.1180 H       1  LIG1        0.0637
      8 H          -2.3754   -3.2952   -0.0115 H       1  LIG1        0.0646
      9 N          -3.5939   -3.3114    3.2433 N.1     1  LIG1       -0.1893
     10 C          -3.6265   -2.6761    2.2776 C.1     1  LIG1        0.1191
     11 N          -3.8312    0.3180   -2.3898 N.pl3   1  LIG1       -0.3563
     12 H          -3.6248   -0.1381   -3.2646 H       1  LIG1        0.1424
     13 H          -4.5917    0.9807   -2.4287 H       1  LIG1        0.1424
     14 C          -4.6675    2.4766   -0.1186 C.ar    1  LIG1       -0.0406
     15 C          -5.5106    3.5823   -0.0709 C.ar    1  LIG1       -0.0490
     16 C          -5.2277    1.1907   -0.0095 C.ar    1  LIG1        0.0051
     17 C          -6.8947    3.4568    0.1008 C.ar    1  LIG1        0.0022
     18 H          -5.0885    4.5772   -0.1558 H       1  LIG1        0.0627
     19 C          -6.6028    1.0618    0.1869 C.ar    1  LIG1       -0.0516
     20 C          -7.4286    2.1714    0.2438 C.ar    1  LIG1       -0.0519
     21 H          -7.0214    0.0685    0.3129 H       1  LIG1        0.0624
     22 C          -3.1790    2.6799   -0.2459 C.3     1  LIG1       -0.0391
     23 H          -2.9285    3.7398   -0.1756 H       1  LIG1        0.0278
     24 H          -2.7990    2.3019   -1.1992 H       1  LIG1        0.0278
     25 H          -2.6429    2.1522    0.5481 H       1  LIG1        0.0278
     26 H          -8.4892    2.0388    0.4313 H       1  LIG1        0.0624
     27 C          -7.7505    4.6362    0.1334 C.ar    1  LIG1        0.0911
     28 C          -7.4598    5.9707    0.3262 C.ar    1  LIG1        0.1664
     29 C          -8.6609    6.7304    0.2463 C.ar    1  LIG1        0.0947
     30 C          -9.6756    5.8337   -0.0088 C.ar    1  LIG1        0.0916
     31 N          -9.1210    4.5561   -0.0328 N.ar    1  LIG1       -0.3485
     32 H          -9.5319    3.8252   -0.5937 H       1  LIG1        0.1661
     33 O          -6.2349    6.5221    0.5919 O.3     1  LIG1       -0.4911
     34 C          -6.0158    6.7649    1.9803 C.3     1  LIG1        0.0790
     35 H          -5.0453    7.2560    2.0650 H       1  LIG1        0.0660
     36 H          -6.7948    7.4157    2.3908 H       1  LIG1        0.0660
     37 H          -5.9994    5.8243    2.5411 H       1  LIG1        0.0660
     38 N          -8.7388    8.1000    0.4880 N.pl3   1  LIG1       -0.3534
     39 H          -7.8665    8.5592    0.2570 H       1  LIG1        0.1425
     40 H          -9.5176    8.5394    0.0086 H       1  LIG1        0.1425
     41 C         -11.0945    6.0437   -0.1711 C.ar    1  LIG1        0.1081
     42 C         -11.8075    7.1073   -0.6696 C.ar    1  LIG1        0.1589
     43 C         -13.1997    6.8071   -0.5856 C.ar    1  LIG1        0.0840
     44 C         -13.2971    5.5447   -0.0338 C.ar    1  LIG1        0.0213
     45 N         -12.0364    5.0949    0.2009 N.ar    1  LIG1       -0.3554
     46 H         -11.8065    4.2694    0.7293 H       1  LIG1        0.1655
     47 H         -14.1701    4.9568    0.2002 H       1  LIG1        0.0820
     48 O         -11.2606    8.2505   -1.1713 O.3     1  LIG1       -0.5035
     49 H         -11.9853    8.8369   -1.4288 H       1  LIG1        0.2923
     50 C         -14.2269    7.6797   -1.0284 C.1     1  LIG1       -0.0645
     51 C         -15.0399    8.4779   -1.4235 C.1     1  LIG1       -0.1137
     52 H         -15.7809    9.1626   -1.7662 H       1  LIG1        0.1232
@<TRIPOS>BOND
     1    12    11    1
     2    13    11    1
     3    11     4    1
     4     7     3    1
     5    52    51    1
     6    49    48    1
     7    51    50    3
     8     4     3   ar
     9     4     5   ar
    10     3     2   ar
    11    24    22    1
    12    48    42    1
    13    50    43    1
    14    42    43   ar
    15    42    41   ar
    16    32    31    1
    17    43    44   ar
    18    22    23    1
    19    22    14    1
    20    22    25    1
    21    41    30    1
    22    41    45   ar
    23    18    15    1
    24    14    15   ar
    25    14    16   ar
    26    15    17   ar
    27     2     8    1
    28     2     1   ar
    29     5    16    1
    30     5     6   ar
    31    44    47    1
    32    44    45   ar
    33    31    30   ar
    34    31    27   ar
    35    16    19   ar
    36    30    29   ar
    37    40    38    1
    38    17    27    1
    39    17    20   ar
    40    27    28   ar
    41    19    20   ar
    42    19    21    1
    43    45    46    1
    44    20    26    1
    45    29    28   ar
    46    29    38    1
    47    39    38    1
    48    28    33    1
    49    33    34    1
    50     6     1   ar
    51     1    10    1
    52    34    35    1
    53    34    36    1
    54    34    37    1
    55    10     9    3
