@<TRIPOS>MOLECULE
mol_data/opt/cam/geoms/mol2/6dh4ii-6ll6ad.out
 57 60 0 0 0
SMALL
GASTEIGER

@<TRIPOS>ATOM
      1 C          -3.3241   -1.4619    1.4122 C.ar    1  LIG1        0.1408
      2 C          -2.8831   -2.1804    0.3038 C.ar    1  LIG1       -0.0240
      3 C          -3.2516   -1.7401   -0.9532 C.ar    1  LIG1       -0.0363
      4 C          -4.0393   -0.5943   -1.0794 C.ar    1  LIG1        0.0510
      5 C          -4.4146    0.0824    0.1083 C.ar    1  LIG1        0.0933
      6 N          -4.0737   -0.3600    1.3107 N.ar    1  LIG1       -0.2345
      7 H          -2.9388   -2.2822   -1.8403 H       1  LIG1        0.0637
      8 H          -2.2739   -3.0673    0.4323 H       1  LIG1        0.0646
      9 N          -2.6830   -2.2768    3.7936 N.1     1  LIG1       -0.1893
     10 C          -2.9779   -1.8990    2.7413 C.1     1  LIG1        0.1191
     11 N          -4.4177   -0.1171   -2.3140 N.pl3   1  LIG1       -0.3563
     12 H          -4.3895   -0.7673   -3.0839 H       1  LIG1        0.1424
     13 H          -5.2034    0.5166   -2.3283 H       1  LIG1        0.1424
     14 C          -4.8005    2.5223   -0.4502 C.ar    1  LIG1       -0.0406
     15 C          -5.6767    3.6048   -0.4509 C.ar    1  LIG1       -0.0501
     16 C          -5.2741    1.3027    0.0539 C.ar    1  LIG1        0.0054
     17 C          -6.9853    3.5164    0.0226 C.ar    1  LIG1       -0.0095
     18 H          -5.3289    4.5581   -0.8388 H       1  LIG1        0.0627
     19 C          -6.5730    1.2205    0.5533 C.ar    1  LIG1       -0.0488
     20 C          -7.4485    2.3013    0.5505 C.ar    1  LIG1       -0.0419
     21 H          -6.9034    0.2763    0.9756 H       1  LIG1        0.0627
     22 C          -3.3853    2.6881   -0.9403 C.3     1  LIG1       -0.0391
     23 H          -3.1772    3.7339   -1.1752 H       1  LIG1        0.0278
     24 H          -3.1989    2.0947   -1.8400 H       1  LIG1        0.0278
     25 H          -2.6664    2.3634   -0.1829 H       1  LIG1        0.0278
     26 C          -8.8334    2.1536    1.1195 C.3     1  LIG1       -0.0391
     27 H          -8.9296    1.2155    1.6693 H       1  LIG1        0.0278
     28 H          -9.5831    2.1666    0.3242 H       1  LIG1        0.0278
     29 H          -9.0731    2.9723    1.8037 H       1  LIG1        0.0278
     30 C          -9.0000    4.8601   -0.7650 C.ar    1  LIG1        0.2232
     31 C          -7.8266    4.7422    0.0025 C.ar    1  LIG1        0.0474
     32 C          -7.4558    5.8685    0.7192 C.ar    1  LIG1       -0.0050
     33 C          -8.2274    7.0324    0.6876 C.ar    1  LIG1        0.1468
     34 C          -9.3905    7.0365   -0.0914 C.ar    1  LIG1        0.1178
     35 N          -9.7328    5.9500   -0.8005 N.ar    1  LIG1       -0.2086
     36 H          -6.5539    5.8224    1.3163 H       1  LIG1        0.0662
     37 O          -9.3689    3.7923   -1.5056 O.3     1  LIG1       -0.4792
     38 C         -10.5355    3.9332   -2.3058 C.3     1  LIG1        0.0804
     39 H         -10.6671    2.9718   -2.8013 H       1  LIG1        0.0660
     40 H         -11.4100    4.1682   -1.6946 H       1  LIG1        0.0660
     41 H         -10.4090    4.7243   -3.0493 H       1  LIG1        0.0660
     42 O          -7.9032    8.1644    1.3695 O.3     1  LIG1       -0.4929
     43 C          -6.6838    8.1991    2.0862 C.3     1  LIG1        0.0789
     44 H          -6.6141    9.1999    2.5106 H       1  LIG1        0.0660
     45 H          -6.6715    7.4630    2.8974 H       1  LIG1        0.0660
     46 H          -5.8264    8.0267    1.4265 H       1  LIG1        0.0660
     47 C         -11.1165    8.2872   -1.3687 C.ar    1  LIG1        0.0369
     48 C         -10.3003    8.2010   -0.2318 C.ar    1  LIG1        0.0234
     49 C         -10.4253    9.2171    0.7117 C.ar    1  LIG1       -0.0321
     50 C         -11.3350   10.2477    0.4757 C.ar    1  LIG1        0.0704
     51 C         -12.0894   10.2334   -0.6979 C.ar    1  LIG1        0.0449
     52 N         -11.9817    9.2688   -1.6049 N.ar    1  LIG1       -0.2613
     53 H          -9.8336    9.2130    1.6153 H       1  LIG1        0.0638
     54 H         -12.8000   11.0297   -0.9019 H       1  LIG1        0.0842
     55 H         -11.0507    7.5061   -2.1183 H       1  LIG1        0.0836
     56 N         -11.6273   12.1691    2.1887 N.1     1  LIG1       -0.1908
     57 C         -11.4965   11.3106    1.4248 C.1     1  LIG1        0.1007
@<TRIPOS>BOND
     1    12    11    1
     2    41    38    1
     3    39    38    1
     4    13    11    1
     5    11     4    1
     6    38    40    1
     7    38    37    1
     8    55    47    1
     9     7     3    1
    10    24    22    1
    11    52    47   ar
    12    52    51   ar
    13    37    30    1
    14    47    48   ar
    15    23    22    1
    16     4     3   ar
    17     4     5   ar
    18     3     2   ar
    19    22    14    1
    20    22    25    1
    21    54    51    1
    22    18    15    1
    23    35    30   ar
    24    35    34   ar
    25    30    31   ar
    26    51    50   ar
    27    15    14   ar
    28    15    17   ar
    29    14    16   ar
    30    48    34    1
    31    48    49   ar
    32    34    33   ar
    33    31    17    1
    34    31    32   ar
    35    17    20   ar
    36    16     5    1
    37    16    19   ar
    38     5     6   ar
    39     2     8    1
    40     2     1   ar
    41    28    26    1
    42    50    49   ar
    43    50    57    1
    44    20    19   ar
    45    20    26    1
    46    19    21    1
    47    33    32   ar
    48    33    42    1
    49    49    53    1
    50    32    36    1
    51    26    27    1
    52    26    29    1
    53     6     1   ar
    54    42    43    1
    55     1    10    1
    56    57    56    3
    57    46    43    1
    58    43    44    1
    59    43    45    1
    60    10     9    3
