@<TRIPOS>MOLECULE
mol_data/opt/cam/geoms/mol2/6dh6af12di6dd-.out
 46 49 0 0 0
SMALL
GASTEIGER

@<TRIPOS>ATOM
      1 C          -4.4079   -2.1734   -0.3631 C.ar    1  LIG1        0.1408
      2 C          -3.0154   -2.2155   -0.4230 C.ar    1  LIG1       -0.0240
      3 C          -2.3265   -1.0209   -0.4040 C.ar    1  LIG1       -0.0363
      4 C          -3.0205    0.1903   -0.3122 C.ar    1  LIG1        0.0510
      5 C          -4.4338    0.1236   -0.2098 C.ar    1  LIG1        0.0946
      6 N          -5.0869   -1.0330   -0.2596 N.ar    1  LIG1       -0.2345
      7 H          -1.2428   -1.0114   -0.4691 H       1  LIG1        0.0637
      8 H          -2.4965   -3.1639   -0.4951 H       1  LIG1        0.0646
      9 N          -5.7538   -4.3926   -0.4596 N.1     1  LIG1       -0.1893
     10 C          -5.1726   -3.3943   -0.4129 C.1     1  LIG1        0.1191
     11 N          -2.3325    1.3831   -0.3006 N.pl3   1  LIG1       -0.3563
     12 H          -1.3807    1.3493   -0.6332 H       1  LIG1        0.1424
     13 H          -2.8342    2.2093   -0.5891 H       1  LIG1        0.1424
     14 C          -6.5427    1.3533   -0.7192 C.ar    1  LIG1        0.0378
     15 C          -5.2915    1.3288   -0.0775 C.ar    1  LIG1        0.0238
     16 C          -4.9468    2.4278    0.6949 C.ar    1  LIG1       -0.0072
     17 C          -5.8202    3.5111    0.7849 C.ar    1  LIG1        0.1464
     18 C          -7.0179    3.4557    0.0639 C.ar    1  LIG1        0.1485
     19 N          -7.3681    2.3792   -0.6539 N.ar    1  LIG1       -0.2475
     20 H          -4.0304    2.4626    1.2727 H       1  LIG1        0.0662
     21 H          -6.8614    0.4948   -1.3006 H       1  LIG1        0.0836
     22 O          -5.4416    4.5324    1.5820 O.3     1  LIG1       -0.5045
     23 H          -6.1486    5.1831    1.6744 H       1  LIG1        0.2922
     24 C          -7.9829    4.5608    0.0638 C.ar    1  LIG1        0.1749
     25 C          -7.8711    5.9250   -0.0745 C.ar    1  LIG1        0.1025
     26 C          -9.2025    6.4704   -0.0569 C.ar    1  LIG1        0.0135
     27 C         -10.0172    5.3897    0.0882 C.ar    1  LIG1        0.1427
     28 O          -9.2825    4.2412    0.1629 O.2     1  LIG1       -0.4515
     29 N          -5.7195    7.3063   -0.4104 N.1     1  LIG1       -0.1907
     30 C          -6.6779    6.6739   -0.2657 C.1     1  LIG1        0.1033
     31 C          -9.5547    7.9177   -0.1616 C.3     1  LIG1       -0.0349
     32 H         -10.5824    8.1024    0.1553 H       1  LIG1        0.0279
     33 H          -9.4433    8.2802   -1.1881 H       1  LIG1        0.0279
     34 H          -8.8931    8.5203    0.4652 H       1  LIG1        0.0279
     35 C         -12.0843    4.4175    1.1427 C.ar    1  LIG1        0.1507
     36 C         -11.4690    5.2460    0.1860 C.ar    1  LIG1        0.0546
     37 C         -12.3107    5.9404   -0.6789 C.ar    1  LIG1       -0.0295
     38 C         -13.6887    5.7857   -0.5645 C.ar    1  LIG1        0.0706
     39 C         -14.1884    4.9157    0.4101 C.ar    1  LIG1        0.0464
     40 N         -13.4039    4.2509    1.2432 N.ar    1  LIG1       -0.2426
     41 H         -11.8948    6.5791   -1.4490 H       1  LIG1        0.0639
     42 H         -15.2584    4.7623    0.5132 H       1  LIG1        0.0843
     43 N         -10.6731    3.1883    2.9463 N.1     1  LIG1       -0.1893
     44 C         -11.2963    3.7178    2.1306 C.1     1  LIG1        0.1198
     45 N         -15.3051    7.0573   -2.1377 N.1     1  LIG1       -0.1908
     46 C         -14.5832    6.4881   -1.4369 C.1     1  LIG1        0.1007
@<TRIPOS>BOND
     1    45    46    3
     2    41    37    1
     3    46    38    1
     4    21    14    1
     5    33    31    1
     6    14    19   ar
     7    14    15   ar
     8    37    38   ar
     9    37    36   ar
    10    19    18   ar
    11    12    11    1
    12    13    11    1
    13    38    39   ar
    14     8     2    1
    15     7     3    1
    16     9    10    3
    17     2     3   ar
    18     2     1   ar
    19    10     1    1
    20    29    30    3
    21     3     4   ar
    22     1     6   ar
    23     4    11    1
    24     4     5   ar
    25    30    25    1
    26     6     5   ar
    27     5    15    1
    28    31    26    1
    29    31    32    1
    30    31    34    1
    31    15    16   ar
    32    25    26   ar
    33    25    24   ar
    34    26    27   ar
    35    24    18    1
    36    24    28   ar
    37    18    17   ar
    38    27    28   ar
    39    27    36    1
    40    36    35   ar
    41    39    42    1
    42    39    40   ar
    43    16    17   ar
    44    16    20    1
    45    17    22    1
    46    35    40   ar
    47    35    44    1
    48    22    23    1
    49    44    43    3
