@<TRIPOS>MOLECULE
mol_data/opt/cam/geoms/mol2/6dh6dh-6dh6dh-.out
 50 53 0 0 0
SMALL
GASTEIGER

@<TRIPOS>ATOM
      1 C          -4.3793   -2.1230   -0.8402 C.ar    1  LIG1        0.1408
      2 C          -3.0539   -2.2765   -0.4314 C.ar    1  LIG1       -0.0240
      3 C          -2.4192   -1.1981    0.1445 C.ar    1  LIG1       -0.0363
      4 C          -3.0943    0.0203    0.2976 C.ar    1  LIG1        0.0511
      5 C          -4.4181    0.0866   -0.2032 C.ar    1  LIG1        0.0958
      6 N          -5.0337   -0.9695   -0.7239 N.ar    1  LIG1       -0.2344
      7 H          -1.3976   -1.2880    0.5000 H       1  LIG1        0.0637
      8 H          -2.5474   -3.2261   -0.5566 H       1  LIG1        0.0646
      9 N          -5.6494   -4.1491   -1.8526 N.1     1  LIG1       -0.1893
     10 C          -5.0988   -3.2346   -1.4084 C.1     1  LIG1        0.1191
     11 N          -2.4991    1.0514    0.9807 N.pl3   1  LIG1       -0.3563
     12 H          -1.4918    1.0291    1.0302 H       1  LIG1        0.1424
     13 H          -2.8631    1.9804    0.8478 H       1  LIG1        0.1424
     14 C          -4.8970    2.5630   -0.6583 C.ar    1  LIG1        0.1500
     15 C          -5.2618    1.3140   -0.1285 C.ar    1  LIG1        0.0398
     16 C          -6.5185    1.2258    0.4453 C.ar    1  LIG1       -0.0270
     17 C          -7.3714    2.3309    0.5094 C.ar    1  LIG1        0.0517
     18 C          -6.9017    3.5379   -0.0689 C.ar    1  LIG1        0.0958
     19 N          -5.6967    3.6287   -0.6121 N.ar    1  LIG1       -0.2337
     20 H          -6.8411    0.2737    0.8530 H       1  LIG1        0.0644
     21 N          -2.5995    2.9100   -1.8203 N.1     1  LIG1       -0.1893
     22 C          -3.6329    2.7631   -1.3217 C.1     1  LIG1        0.1198
     23 N          -8.5617    2.2371    1.1822 N.pl3   1  LIG1       -0.3563
     24 H          -9.2782    2.9139    0.9775 H       1  LIG1        0.1424
     25 H          -8.9257    1.3050    1.3115 H       1  LIG1        0.1424
     26 C          -8.9627    4.9632   -0.6076 C.ar    1  LIG1        0.1500
     27 C          -7.6771    4.8119   -0.0630 C.ar    1  LIG1        0.0398
     28 C          -7.0870    5.9485    0.4631 C.ar    1  LIG1       -0.0270
     29 C          -7.7477    7.1802    0.4655 C.ar    1  LIG1        0.0517
     30 C          -9.0329    7.2194   -0.1342 C.ar    1  LIG1        0.0958
     31 N          -9.6053    6.1314   -0.6277 N.ar    1  LIG1       -0.2337
     32 H          -6.0911    5.8740    0.8863 H       1  LIG1        0.0644
     33 N         -10.2332    2.9573   -1.6610 N.1     1  LIG1       -0.1893
     34 C          -9.6657    3.8603   -1.2128 C.1     1  LIG1        0.1198
     35 N          -7.1870    8.2566    1.0984 N.pl3   1  LIG1       -0.3563
     36 H          -6.1878    8.2288    1.2335 H       1  LIG1        0.1424
     37 H          -7.5336    9.1756    0.8775 H       1  LIG1        0.1424
     38 C          -9.4505    9.6520   -0.8049 C.ar    1  LIG1        0.1493
     39 C          -9.8691    8.4519   -0.2087 C.ar    1  LIG1        0.0398
     40 C         -11.1693    8.4006    0.2776 C.ar    1  LIG1       -0.0276
     41 C         -11.9988    9.5175    0.1904 C.ar    1  LIG1        0.0436
     42 C         -11.4542   10.6743   -0.4004 C.ar    1  LIG1        0.0497
     43 N         -10.2326   10.7360   -0.8865 N.ar    1  LIG1       -0.2421
     44 H         -11.5321    7.4758    0.7131 H       1  LIG1        0.0644
     45 H         -12.0584   11.5762   -0.4809 H       1  LIG1        0.0849
     46 N          -7.0871    9.8698   -1.8606 N.1     1  LIG1       -0.1893
     47 C          -8.1477    9.7787   -1.4080 C.1     1  LIG1        0.1198
     48 N         -13.2747    9.5190    0.6926 N.pl3   1  LIG1       -0.3568
     49 H         -13.8991   10.2467    0.3828 H       1  LIG1        0.1424
     50 H         -13.7168    8.6284    0.8559 H       1  LIG1        0.1424
@<TRIPOS>BOND
     1    46    47    3
     2     9    10    3
     3    21    22    3
     4    33    34    3
     5    10     1    1
     6    47    38    1
     7    22    14    1
     8    34    26    1
     9    43    38   ar
    10    43    42   ar
    11     1     6   ar
    12     1     2   ar
    13    38    39   ar
    14     6     5   ar
    15    14    19   ar
    16    14    15   ar
    17    31    26   ar
    18    31    30   ar
    19    19    18   ar
    20    26    27   ar
    21     8     2    1
    22    45    42    1
    23     2     3   ar
    24    42    41   ar
    25    39    30    1
    26    39    40   ar
    27     5    15    1
    28     5     4   ar
    29    30    29   ar
    30    15    16   ar
    31    18    27    1
    32    18    17   ar
    33    27    28   ar
    34     3     4   ar
    35     3     7    1
    36    41    40   ar
    37    41    48    1
    38    40    44    1
    39     4    11    1
    40    49    48    1
    41    16    17   ar
    42    16    20    1
    43    28    29   ar
    44    28    32    1
    45    29    35    1
    46    17    23    1
    47    48    50    1
    48    13    11    1
    49    37    35    1
    50    24    23    1
    51    11    12    1
    52    35    36    1
    53    23    25    1
