@<TRIPOS>MOLECULE
mol_data/opt/cam/geoms/mol2/6dh6dh-6dh-6dh-.out
 50 53 0 0 0
SMALL
GASTEIGER

@<TRIPOS>ATOM
      1 C          -4.3389   -2.1823   -0.1291 C.ar    1  LIG1        0.1408
      2 C          -2.9956   -2.2260    0.2476 C.ar    1  LIG1       -0.0240
      3 C          -2.3546   -1.0398    0.5307 C.ar    1  LIG1       -0.0363
      4 C          -3.0514    0.1739    0.4513 C.ar    1  LIG1        0.0511
      5 C          -4.4278    0.0999    0.1200 C.ar    1  LIG1        0.0958
      6 N          -5.0277   -1.0437   -0.1881 N.ar    1  LIG1       -0.2344
      7 H          -1.3029   -1.0336    0.7985 H       1  LIG1        0.0637
      8 H          -2.4724   -3.1733    0.3018 H       1  LIG1        0.0646
      9 N          -5.5729   -4.3801   -0.7531 N.1     1  LIG1       -0.1893
     10 C          -5.0391   -3.3929   -0.4747 C.1     1  LIG1        0.1191
     11 N          -2.3901    1.3606    0.6146 N.pl3   1  LIG1       -0.3563
     12 H          -1.5206    1.3386    1.1238 H       1  LIG1        0.1424
     13 H          -2.9226    2.2039    0.7523 H       1  LIG1        0.1424
     14 C          -5.4832    2.2100    1.0904 C.ar    1  LIG1        0.1500
     15 C          -5.2965    1.3068    0.0312 C.ar    1  LIG1        0.0398
     16 C          -6.0056    1.5465   -1.1353 C.ar    1  LIG1       -0.0270
     17 C          -6.8379    2.6605   -1.2526 C.ar    1  LIG1        0.0517
     18 C          -6.9183    3.5233   -0.1321 C.ar    1  LIG1        0.0958
     19 N          -6.2643    3.2863    0.9924 N.ar    1  LIG1       -0.2337
     20 H          -5.9058    0.8512   -1.9621 H       1  LIG1        0.0644
     21 N          -4.3456    1.8149    3.3926 N.1     1  LIG1       -0.1893
     22 C          -4.8626    1.9985    2.3746 C.1     1  LIG1        0.1198
     23 N          -7.5583    2.8912   -2.3967 N.pl3   1  LIG1       -0.3563
     24 H          -7.8911    3.8276   -2.5669 H       1  LIG1        0.1424
     25 H          -7.2873    2.3817   -3.2230 H       1  LIG1        0.1424
     26 C          -7.1699    6.0216    0.0795 C.ar    1  LIG1        0.1500
     27 C          -7.7407    4.7625   -0.1628 C.ar    1  LIG1        0.0398
     28 C          -9.1043    4.7184   -0.4017 C.ar    1  LIG1       -0.0270
     29 C          -9.8737    5.8875   -0.3973 C.ar    1  LIG1        0.0517
     30 C          -9.1819    7.1074   -0.1992 C.ar    1  LIG1        0.0958
     31 N          -7.8808    7.1466    0.0564 N.ar    1  LIG1       -0.2337
     32 H          -9.5906    3.7609   -0.5618 H       1  LIG1        0.0644
     33 N          -4.6169    6.2855    0.4821 N.1     1  LIG1       -0.1893
     34 C          -5.7551    6.1656    0.3200 C.1     1  LIG1        0.1198
     35 N         -11.2364    5.8172   -0.5062 N.pl3   1  LIG1       -0.3563
     36 H         -11.7438    6.6563   -0.7336 H       1  LIG1        0.1424
     37 H         -11.6232    4.9809   -0.9151 H       1  LIG1        0.1424
     38 C         -10.5929    8.9047   -1.3210 C.ar    1  LIG1        0.1493
     39 C          -9.8626    8.4327   -0.2184 C.ar    1  LIG1        0.0398
     40 C          -9.7276    9.2790    0.8730 C.ar    1  LIG1       -0.0276
     41 C         -10.3282   10.5386    0.8612 C.ar    1  LIG1        0.0436
     42 C         -11.0642   10.8874   -0.2900 C.ar    1  LIG1        0.0497
     43 N         -11.1841   10.1060   -1.3423 N.ar    1  LIG1       -0.2421
     44 H          -9.1381    8.9538    1.7236 H       1  LIG1        0.0644
     45 H         -11.5582   11.8559   -0.3416 H       1  LIG1        0.0849
     46 N         -10.7976    7.4556   -3.4673 N.1     1  LIG1       -0.1893
     47 C         -10.7088    8.1199   -2.5243 C.1     1  LIG1        0.1198
     48 N         -10.1937   11.4178    1.8975 N.pl3   1  LIG1       -0.3568
     49 H         -10.7949   12.2237    1.9391 H       1  LIG1        0.1424
     50 H          -9.8268   11.0918    2.7759 H       1  LIG1        0.1424
@<TRIPOS>BOND
     1    46    47    3
     2    25    23    1
     3    24    23    1
     4    47    38    1
     5    23    17    1
     6    20    16    1
     7    43    38   ar
     8    43    42   ar
     9    38    39   ar
    10    17    16   ar
    11    17    18   ar
    12    16    15   ar
    13    37    35    1
    14     9    10    3
    15    36    35    1
    16    32    28    1
    17    35    29    1
    18    10     1    1
    19    28    29   ar
    20    28    27   ar
    21    29    30   ar
    22    45    42    1
    23    42    41   ar
    24    39    30    1
    25    39    40   ar
    26    30    31   ar
    27     6     1   ar
    28     6     5   ar
    29    27    18    1
    30    27    26   ar
    31    18    19   ar
    32     1     2   ar
    33    15     5    1
    34    15    14   ar
    35    31    26   ar
    36    26    34    1
    37     5     4   ar
    38     2     8    1
    39     2     3   ar
    40    34    33    3
    41     4     3   ar
    42     4    11    1
    43     3     7    1
    44    11    13    1
    45    11    12    1
    46    41    40   ar
    47    41    48    1
    48    40    44    1
    49    19    14   ar
    50    14    22    1
    51    48    49    1
    52    48    50    1
    53    22    21    3
