@<TRIPOS>MOLECULE
mol_data/opt/cam/geoms/mol2/6dh6dh6dh-6dh-.out
 50 53 0 0 0
SMALL
GASTEIGER

@<TRIPOS>ATOM
      1 C          -4.1415   -1.9148    1.2124 C.ar    1  LIG1        0.1408
      2 C          -3.0457   -2.2474    0.4159 C.ar    1  LIG1       -0.0240
      3 C          -2.6728   -1.3762   -0.5870 C.ar    1  LIG1       -0.0363
      4 C          -3.3858   -0.1890   -0.7797 C.ar    1  LIG1        0.0511
      5 C          -4.4710    0.0607    0.0932 C.ar    1  LIG1        0.0958
      6 N          -4.8314   -0.7878    1.0468 N.ar    1  LIG1       -0.2344
      7 H          -1.8309   -1.6082   -1.2319 H       1  LIG1        0.0637
      8 H          -2.5087   -3.1735    0.5834 H       1  LIG1        0.0646
      9 N          -4.8568   -3.5367    3.1099 N.1     1  LIG1       -0.1893
     10 C          -4.5606   -2.8010    2.2690 C.1     1  LIG1        0.1191
     11 N          -3.0162    0.7059   -1.7604 N.pl3   1  LIG1       -0.3563
     12 H          -2.4384    0.3413   -2.5024 H       1  LIG1        0.1424
     13 H          -3.7200    1.3570   -2.0740 H       1  LIG1        0.1424
     14 C          -6.6862    1.2545   -0.1197 C.ar    1  LIG1        0.1500
     15 C          -5.2862    1.3017   -0.0079 C.ar    1  LIG1        0.0398
     16 C          -4.6991    2.5554    0.0281 C.ar    1  LIG1       -0.0270
     17 C          -5.4738    3.7220   -0.0128 C.ar    1  LIG1        0.0517
     18 C          -6.8788    3.5513   -0.0371 C.ar    1  LIG1        0.0958
     19 N          -7.4387    2.3506   -0.1293 N.ar    1  LIG1       -0.2337
     20 H          -3.6184    2.6404    0.0874 H       1  LIG1        0.0644
     21 N          -7.9686   -0.9768   -0.4689 N.1     1  LIG1       -0.1893
     22 C          -7.3901    0.0066   -0.2837 C.1     1  LIG1        0.1198
     23 N          -4.8643    4.9449   -0.1025 N.pl3   1  LIG1       -0.3563
     24 H          -3.9163    5.0087    0.2354 H       1  LIG1        0.1424
     25 H          -5.4093    5.7726    0.0764 H       1  LIG1        0.1424
     26 C          -7.8466    5.7069    0.9337 C.ar    1  LIG1        0.1500
     27 C          -7.8393    4.6890   -0.0337 C.ar    1  LIG1        0.0398
     28 C          -8.8279    4.7367   -1.0057 C.ar    1  LIG1       -0.0270
     29 C          -9.7565    5.7762   -1.0319 C.ar    1  LIG1        0.0517
     30 C          -9.6392    6.7712   -0.0320 C.ar    1  LIG1        0.0958
     31 N          -8.7177    6.7171    0.9138 N.ar    1  LIG1       -0.2337
     32 H          -8.8717    3.9459   -1.7471 H       1  LIG1        0.0644
     33 N          -6.1695    5.6779    2.9176 N.1     1  LIG1       -0.1893
     34 C          -6.9270    5.6976    2.0441 C.1     1  LIG1        0.1198
     35 N         -10.7545    5.8181   -1.9747 N.pl3   1  LIG1       -0.3563
     36 H         -11.1857    6.7114   -2.1549 H       1  LIG1        0.1424
     37 H         -10.6412    5.2328   -2.7876 H       1  LIG1        0.1424
     38 C         -10.0481    9.2519   -0.1355 C.ar    1  LIG1        0.1493
     39 C         -10.5495    7.9495    0.0023 C.ar    1  LIG1        0.0398
     40 C         -11.9164    7.7962    0.1937 C.ar    1  LIG1       -0.0276
     41 C         -12.7397    8.9228    0.2714 C.ar    1  LIG1        0.0436
     42 C         -12.1195   10.1780    0.1265 C.ar    1  LIG1        0.0497
     43 N         -10.8261   10.3364   -0.0748 N.ar    1  LIG1       -0.2421
     44 H         -12.3369    6.8017    0.3093 H       1  LIG1        0.0644
     45 H         -12.7195   11.0847    0.1800 H       1  LIG1        0.0849
     46 N          -7.5294    9.6386   -0.6404 N.1     1  LIG1       -0.1893
     47 C          -8.6476    9.4754   -0.3965 C.1     1  LIG1        0.1198
     48 N         -14.0827    8.8266    0.5158 N.pl3   1  LIG1       -0.3568
     49 H         -14.6627    9.6356    0.3670 H       1  LIG1        0.1424
     50 H         -14.5376    7.9349    0.4128 H       1  LIG1        0.1424
@<TRIPOS>BOND
     1    37    35    1
     2    12    11    1
     3    36    35    1
     4    13    11    1
     5    35    29    1
     6    11     4    1
     7    32    28    1
     8     7     3    1
     9    29    28   ar
    10    29    30   ar
    11    28    27   ar
    12     4     3   ar
    13     4     5   ar
    14    46    47    3
    15     3     2   ar
    16    21    22    3
    17    47    38    1
    18    22    14    1
    19    38    43   ar
    20    38    39   ar
    21    19    14   ar
    22    19    18   ar
    23    14    15   ar
    24    23    17    1
    25    23    25    1
    26    23    24    1
    27    43    42   ar
    28    18    27    1
    29    18    17   ar
    30    27    26   ar
    31    30    39    1
    32    30    31   ar
    33    17    16   ar
    34    15    16   ar
    35    15     5    1
    36    39    40   ar
    37    16    20    1
    38     5     6   ar
    39    42    45    1
    40    42    41   ar
    41    40    41   ar
    42    40    44    1
    43    41    48    1
    44    49    48    1
    45    50    48    1
    46     2     8    1
    47     2     1   ar
    48    31    26   ar
    49    26    34    1
    50     6     1   ar
    51     1    10    1
    52    34    33    3
    53    10     9    3
