@<TRIPOS>MOLECULE
mol_data/opt/cam/geoms/mol2/6dh6dh-.out
 26 27 0 0 0
SMALL
GASTEIGER

@<TRIPOS>ATOM
      1 C          -4.4551   -1.9859    0.5343 C.ar    1  LIG1        0.1408
      2 C          -3.1491   -2.1078    0.0592 C.ar    1  LIG1       -0.0240
      3 C          -2.5482   -0.9978   -0.4934 C.ar    1  LIG1       -0.0363
      4 C          -3.2387    0.2196   -0.5578 C.ar    1  LIG1        0.0511
      5 C          -4.5392    0.2501    0.0047 C.ar    1  LIG1        0.0958
      6 N          -5.1231   -0.8338    0.5028 N.ar    1  LIG1       -0.2344
      7 H          -1.5432   -1.0616   -0.8985 H       1  LIG1        0.0637
      8 H          -2.6307   -3.0576    0.1162 H       1  LIG1        0.0646
      9 N          -5.6688   -4.0629    1.5125 N.1     1  LIG1       -0.1893
     10 C          -5.1409   -3.1277    1.0838 C.1     1  LIG1        0.1191
     11 N          -2.6858    1.2899   -1.2130 N.pl3   1  LIG1       -0.3563
     12 H          -1.6816    1.2912   -1.3058 H       1  LIG1        0.1424
     13 H          -3.0697    2.2042   -1.0395 H       1  LIG1        0.1424
     14 C          -4.9974    2.6887    0.6175 C.ar    1  LIG1        0.1493
     15 C          -5.3877    1.4763    0.0267 C.ar    1  LIG1        0.0398
     16 C          -6.6695    1.4082   -0.5033 C.ar    1  LIG1       -0.0276
     17 C          -7.5079    2.5211   -0.4627 C.ar    1  LIG1        0.0436
     18 C          -6.9918    3.6909    0.1283 C.ar    1  LIG1        0.0497
     19 N          -5.7880    3.7691    0.6554 N.ar    1  LIG1       -0.2421
     20 H          -7.0108    0.4735   -0.9350 H       1  LIG1        0.0644
     21 H          -7.6046    4.5895    0.1736 H       1  LIG1        0.0849
     22 N          -2.6730    2.9317    1.7524 N.1     1  LIG1       -0.1893
     23 C          -3.7162    2.8307    1.2627 C.1     1  LIG1        0.1198
     24 N          -8.7656    2.5059   -1.0094 N.pl3   1  LIG1       -0.3568
     25 H          -9.4065    3.2312   -0.7290 H       1  LIG1        0.1424
     26 H          -9.1940    1.6089   -1.1750 H       1  LIG1        0.1424
@<TRIPOS>BOND
     1    12    11    1
     2    11    13    1
     3    11     4    1
     4    26    24    1
     5    24    25    1
     6    24    17    1
     7    20    16    1
     8     7     3    1
     9     4     3   ar
    10     4     5   ar
    11    16    17   ar
    12    16    15   ar
    13     3     2   ar
    14    17    18   ar
    15     5    15    1
    16     5     6   ar
    17    15    14   ar
    18     2     8    1
    19     2     1   ar
    20    18    21    1
    21    18    19   ar
    22     6     1   ar
    23     1    10    1
    24    14    19   ar
    25    14    23    1
    26    10     9    3
    27    23    22    3
