@<TRIPOS>MOLECULE
mol_data/opt/cam/geoms/mol2/6dh6dh-6dh-6dh.out
 50 53 0 0 0
SMALL
GASTEIGER

@<TRIPOS>ATOM
      1 C          -4.4939   -2.2377    0.1130 C.ar    1  LIG1        0.1408
      2 C          -3.1013   -2.3104    0.1747 C.ar    1  LIG1       -0.0240
      3 C          -2.3813   -1.1366    0.1388 C.ar    1  LIG1       -0.0363
      4 C          -3.0450    0.0955    0.0561 C.ar    1  LIG1        0.0511
      5 C          -4.4622    0.0595    0.0649 C.ar    1  LIG1        0.0958
      6 N          -5.1470   -1.0782    0.0601 N.ar    1  LIG1       -0.2344
      7 H          -1.2963   -1.1567    0.1549 H       1  LIG1        0.0637
      8 H          -2.6050   -3.2717    0.2362 H       1  LIG1        0.0646
      9 N          -5.8975   -4.4222    0.0846 N.1     1  LIG1       -0.1893
     10 C          -5.2874   -3.4401    0.1012 C.1     1  LIG1        0.1191
     11 N          -2.3311    1.2521   -0.1048 N.pl3   1  LIG1       -0.3563
     12 H          -1.3675    1.2426    0.1910 H       1  LIG1        0.1424
     13 H          -2.7913    2.1355    0.0416 H       1  LIG1        0.1424
     14 C          -5.2017    2.3393    0.9454 C.ar    1  LIG1        0.1500
     15 C          -5.2986    1.2911    0.0156 C.ar    1  LIG1        0.0398
     16 C          -6.2688    1.4098   -0.9674 C.ar    1  LIG1       -0.0270
     17 C          -7.0814    2.5411   -1.0413 C.ar    1  LIG1        0.0517
     18 C          -6.8679    3.5522   -0.0733 C.ar    1  LIG1        0.0958
     19 N          -5.9604    3.4333    0.8819 N.ar    1  LIG1       -0.2337
     20 H          -6.3903    0.6037   -1.6832 H       1  LIG1        0.0644
     21 N          -3.5389    2.1963    2.9367 N.1     1  LIG1       -0.1893
     22 C          -4.2890    2.2707    2.0598 C.1     1  LIG1        0.1198
     23 N          -8.0565    2.6502   -2.0030 N.pl3   1  LIG1       -0.3563
     24 H          -8.3866    3.5751   -2.2308 H       1  LIG1        0.1424
     25 H          -7.9957    2.0200   -2.7875 H       1  LIG1        0.1424
     26 C          -6.9966    6.0673   -0.1061 C.ar    1  LIG1        0.1500
     27 C          -7.6436    4.8212   -0.0760 C.ar    1  LIG1        0.0398
     28 C          -9.0274    4.8312   -0.0315 C.ar    1  LIG1       -0.0270
     29 C          -9.7420    6.0349    0.0154 C.ar    1  LIG1        0.0517
     30 C          -8.9824    7.2294    0.0542 C.ar    1  LIG1        0.0958
     31 N          -7.6577    7.2188   -0.0422 N.ar    1  LIG1       -0.2337
     32 H          -9.5718    3.8916   -0.0284 H       1  LIG1        0.0644
     33 N          -4.4251    6.2379   -0.4339 N.1     1  LIG1       -0.1893
     34 C          -5.5655    6.1609   -0.2614 C.1     1  LIG1        0.1198
     35 N         -11.1120    6.0173   -0.0564 N.pl3   1  LIG1       -0.3563
     36 H         -11.6100    6.8380    0.2477 H       1  LIG1        0.1424
     37 H         -11.5614    5.1606    0.2305 H       1  LIG1        0.1424
     38 C         -10.4898    8.9988    1.1228 C.ar    1  LIG1        0.1493
     39 C          -9.5876    8.5902    0.1273 C.ar    1  LIG1        0.0398
     40 C          -9.1918    9.5409   -0.8049 C.ar    1  LIG1       -0.0276
     41 C          -9.7047   10.8365   -0.7516 C.ar    1  LIG1        0.0436
     42 C         -10.6305   11.1165    0.2739 C.ar    1  LIG1        0.0497
     43 N         -11.0000   10.2360    1.1789 N.ar    1  LIG1       -0.2421
     44 H          -8.4641    9.2646   -1.5602 H       1  LIG1        0.0644
     45 H         -11.0667   12.1107    0.3519 H       1  LIG1        0.0849
     46 N         -11.2387    7.3711    3.0034 N.1     1  LIG1       -0.1893
     47 C         -10.8990    8.1101    2.1807 C.1     1  LIG1        0.1198
     48 N          -9.3147   11.8108   -1.6270 N.pl3   1  LIG1       -0.3568
     49 H          -8.8047   11.5524   -2.4549 H       1  LIG1        0.1424
     50 H          -9.8500   12.6611   -1.6837 H       1  LIG1        0.1424
@<TRIPOS>BOND
     1    25    23    1
     2    49    48    1
     3    24    23    1
     4    23    17    1
     5    50    48    1
     6    20    16    1
     7    48    41    1
     8    44    40    1
     9    17    16   ar
    10    17    18   ar
    11    16    15   ar
    12    40    41   ar
    13    40    39   ar
    14    41    42   ar
    15    33    34    3
    16    34    26    1
    17    26    27   ar
    18    26    31   ar
    19    11    13    1
    20    11     4    1
    21    11    12    1
    22    27    18    1
    23    27    28   ar
    24    18    19   ar
    25    35    29    1
    26    35    37    1
    27    35    36    1
    28    31    30   ar
    29    28    32    1
    30    28    29   ar
    31    29    30   ar
    32    15     5    1
    33    15    14   ar
    34    30    39    1
    35     4     5   ar
    36     4     3   ar
    37     6     5   ar
    38     6     1   ar
    39     9    10    3
    40    10     1    1
    41     1     2   ar
    42    39    38   ar
    43     3     7    1
    44     3     2   ar
    45     2     8    1
    46    42    45    1
    47    42    43   ar
    48    19    14   ar
    49    14    22    1
    50    38    43   ar
    51    38    47    1
    52    22    21    3
    53    47    46    3
