@<TRIPOS>MOLECULE
mol_data/opt/cam/geoms/mol2/6dh6dh.out
 26 27 0 0 0
SMALL
GASTEIGER

@<TRIPOS>ATOM
      1 C          -4.4342   -1.9421    0.7796 C.ar    1  LIG1        0.1408
      2 C          -3.1369   -2.0868    0.2889 C.ar    1  LIG1       -0.0240
      3 C          -2.5646   -1.0259   -0.3839 C.ar    1  LIG1       -0.0363
      4 C          -3.2865    0.1588   -0.5531 C.ar    1  LIG1        0.0511
      5 C          -4.5907    0.2042   -0.0088 C.ar    1  LIG1        0.0958
      6 N          -5.1385   -0.8207    0.6283 N.ar    1  LIG1       -0.2344
      7 H          -1.5595   -1.1072   -0.7860 H       1  LIG1        0.0637
      8 H          -2.5988   -3.0163    0.4320 H       1  LIG1        0.0646
      9 N          -5.5220   -3.9160    2.0696 N.1     1  LIG1       -0.1893
     10 C          -5.0606   -3.0265    1.4931 C.1     1  LIG1        0.1191
     11 N          -2.7328    1.2469   -1.1937 N.pl3   1  LIG1       -0.3563
     12 H          -1.9510    1.0548   -1.8015 H       1  LIG1        0.1424
     13 H          -3.3784    1.9271   -1.5658 H       1  LIG1        0.1424
     14 C          -6.6590    1.4108   -0.8074 C.ar    1  LIG1        0.1493
     15 C          -5.4321    1.4286   -0.1286 C.ar    1  LIG1        0.0398
     16 C          -5.0332    2.6238    0.4568 C.ar    1  LIG1       -0.0276
     17 C          -5.8584    3.7483    0.3829 C.ar    1  LIG1        0.0436
     18 C          -7.0709    3.6042   -0.3153 C.ar    1  LIG1        0.0497
     19 N          -7.4529    2.4823   -0.8935 N.ar    1  LIG1       -0.2421
     20 H          -4.0892    2.6723    0.9912 H       1  LIG1        0.0644
     21 H          -7.7492    4.4516   -0.3987 H       1  LIG1        0.0849
     22 N          -7.4514   -0.7083   -2.0836 N.1     1  LIG1       -0.1893
     23 C          -7.1081    0.2266   -1.4968 C.1     1  LIG1        0.1198
     24 N          -5.5342    4.9318    0.9949 N.pl3   1  LIG1       -0.3568
     25 H          -4.5799    5.0825    1.2778 H       1  LIG1        0.1424
     26 H          -6.0406    5.7606    0.7293 H       1  LIG1        0.1424
@<TRIPOS>BOND
     1    22    23    3
     2    12    11    1
     3    13    11    1
     4    23    14    1
     5    11     4    1
     6    19    14   ar
     7    19    18   ar
     8    14    15   ar
     9     7     3    1
    10     4     3   ar
    11     4     5   ar
    12    21    18    1
    13     3     2   ar
    14    18    17   ar
    15    15     5    1
    16    15    16   ar
    17     5     6   ar
    18     2     8    1
    19     2     1   ar
    20    17    16   ar
    21    17    24    1
    22    16    20    1
    23     6     1   ar
    24    26    24    1
    25     1    10    1
    26    24    25    1
    27    10     9    3
