@<TRIPOS>MOLECULE
mol_data/opt/cam/geoms/mol2/6dh6af12fd4df12il-12dh-4ha-13fh-.out
 92 99 0 0 0
SMALL
GASTEIGER

@<TRIPOS>ATOM
      1 C          -4.1789   -1.8244   -0.0043 C.ar    1  LIG1        0.1408
      2 C          -2.8471   -1.9588   -0.3915 C.ar    1  LIG1       -0.0240
      3 C          -2.1692   -0.8263   -0.7949 C.ar    1  LIG1       -0.0363
      4 C          -2.8131    0.4147   -0.7958 C.ar    1  LIG1        0.0510
      5 C          -4.1580    0.4532   -0.3436 C.ar    1  LIG1        0.0946
      6 N          -4.8068   -0.6492    0.0163 N.ar    1  LIG1       -0.2345
      7 H          -1.1361   -0.8924   -1.1220 H       1  LIG1        0.0637
      8 H          -2.3669   -2.9300   -0.3844 H       1  LIG1        0.0646
      9 N          -5.5252   -3.9262    0.7148 N.1     1  LIG1       -0.1893
     10 C          -4.9395   -2.9807    0.3988 C.1     1  LIG1        0.1191
     11 N          -2.1421    1.5458   -1.2029 N.pl3   1  LIG1       -0.3563
     12 H          -1.3102    1.3967   -1.7533 H       1  LIG1        0.1424
     13 H          -2.7020    2.3270   -1.5093 H       1  LIG1        0.1424
     14 C          -6.3078    1.6817   -0.6192 C.ar    1  LIG1        0.0379
     15 C          -4.9489    1.7075   -0.2746 C.ar    1  LIG1        0.0238
     16 C          -4.4324    2.9184    0.1658 C.ar    1  LIG1       -0.0072
     17 C          -5.2479    4.0469    0.2497 C.ar    1  LIG1        0.1465
     18 C          -6.5941    3.9153   -0.1373 C.ar    1  LIG1        0.1509
     19 N          -7.0894    2.7423   -0.5582 N.ar    1  LIG1       -0.2474
     20 H          -3.4049    3.0193    0.4969 H       1  LIG1        0.0662
     21 H          -6.7599    0.7516   -0.9482 H       1  LIG1        0.0836
     22 O          -4.6720    5.1595    0.7441 O.3     1  LIG1       -0.5045
     23 H          -5.2020    5.9618    0.5944 H       1  LIG1        0.2922
     24 C          -7.5681    5.0061   -0.0701 C.ar    1  LIG1        0.1998
     25 C          -7.5222    6.3649    0.0334 C.ar    1  LIG1        0.1827
     26 C          -8.8670    6.8484    0.0655 C.ar    1  LIG1        0.1395
     27 C          -9.6667    5.7353   -0.0430 C.ar    1  LIG1        0.1581
     28 O          -8.8870    4.6442   -0.1211 O.2     1  LIG1       -0.4480
     29 O          -6.3992    7.1275    0.0765 O.3     1  LIG1       -0.5023
     30 H          -6.6172    8.0402    0.3145 H       1  LIG1        0.2923
     31 N          -9.2679    9.3361    0.5705 N.1     1  LIG1       -0.1906
     32 C          -9.1688    8.2110    0.3164 C.1     1  LIG1        0.1067
     33 C         -12.0538    6.3540   -0.5813 C.ar    1  LIG1        0.0633
     34 C         -13.4109    6.0371   -0.4905 C.ar    1  LIG1       -0.0295
     35 C         -11.1046    5.4878   -0.0124 C.ar    1  LIG1        0.0395
     36 C         -13.8659    4.8850    0.1414 C.ar    1  LIG1        0.0603
     37 H         -14.1289    6.6960   -0.9632 H       1  LIG1        0.0639
     38 C         -11.5502    4.3181    0.6005 C.ar    1  LIG1       -0.0075
     39 C         -12.9018    4.0110    0.6859 C.ar    1  LIG1        0.1283
     40 H         -10.8189    3.6418    1.0310 H       1  LIG1        0.0662
     41 N         -11.4045    8.4136   -2.0083 N.1     1  LIG1       -0.1908
     42 C         -11.6768    7.5001   -1.3526 C.1     1  LIG1        0.0999
     43 O         -13.3357    2.9008    1.3116 O.3     1  LIG1       -0.5060
     44 H         -12.5835    2.3819    1.6221 H       1  LIG1        0.2922
     45 C         -15.2984    4.6171    0.2285 C.ar    1  LIG1        0.1459
     46 C         -16.3660    5.4401    0.4679 C.ar    1  LIG1        0.0379
     47 C         -17.5097    4.5838    0.4297 C.ar    1  LIG1        0.1722
     48 C         -17.0633    3.3155    0.1659 C.ar    1  LIG1        0.2135
     49 O         -15.7108    3.3352    0.0482 O.2     1  LIG1       -0.4475
     50 C         -16.3772    6.8954    0.8077 C.3     1  LIG1       -0.0326
     51 H         -17.1631    7.0993    1.5392 H       1  LIG1        0.0280
     52 H         -16.5730    7.5244   -0.0672 H       1  LIG1        0.0280
     53 H         -15.4234    7.2109    1.2356 H       1  LIG1        0.0280
     54 O         -18.7893    4.9170    0.7146 O.3     1  LIG1       -0.4909
     55 C         -19.4428    5.7515   -0.2397 C.3     1  LIG1        0.0790
     56 H         -20.4768    5.8374    0.0897 H       1  LIG1        0.0660
     57 H         -18.9814    6.7434   -0.2825 H       1  LIG1        0.0660
     58 H         -19.4258    5.2934   -1.2326 H       1  LIG1        0.0660
     59 C         -17.7143    2.0417    0.0386 C.ar    1  LIG1        0.1934
     60 C         -19.0273    1.6533   -0.1128 C.ar    1  LIG1        0.1218
     61 C         -19.0288    0.2145   -0.1792 C.ar    1  LIG1        0.0894
     62 C         -17.7126   -0.1703   -0.1029 C.ar    1  LIG1        0.1594
     63 O         -16.9272    0.9588    0.0451 O.2     1  LIG1       -0.4483
     64 N         -21.1949    3.0062   -0.4089 N.1     1  LIG1       -0.1907
     65 C         -20.1946    2.4431   -0.2495 C.1     1  LIG1        0.1050
     66 N         -20.1607   -0.5674   -0.2153 N.pl3   1  LIG1       -0.3540
     67 H         -20.9951   -0.0891   -0.5238 H       1  LIG1        0.1425
     68 H         -20.0196   -1.4836   -0.6329 H       1  LIG1        0.1425
     69 C         -17.4308   -2.5674   -0.7806 C.ar    1  LIG1        0.0360
     70 C         -16.7815   -3.7877   -0.6319 C.ar    1  LIG1       -0.0311
     71 C         -17.0244   -1.4517   -0.0245 C.ar    1  LIG1        0.0398
     72 C         -15.6941   -3.9373    0.2331 C.ar    1  LIG1        0.0037
     73 H         -17.1094   -4.6398   -1.2175 H       1  LIG1        0.0643
     74 C         -15.9193   -1.6031    0.8200 C.ar    1  LIG1       -0.0486
     75 C         -15.2651   -2.8126    0.9528 C.ar    1  LIG1       -0.0517
     76 H         -15.5901   -0.7447    1.3952 H       1  LIG1        0.0625
     77 N         -18.5075   -2.4481   -1.6843 N.pl3   1  LIG1       -0.3574
     78 H         -18.4496   -1.5959   -2.2326 H       1  LIG1        0.1423
     79 H         -18.5841   -3.2497   -2.2976 H       1  LIG1        0.1423
     80 H         -14.4381   -2.8833    1.6520 H       1  LIG1        0.0624
     81 C         -15.0281   -5.2256    0.3465 C.ar    1  LIG1        0.0904
     82 C         -15.3806   -6.4802   -0.1105 C.ar    1  LIG1        0.1628
     83 C         -14.3855   -7.4103    0.2763 C.ar    1  LIG1        0.0848
     84 C         -13.4245   -6.7048    0.9658 C.ar    1  LIG1        0.0267
     85 N         -13.8231   -5.4035    1.0125 N.ar    1  LIG1       -0.3561
     86 H         -13.2623   -4.6504    1.3709 H       1  LIG1        0.1655
     87 H         -12.4981   -7.0282    1.4161 H       1  LIG1        0.0827
     88 O         -16.4879   -6.8336   -0.8072 O.3     1  LIG1       -0.5031
     89 H         -16.3975   -7.7948   -0.9304 H       1  LIG1        0.2923
     90 N         -14.5248   -8.7857   -0.0639 N.pl3   1  LIG1       -0.3540
     91 H         -13.7707   -9.1181   -0.6547 H       1  LIG1        0.1425
     92 H         -14.5735   -9.3847    0.7527 H       1  LIG1        0.1425
@<TRIPOS>BOND
     1    79    77    1
     2    78    77    1
     3    41    42    3
     4    12    11    1
     5    77    69    1
     6    13    11    1
     7    42    33    1
     8    58    55    1
     9    73    70    1
    10    11     4    1
    11     7     3    1
    12    37    34    1
    13    21    14    1
    14    89    88    1
    15    88    82    1
    16     4     3   ar
    17     4     5   ar
    18     3     2   ar
    19    69    70   ar
    20    69    71   ar
    21    91    90    1
    22    68    66    1
    23    70    72   ar
    24    14    19   ar
    25    14    15   ar
    26    33    34   ar
    27    33    35   ar
    28    19    18   ar
    29    67    66    1
    30    34    36   ar
    31    64    65    3
    32     2     8    1
    33     2     1   ar
    34     5    15    1
    35     5     6   ar
    36    57    55    1
    37    15    16   ar
    38    65    60    1
    39    55    56    1
    40    55    54    1
    41    66    61    1
    42    61    60   ar
    43    61    62   ar
    44    18    24    1
    45    18    17   ar
    46    28    24   ar
    47    28    27   ar
    48    60    59   ar
    49    82    83   ar
    50    82    81   ar
    51    62    71    1
    52    62    63   ar
    53    24    25   ar
    54    52    50    1
    55    90    83    1
    56    90    92    1
    57    27    35    1
    58    27    26   ar
    59    71    74   ar
    60    35    38   ar
    61     1     6   ar
    62     1    10    1
    63    25    26   ar
    64    25    29    1
    65    59    63   ar
    66    59    48    1
    67    49    48   ar
    68    49    45   ar
    69    26    32    1
    70    29    30    1
    71    36    45    1
    72    36    39   ar
    73    16    17   ar
    74    16    20    1
    75    48    47   ar
    76    45    46   ar
    77    72    81    1
    78    72    75   ar
    79    17    22    1
    80    83    84   ar
    81    32    31    3
    82    81    85   ar
    83    10     9    3
    84    47    46   ar
    85    47    54    1
    86    46    50    1
    87    23    22    1
    88    38    39   ar
    89    38    40    1
    90    39    43    1
    91    50    53    1
    92    50    51    1
    93    74    75   ar
    94    74    76    1
    95    75    80    1
    96    84    85   ar
    97    84    87    1
    98    85    86    1
    99    43    44    1
