@<TRIPOS>MOLECULE
mol_data/opt/cam/geoms/mol2/6dh6dh-6dh.out
 38 40 0 0 0
SMALL
GASTEIGER

@<TRIPOS>ATOM
      1 C          -4.4845   -2.0926    0.4679 C.ar    1  LIG1        0.1408
      2 C          -3.1319   -2.2151    0.1477 C.ar    1  LIG1       -0.0240
      3 C          -2.4593   -1.0938   -0.2861 C.ar    1  LIG1       -0.0363
      4 C          -3.1254    0.1348   -0.3855 C.ar    1  LIG1        0.0511
      5 C          -4.4832    0.1626    0.0181 C.ar    1  LIG1        0.0958
      6 N          -5.1325   -0.9314    0.4006 N.ar    1  LIG1       -0.2344
      7 H          -1.4137   -1.1565   -0.5708 H       1  LIG1        0.0637
      8 H          -2.6332   -3.1735    0.2297 H       1  LIG1        0.0646
      9 N          -5.8173   -4.1940    1.2100 N.1     1  LIG1       -0.1893
     10 C          -5.2398   -3.2463    0.8859 C.1     1  LIG1        0.1191
     11 N          -2.4848    1.2193   -0.9320 N.pl3   1  LIG1       -0.3563
     12 H          -1.4766    1.2006   -0.9042 H       1  LIG1        0.1424
     13 H          -2.8640    2.1337   -0.7492 H       1  LIG1        0.1424
     14 C          -5.0028    2.5911    0.6484 C.ar    1  LIG1        0.1500
     15 C          -5.3217    1.3955   -0.0165 C.ar    1  LIG1        0.0398
     16 C          -6.5273    1.3646   -0.6962 C.ar    1  LIG1       -0.0270
     17 C          -7.3738    2.4761   -0.7316 C.ar    1  LIG1        0.0517
     18 C          -6.9569    3.6239   -0.0090 C.ar    1  LIG1        0.0958
     19 N          -5.7997    3.6604    0.6347 N.ar    1  LIG1       -0.2337
     20 H          -6.8136    0.4544   -1.2121 H       1  LIG1        0.0644
     21 N          -2.8047    2.8313    2.0120 N.1     1  LIG1       -0.1893
     22 C          -3.7952    2.7283    1.4234 C.1     1  LIG1        0.1198
     23 N          -8.5031    2.4516   -1.5059 N.pl3   1  LIG1       -0.3563
     24 H          -9.2274    3.1241   -1.3144 H       1  LIG1        0.1424
     25 H          -8.8614    1.5393   -1.7449 H       1  LIG1        0.1424
     26 C          -9.0652    4.9844    0.4872 C.ar    1  LIG1        0.1493
     27 C          -7.7379    4.8937    0.0391 C.ar    1  LIG1        0.0398
     28 C          -7.1040    6.0754   -0.3223 C.ar    1  LIG1       -0.0276
     29 C          -7.7869    7.2896   -0.2591 C.ar    1  LIG1        0.0436
     30 C          -9.1259    7.2481    0.1775 C.ar    1  LIG1        0.0497
     31 N          -9.7369    6.1417    0.5436 N.ar    1  LIG1       -0.2421
     32 H          -6.0666    6.0412   -0.6374 H       1  LIG1        0.0644
     33 H          -9.7041    8.1686    0.2367 H       1  LIG1        0.0849
     34 N         -10.3557    2.8786    1.2919 N.1     1  LIG1       -0.1893
     35 C          -9.7842    3.8250    0.9514 C.1     1  LIG1        0.1198
     36 N          -7.1886    8.4796   -0.5710 N.pl3   1  LIG1       -0.3568
     37 H          -6.3163    8.4691   -1.0727 H       1  LIG1        0.1424
     38 H          -7.7687    9.2888   -0.7199 H       1  LIG1        0.1424
@<TRIPOS>BOND
     1    25    23    1
     2    23    24    1
     3    23    17    1
     4    20    16    1
     5    37    36    1
     6    11    12    1
     7    11    13    1
     8    11     4    1
     9    17    16   ar
    10    17    18   ar
    11    38    36    1
    12    16    15   ar
    13    32    28    1
    14    36    29    1
    15     7     3    1
    16     4     3   ar
    17     4     5   ar
    18    28    29   ar
    19    28    27   ar
    20     3     2   ar
    21    29    30   ar
    22    15     5    1
    23    15    14   ar
    24    18    27    1
    25    18    19   ar
    26     5     6   ar
    27    27    26   ar
    28     2     8    1
    29     2     1   ar
    30    30    33    1
    31    30    31   ar
    32     6     1   ar
    33     1    10    1
    34    26    31   ar
    35    26    35    1
    36    19    14   ar
    37    14    22    1
    38    10     9    3
    39    35    34    3
    40    22    21    3
