@<TRIPOS>MOLECULE
mol_data/opt/cam/geoms/mol2/6dh6dh-4dh6dh.out
 51 54 0 0 0
SMALL
GASTEIGER

@<TRIPOS>ATOM
      1 C          -4.4941   -2.2601   -0.0048 C.ar    1  LIG1        0.1408
      2 C          -3.1018   -2.3314    0.0601 C.ar    1  LIG1       -0.0240
      3 C          -2.3845   -1.1552    0.0608 C.ar    1  LIG1       -0.0363
      4 C          -3.0511    0.0769    0.0108 C.ar    1  LIG1        0.0511
      5 C          -4.4684    0.0377    0.0127 C.ar    1  LIG1        0.0958
      6 N          -5.1502   -1.1010   -0.0269 N.ar    1  LIG1       -0.2344
      7 H          -1.2995   -1.1730    0.0805 H       1  LIG1        0.0637
      8 H          -2.6034   -3.2929    0.0960 H       1  LIG1        0.0646
      9 N          -5.8910   -4.4469   -0.1012 N.1     1  LIG1       -0.1893
     10 C          -5.2841   -3.4638   -0.0540 C.1     1  LIG1        0.1191
     11 N          -2.3398    1.2399   -0.1138 N.pl3   1  LIG1       -0.3563
     12 H          -1.3789    1.2249    0.1907 H       1  LIG1        0.1424
     13 H          -2.8048    2.1162    0.0584 H       1  LIG1        0.1424
     14 C          -5.2143    2.2909    0.9536 C.ar    1  LIG1        0.1500
     15 C          -5.3057    1.2696   -0.0055 C.ar    1  LIG1        0.0398
     16 C          -6.2702    1.4170   -0.9903 C.ar    1  LIG1       -0.0270
     17 C          -7.0830    2.5498   -1.0362 C.ar    1  LIG1        0.0516
     18 C          -6.8727    3.5365   -0.0410 C.ar    1  LIG1        0.0943
     19 N          -5.9706    3.3880    0.9147 N.ar    1  LIG1       -0.2338
     20 H          -6.3880    0.6317   -1.7296 H       1  LIG1        0.0644
     21 N          -3.5636    2.0908    2.9502 N.1     1  LIG1       -0.1893
     22 C          -4.3085    2.1904    2.0713 C.1     1  LIG1        0.1198
     23 N          -8.0516    2.6833   -1.9996 N.pl3   1  LIG1       -0.3563
     24 H          -8.4077    3.6086   -2.1812 H       1  LIG1        0.1424
     25 H          -7.9830    2.0842   -2.8071 H       1  LIG1        0.1424
     26 C          -6.9695    6.0480    0.0006 C.ar    1  LIG1        0.0617
     27 C          -7.7139    7.2241    0.0656 C.ar    1  LIG1       -0.0341
     28 C          -7.6412    4.8121   -0.0196 C.ar    1  LIG1        0.0213
     29 C          -9.1028    7.2209    0.1117 C.ar    1  LIG1        0.0068
     30 H          -7.1910    8.1739    0.0919 H       1  LIG1        0.0637
     31 C          -9.0262    4.8037    0.0049 C.ar    1  LIG1       -0.0300
     32 C          -9.7829    5.9847    0.0675 C.ar    1  LIG1        0.0331
     33 H          -9.5490    3.8523   -0.0092 H       1  LIG1        0.0643
     34 N          -4.3965    6.2415   -0.2147 N.1     1  LIG1       -0.1908
     35 C          -5.5421    6.1320   -0.0940 C.1     1  LIG1        0.0998
     36 N         -11.1545    5.9054    0.0154 N.pl3   1  LIG1       -0.3575
     37 H         -11.6798    6.7010    0.3413 H       1  LIG1        0.1423
     38 H         -11.5587    5.0256    0.2984 H       1  LIG1        0.1423
     39 C         -10.6362    8.9130    1.2330 C.ar    1  LIG1        0.1479
     40 C          -9.8147    8.5265    0.1604 C.ar    1  LIG1        0.0215
     41 C          -9.6406    9.4458   -0.8679 C.ar    1  LIG1       -0.0291
     42 C         -10.2674   10.6922   -0.8171 C.ar    1  LIG1        0.0436
     43 C         -11.0785   10.9542    0.3041 C.ar    1  LIG1        0.0497
     44 N         -11.2543   10.0988    1.2893 N.ar    1  LIG1       -0.2422
     45 H          -9.0135    9.1846   -1.7147 H       1  LIG1        0.0643
     46 H         -11.5941   11.9092    0.3872 H       1  LIG1        0.0849
     47 N         -11.0400    7.3080    3.2353 N.1     1  LIG1       -0.1893
     48 C         -10.8520    8.0359    2.3564 C.1     1  LIG1        0.1197
     49 N         -10.0872   11.6387   -1.7889 N.pl3   1  LIG1       -0.3568
     50 H          -9.7009   11.3564   -2.6747 H       1  LIG1        0.1424
     51 H         -10.7227   12.4191   -1.8231 H       1  LIG1        0.1424
@<TRIPOS>BOND
     1    25    23    1
     2    50    49    1
     3    24    23    1
     4    23    17    1
     5    51    49    1
     6    49    42    1
     7    20    16    1
     8    45    41    1
     9    17    16   ar
    10    17    18   ar
    11    16    15   ar
    12    41    42   ar
    13    41    40   ar
    14    42    43   ar
    15    34    35    3
    16    11     4    1
    17    11    13    1
    18    11    12    1
    19     9    10    3
    20    35    26    1
    21    10     1    1
    22    18    28    1
    23    18    19   ar
    24     6     1   ar
    25     6     5   ar
    26    28    26   ar
    27    28    31   ar
    28    33    31    1
    29    15     5    1
    30    15    14   ar
    31     1     2   ar
    32    26    27   ar
    33    31    32   ar
    34     4     5   ar
    35     4     3   ar
    36    36    32    1
    37    36    38    1
    38    36    37    1
    39     2     3   ar
    40     2     8    1
    41     3     7    1
    42    27    30    1
    43    27    29   ar
    44    32    29   ar
    45    29    40    1
    46    40    39   ar
    47    43    46    1
    48    43    44   ar
    49    19    14   ar
    50    14    22    1
    51    39    44   ar
    52    39    48    1
    53    22    21    3
    54    48    47    3
