@<TRIPOS>MOLECULE
mol_data/opt/cam/geoms/mol2/6dh6dh6dh6dh-.out
 50 53 0 0 0
SMALL
GASTEIGER

@<TRIPOS>ATOM
      1 C          -2.4687   -0.7867    1.0056 C.ar    1  LIG1        0.1408
      2 C          -2.6246   -1.9676    0.2778 C.ar    1  LIG1       -0.0240
      3 C          -3.6855   -2.0643   -0.5955 C.ar    1  LIG1       -0.0363
      4 C          -4.5875   -0.9995   -0.7301 C.ar    1  LIG1        0.0511
      5 C          -4.3743    0.1273    0.1034 C.ar    1  LIG1        0.0958
      6 N          -3.3269    0.2275    0.9135 N.ar    1  LIG1       -0.2344
      7 H          -3.8207   -2.9559   -1.1994 H       1  LIG1        0.0637
      8 H          -1.9165   -2.7797    0.3929 H       1  LIG1        0.0646
      9 N          -0.4358   -0.5144    2.5980 N.1     1  LIG1       -0.1893
     10 C          -1.3490   -0.6216    1.8969 C.1     1  LIG1        0.1191
     11 N          -5.5671   -1.0441   -1.6849 N.pl3   1  LIG1       -0.3563
     12 H          -5.8427   -1.9545   -2.0186 H       1  LIG1        0.1424
     13 H          -6.3248   -0.3827   -1.6397 H       1  LIG1        0.1424
     14 C          -6.6537    1.2558    0.3289 C.ar    1  LIG1        0.1500
     15 C          -5.2706    1.3170    0.0927 C.ar    1  LIG1        0.0398
     16 C          -4.7224    2.5737   -0.1122 C.ar    1  LIG1       -0.0270
     17 C          -5.5246    3.7148   -0.1175 C.ar    1  LIG1        0.0517
     18 C          -6.9122    3.5280    0.0936 C.ar    1  LIG1        0.0958
     19 N          -7.4372    2.3339    0.3141 N.ar    1  LIG1       -0.2337
     20 H          -3.6521    2.6591   -0.2674 H       1  LIG1        0.0644
     21 N          -7.8057   -1.0065    0.8813 N.1     1  LIG1       -0.1893
     22 C          -7.3057    0.0087    0.6442 C.1     1  LIG1        0.1198
     23 N          -4.9790    4.9624   -0.3004 N.pl3   1  LIG1       -0.3563
     24 H          -4.0441    5.0005   -0.6756 H       1  LIG1        0.1424
     25 H          -5.5906    5.6976   -0.6193 H       1  LIG1        0.1424
     26 C          -8.9876    4.6524   -0.7850 C.ar    1  LIG1        0.1500
     27 C          -7.8724    4.6636    0.0685 C.ar    1  LIG1        0.0398
     28 C          -7.7207    5.7664    0.8918 C.ar    1  LIG1       -0.0270
     29 C          -8.6604    6.8050    0.8920 C.ar    1  LIG1        0.0517
     30 C          -9.7836    6.6523    0.0433 C.ar    1  LIG1        0.0958
     31 N          -9.8996    5.6195   -0.7838 N.ar    1  LIG1       -0.2337
     32 H          -6.8620    5.8289    1.5534 H       1  LIG1        0.0644
     33 N          -9.2989    2.7850   -2.5642 N.1     1  LIG1       -0.1893
     34 C          -9.1739    3.6009   -1.7548 C.1     1  LIG1        0.1198
     35 N          -8.4260    7.9358    1.6327 N.pl3   1  LIG1       -0.3563
     36 H          -7.7993    7.8319    2.4167 H       1  LIG1        0.1424
     37 H          -9.2090    8.5347    1.8381 H       1  LIG1        0.1424
     38 C         -11.6321    8.1157    1.0365 C.ar    1  LIG1        0.1493
     39 C         -10.8834    7.6541   -0.0582 C.ar    1  LIG1        0.0398
     40 C         -11.2413    8.1179   -1.3177 C.ar    1  LIG1       -0.0276
     41 C         -12.2882    9.0277   -1.4626 C.ar    1  LIG1        0.0436
     42 C         -12.9417    9.4439   -0.2850 C.ar    1  LIG1        0.0497
     43 N         -12.6319    8.9987    0.9136 N.ar    1  LIG1       -0.2421
     44 H         -10.7072    7.7463   -2.1855 H       1  LIG1        0.0644
     45 H         -13.7591   10.1603   -0.3446 H       1  LIG1        0.0849
     46 N         -11.1601    7.2561    3.4417 N.1     1  LIG1       -0.1893
     47 C         -11.3909    7.6332    2.3726 C.1     1  LIG1        0.1198
     48 N         -12.6950    9.4811   -2.6858 N.pl3   1  LIG1       -0.3568
     49 H         -13.3076   10.2781   -2.7339 H       1  LIG1        0.1424
     50 H         -12.1091    9.3236   -3.4884 H       1  LIG1        0.1424
@<TRIPOS>BOND
     1    50    48    1
     2    49    48    1
     3    48    41    1
     4    33    34    3
     5    44    40    1
     6    12    11    1
     7    34    26    1
     8    11    13    1
     9    11     4    1
    10    41    40   ar
    11    41    42   ar
    12    40    39   ar
    13     7     3    1
    14    26    31   ar
    15    26    27   ar
    16    31    30   ar
    17     4     3   ar
    18     4     5   ar
    19    24    23    1
    20    25    23    1
    21     3     2   ar
    22    45    42    1
    23    23    17    1
    24    42    43   ar
    25    20    16    1
    26    17    16   ar
    27    17    18   ar
    28    16    15   ar
    29    39    30    1
    30    39    38   ar
    31    30    29   ar
    32    27    18    1
    33    27    28   ar
    34    15     5    1
    35    15    14   ar
    36    18    19   ar
    37     5     6   ar
    38     2     8    1
    39     2     1   ar
    40    19    14   ar
    41    14    22    1
    42    22    21    3
    43    28    29   ar
    44    28    32    1
    45    29    35    1
    46     6     1   ar
    47    43    38   ar
    48     1    10    1
    49    38    47    1
    50    35    37    1
    51    35    36    1
    52    10     9    3
    53    47    46    3
