@<TRIPOS>MOLECULE
mol_data/opt/cam/geoms/mol2/6dh6al-12ef12dh.out
 47 50 0 0 0
SMALL
GASTEIGER

@<TRIPOS>ATOM
      1 C          -4.3532   -2.1967    0.1194 C.ar    1  LIG1        0.1408
      2 C          -2.9854   -2.2462   -0.1411 C.ar    1  LIG1       -0.0240
      3 C          -2.3367   -1.0651   -0.4421 C.ar    1  LIG1       -0.0363
      4 C          -3.0476    0.1371   -0.4664 C.ar    1  LIG1        0.0510
      5 C          -4.4278    0.0883   -0.1434 C.ar    1  LIG1        0.0946
      6 N          -5.0463   -1.0583    0.1172 N.ar    1  LIG1       -0.2345
      7 H          -1.2756   -1.0650   -0.6719 H       1  LIG1        0.0637
      8 H          -2.4548   -3.1905   -0.1183 H       1  LIG1        0.0646
      9 N          -5.6275   -4.3999    0.6379 N.1     1  LIG1       -0.1893
     10 C          -5.0782   -3.4084    0.4102 C.1     1  LIG1        0.1191
     11 N          -2.4074    1.3220   -0.7736 N.pl3   1  LIG1       -0.3563
     12 H          -1.5291    1.2269   -1.2618 H       1  LIG1        0.1424
     13 H          -2.9894    2.0607   -1.1409 H       1  LIG1        0.1424
     14 C          -6.5797    1.2459   -0.6244 C.ar    1  LIG1        0.0379
     15 C          -5.2829    1.3023   -0.1106 C.ar    1  LIG1        0.0238
     16 C          -4.8639    2.5028    0.4659 C.ar    1  LIG1       -0.0070
     17 C          -5.7349    3.5863    0.4899 C.ar    1  LIG1        0.1496
     18 C          -6.9980    3.4440   -0.1151 C.ar    1  LIG1        0.1487
     19 N          -7.4022    2.2856   -0.6362 N.ar    1  LIG1       -0.2475
     20 H          -3.8869    2.5716    0.9268 H       1  LIG1        0.0662
     21 H          -6.9511    0.3172   -1.0451 H       1  LIG1        0.0836
     22 O          -5.4709    4.7663    1.0834 O.3     1  LIG1       -0.4928
     23 C          -4.1835    4.9887    1.6208 C.3     1  LIG1        0.0789
     24 H          -4.1855    6.0157    1.9825 H       1  LIG1        0.0660
     25 H          -3.9734    4.3093    2.4544 H       1  LIG1        0.0660
     26 H          -3.4060    4.8765    0.8567 H       1  LIG1        0.0660
     27 C          -7.9495    4.5574   -0.1824 C.ar    1  LIG1        0.1765
     28 C          -7.8262    5.8999   -0.4511 C.ar    1  LIG1        0.1142
     29 C          -9.1586    6.4277   -0.4346 C.ar    1  LIG1        0.1822
     30 C          -9.9951    5.3694   -0.1609 C.ar    1  LIG1        0.2143
     31 O          -9.2429    4.2344   -0.0152 O.2     1  LIG1       -0.4449
     32 C          -6.6689    6.6535   -0.7763 C.1     1  LIG1       -0.0621
     33 C          -5.7154    7.3221   -1.0793 C.1     1  LIG1       -0.1137
     34 H          -4.8811    7.9237   -1.3567 H       1  LIG1        0.1232
     35 O          -9.3818    7.7281   -0.6474 O.3     1  LIG1       -0.5023
     36 H         -10.3217    7.9468   -0.7369 H       1  LIG1        0.2923
     37 C         -11.4072    5.2074    0.0326 C.ar    1  LIG1        0.1925
     38 C         -12.4943    6.0418   -0.1447 C.ar    1  LIG1        0.1212
     39 C         -13.6636    5.2891    0.2373 C.ar    1  LIG1        0.0812
     40 C         -13.2007    4.0687    0.6040 C.ar    1  LIG1        0.1146
     41 O         -11.8310    4.0237    0.4849 O.2     1  LIG1       -0.4565
     42 H         -13.6735    3.1707    0.9627 H       1  LIG1        0.1049
     43 N         -12.4171    8.4476   -1.0476 N.1     1  LIG1       -0.1907
     44 C         -12.4677    7.3632   -0.6352 C.1     1  LIG1        0.1049
     45 N         -14.9531    5.7952    0.2640 N.pl3   1  LIG1       -0.3545
     46 H         -15.1343    6.5159   -0.4207 H       1  LIG1        0.1424
     47 H         -15.6813    5.0962    0.2691 H       1  LIG1        0.1424
@<TRIPOS>BOND
     1    34    33    1
     2    12    11    1
     3    13    11    1
     4    33    32    3
     5    43    44    3
     6    21    14    1
     7    32    28    1
     8    11     4    1
     9    36    35    1
    10     7     3    1
    11    35    29    1
    12    19    14   ar
    13    19    18   ar
    14    44    38    1
    15    14    15   ar
    16     4     3   ar
    17     4     5   ar
    18    28    29   ar
    19    28    27   ar
    20     3     2   ar
    21    29    30   ar
    22    46    45    1
    23    27    18    1
    24    27    31   ar
    25    30    31   ar
    26    30    37    1
    27    38    37   ar
    28    38    39   ar
    29     5    15    1
    30     5     6   ar
    31     2     8    1
    32     2     1   ar
    33    18    17   ar
    34    15    16   ar
    35    37    41   ar
    36     6     1   ar
    37     1    10    1
    38    39    45    1
    39    39    40   ar
    40    45    47    1
    41    10     9    3
    42    16    17   ar
    43    16    20    1
    44    41    40   ar
    45    17    22    1
    46    40    42    1
    47    26    23    1
    48    22    23    1
    49    23    24    1
    50    23    25    1
