@<TRIPOS>MOLECULE
mol_data/opt/cam/geoms/mol2/6dh6dh6dh-6dh.out
 50 53 0 0 0
SMALL
GASTEIGER

@<TRIPOS>ATOM
      1 C          -2.9923   -1.1389    1.4030 C.ar    1  LIG1        0.1408
      2 C          -2.8137   -2.1076    0.4146 C.ar    1  LIG1       -0.0240
      3 C          -3.4599   -1.9382   -0.7901 C.ar    1  LIG1       -0.0363
      4 C          -4.2835   -0.8240   -0.9997 C.ar    1  LIG1        0.0511
      5 C          -4.4424    0.0692    0.0887 C.ar    1  LIG1        0.0958
      6 N          -3.7861   -0.0836    1.2338 N.ar    1  LIG1       -0.2344
      7 H          -3.3229   -2.6563   -1.5924 H       1  LIG1        0.0637
      8 H          -2.1725   -2.9625    0.5934 H       1  LIG1        0.0646
      9 N          -1.7287   -1.3655    3.6602 N.1     1  LIG1       -0.1893
     10 C          -2.3033   -1.2502    2.6636 C.1     1  LIG1        0.1191
     11 N          -4.8257   -0.5975   -2.2403 N.pl3   1  LIG1       -0.3563
     12 H          -4.9133   -1.4031   -2.8410 H       1  LIG1        0.1424
     13 H          -5.6130    0.0262   -2.3065 H       1  LIG1        0.1424
     14 C          -6.6618    1.2920   -0.2963 C.ar    1  LIG1        0.1500
     15 C          -5.2949    1.2913    0.0281 C.ar    1  LIG1        0.0398
     16 C          -4.7368    2.5117    0.3681 C.ar    1  LIG1       -0.0270
     17 C          -5.4936    3.6864    0.3691 C.ar    1  LIG1        0.0517
     18 C          -6.8670    3.5648    0.0357 C.ar    1  LIG1        0.0958
     19 N          -7.4033    2.4000   -0.2975 N.ar    1  LIG1       -0.2337
     20 H          -3.6870    2.5488    0.6384 H       1  LIG1        0.0644
     21 N          -7.8981   -0.9087   -0.9105 N.1     1  LIG1       -0.1893
     22 C          -7.3631    0.0750   -0.6205 C.1     1  LIG1        0.1198
     23 N          -4.8834    4.8914    0.6024 N.pl3   1  LIG1       -0.3563
     24 H          -3.9988    4.8526    1.0865 H       1  LIG1        0.1424
     25 H          -5.4567    5.6649    0.8962 H       1  LIG1        0.1424
     26 C          -8.0635    5.6056    1.0245 C.ar    1  LIG1        0.1500
     27 C          -7.8054    4.7220   -0.0361 C.ar    1  LIG1        0.0398
     28 C          -8.5223    4.9257   -1.2029 C.ar    1  LIG1       -0.0270
     29 C          -9.4437    5.9697   -1.3216 C.ar    1  LIG1        0.0517
     30 C          -9.6391    6.7856   -0.1775 C.ar    1  LIG1        0.0958
     31 N          -8.9467    6.6007    0.9365 N.ar    1  LIG1       -0.2337
     32 H          -8.3573    4.2588   -2.0423 H       1  LIG1        0.0644
     33 N          -6.8379    5.3780    3.3033 N.1     1  LIG1       -0.1893
     34 C          -7.4044    5.4742    2.2993 C.1     1  LIG1        0.1198
     35 N         -10.0483    6.2153   -2.5257 N.pl3   1  LIG1       -0.3563
     36 H         -10.8861    6.7736   -2.5327 H       1  LIG1        0.1424
     37 H         -10.0809    5.4440   -3.1752 H       1  LIG1        0.1424
     38 C         -11.9497    7.8528   -0.4305 C.ar    1  LIG1        0.1493
     39 C         -10.5785    7.9436   -0.1431 C.ar    1  LIG1        0.0398
     40 C         -10.0902    9.1808    0.2565 C.ar    1  LIG1       -0.0276
     41 C         -10.9420   10.2822    0.3369 C.ar    1  LIG1        0.0436
     42 C         -12.2922   10.0728   -0.0081 C.ar    1  LIG1        0.0497
     43 N         -12.7773    8.9040   -0.3685 N.ar    1  LIG1       -0.2421
     44 H          -9.0423    9.2726    0.5213 H       1  LIG1        0.0644
     45 H         -12.9951   10.9032    0.0303 H       1  LIG1        0.0849
     46 N         -13.0329    5.5865   -1.0919 N.1     1  LIG1       -0.1893
     47 C         -12.5643    6.5976   -0.7817 C.1     1  LIG1        0.1198
     48 N         -10.5098   11.5082    0.7603 N.pl3   1  LIG1       -0.3568
     49 H          -9.5211   11.6883    0.8105 H       1  LIG1        0.1424
     50 H         -11.0963   12.3115    0.6055 H       1  LIG1        0.1424
@<TRIPOS>BOND
     1    37    35    1
     2    12    11    1
     3    36    35    1
     4    35    29    1
     5    13    11    1
     6    11     4    1
     7    32    28    1
     8     7     3    1
     9    29    28   ar
    10    29    30   ar
    11    28    27   ar
    12    46    47    3
    13     4     3   ar
    14     4     5   ar
    15    21    22    3
    16     3     2   ar
    17    47    38    1
    18    22    14    1
    19    38    43   ar
    20    38    39   ar
    21    43    42   ar
    22    19    14   ar
    23    19    18   ar
    24    14    15   ar
    25    30    39    1
    26    30    31   ar
    27    39    40   ar
    28    27    18    1
    29    27    26   ar
    30    42    45    1
    31    42    41   ar
    32    15     5    1
    33    15    16   ar
    34    18    17   ar
    35     5     6   ar
    36    40    41   ar
    37    40    44    1
    38    41    48    1
    39    16    17   ar
    40    16    20    1
    41    17    23    1
    42     2     8    1
    43     2     1   ar
    44    23    25    1
    45    23    24    1
    46    50    48    1
    47    48    49    1
    48    31    26   ar
    49    26    34    1
    50     6     1   ar
    51     1    10    1
    52    34    33    3
    53    10     9    3
