@<TRIPOS>MOLECULE
mol_data/opt/cam/geoms/mol2/6dh6dh6dh6dh.out
 50 53 0 0 0
SMALL
GASTEIGER

@<TRIPOS>ATOM
      1 C          -2.2747   -0.6982    0.1293 C.ar    1  LIG1        0.1408
      2 C          -2.6998   -2.0205    0.2661 C.ar    1  LIG1       -0.0240
      3 C          -4.0537   -2.2740    0.2908 C.ar    1  LIG1       -0.0363
      4 C          -4.9699   -1.2182    0.1934 C.ar    1  LIG1        0.0511
      5 C          -4.4331    0.0910    0.1165 C.ar    1  LIG1        0.0958
      6 N          -3.1268    0.3228    0.0571 N.ar    1  LIG1       -0.2344
      7 H          -4.4210   -3.2925    0.3670 H       1  LIG1        0.0637
      8 H          -1.9765   -2.8240    0.3385 H       1  LIG1        0.0646
      9 N           0.2652   -0.1732    0.0017 N.1     1  LIG1       -0.1893
     10 C          -0.8693   -0.3886    0.0601 C.1     1  LIG1        0.1191
     11 N          -6.3120   -1.4773    0.1009 N.pl3   1  LIG1       -0.3563
     12 H          -6.6330   -2.3621    0.4616 H       1  LIG1        0.1424
     13 H          -6.9602   -0.7210    0.2451 H       1  LIG1        0.1424
     14 C          -6.2552    1.6509    0.9959 C.ar    1  LIG1        0.1500
     15 C          -5.2866    1.3102    0.0362 C.ar    1  LIG1        0.0398
     16 C          -5.0797    2.2118   -0.9932 C.ar    1  LIG1       -0.0270
     17 C          -5.8330    3.3856   -1.0904 C.ar    1  LIG1        0.0517
     18 C          -6.8397    3.5839   -0.1101 C.ar    1  LIG1        0.0958
     19 N          -7.0017    2.7528    0.9075 N.ar    1  LIG1       -0.2337
     20 H          -4.2975    2.0099   -1.7171 H       1  LIG1        0.0644
     21 N          -6.6598    0.1646    3.0879 N.1     1  LIG1       -0.1893
     22 C          -6.4783    0.8377    2.1648 C.1     1  LIG1        0.1198
     23 N          -5.5504    4.3109   -2.0515 N.pl3   1  LIG1       -0.3563
     24 H          -4.9969    4.0201   -2.8411 H       1  LIG1        0.1424
     25 H          -6.2060    5.0504   -2.2387 H       1  LIG1        0.1424
     26 C          -8.5879    5.0997   -1.1800 C.ar    1  LIG1        0.1500
     27 C          -7.7395    4.7708   -0.1099 C.ar    1  LIG1        0.0398
     28 C          -7.8134    5.5693    1.0179 C.ar    1  LIG1       -0.0270
     29 C          -8.6664    6.6758    1.0664 C.ar    1  LIG1        0.0517
     30 C          -9.4191    6.9585   -0.1032 C.ar    1  LIG1        0.0958
     31 N          -9.3918    6.1636   -1.1621 N.ar    1  LIG1       -0.2337
     32 H          -7.2134    5.3109    1.8840 H       1  LIG1        0.0644
     33 N          -8.7124    3.5959   -3.2949 N.1     1  LIG1       -0.1893
     34 C          -8.6686    4.2694   -2.3556 C.1     1  LIG1        0.1198
     35 N          -8.8029    7.3901    2.2236 N.pl3   1  LIG1       -0.3563
     36 H          -8.0723    7.2948    2.9116 H       1  LIG1        0.1424
     37 H          -9.2102    8.3094    2.1811 H       1  LIG1        0.1424
     38 C          -9.9609    9.4504   -0.0258 C.ar    1  LIG1        0.1493
     39 C         -10.3539    8.1150   -0.2071 C.ar    1  LIG1        0.0398
     40 C         -11.6763    7.8773   -0.5567 C.ar    1  LIG1       -0.0276
     41 C         -12.5690    8.9408   -0.6910 C.ar    1  LIG1        0.0436
     42 C         -12.0637   10.2351   -0.4528 C.ar    1  LIG1        0.0497
     43 N         -10.8087   10.4806   -0.1417 N.ar    1  LIG1       -0.2421
     44 H         -11.9987    6.8574   -0.7373 H       1  LIG1        0.0644
     45 H         -12.7239   11.0965   -0.5371 H       1  LIG1        0.0849
     46 N          -7.4891   10.0408    0.5125 N.1     1  LIG1       -0.1893
     47 C          -8.5909    9.7932    0.2617 C.1     1  LIG1        0.1198
     48 N         -13.8702    8.7561   -1.0676 N.pl3   1  LIG1       -0.3568
     49 H         -14.2608    7.8291   -1.0352 H       1  LIG1        0.1424
     50 H         -14.5236    9.5120   -0.9453 H       1  LIG1        0.1424
@<TRIPOS>BOND
     1    33    34    3
     2    24    23    1
     3    34    26    1
     4    25    23    1
     5    23    17    1
     6    20    16    1
     7    26    31   ar
     8    26    27   ar
     9    31    30   ar
    10    17    16   ar
    11    17    18   ar
    12    48    49    1
    13    48    50    1
    14    48    41    1
    15    16    15   ar
    16    44    40    1
    17    41    40   ar
    18    41    42   ar
    19    40    39   ar
    20    45    42    1
    21    42    43   ar
    22    39    30    1
    23    39    38   ar
    24    43    38   ar
    25    18    27    1
    26    18    19   ar
    27    27    28   ar
    28    30    29   ar
    29    38    47    1
    30     9    10    3
    31    15     5    1
    32    15    14   ar
    33     6     5   ar
    34     6     1   ar
    35    10     1    1
    36    11     4    1
    37    11    13    1
    38    11    12    1
    39     5     4   ar
    40     1     2   ar
    41     4     3   ar
    42    47    46    3
    43     2     3   ar
    44     2     8    1
    45     3     7    1
    46    19    14   ar
    47    14    22    1
    48    28    29   ar
    49    28    32    1
    50    29    35    1
    51    22    21    3
    52    37    35    1
    53    35    36    1
