@<TRIPOS>MOLECULE
mol_data/opt/cam/geoms/mol2/6dh6dh6dh.out
 38 40 0 0 0
SMALL
GASTEIGER

@<TRIPOS>ATOM
      1 C          -3.0733   -1.0730    1.3555 C.ar    1  LIG1        0.1408
      2 C          -3.1237   -2.1635    0.4861 C.ar    1  LIG1       -0.0240
      3 C          -3.9128   -2.0684   -0.6394 C.ar    1  LIG1       -0.0363
      4 C          -4.6516   -0.9032   -0.8850 C.ar    1  LIG1        0.0511
      5 C          -4.5743    0.1219    0.0905 C.ar    1  LIG1        0.0958
      6 N          -3.7836    0.0356    1.1537 N.ar    1  LIG1       -0.2344
      7 H          -3.9540   -2.8857   -1.3523 H       1  LIG1        0.0637
      8 H          -2.5442   -3.0556    0.6918 H       1  LIG1        0.0646
      9 N          -1.5461   -1.1703    3.4534 N.1     1  LIG1       -0.1893
     10 C          -2.2335   -1.1118    2.5255 C.1     1  LIG1        0.1191
     11 N          -5.3445   -0.7605   -2.0575 N.pl3   1  LIG1       -0.3563
     12 H          -5.6010   -1.6044   -2.5454 H       1  LIG1        0.1424
     13 H          -6.0273   -0.0246   -2.1294 H       1  LIG1        0.1424
     14 C          -6.7250    1.4797   -0.1422 C.ar    1  LIG1        0.1500
     15 C          -5.3272    1.4028   -0.0245 C.ar    1  LIG1        0.0398
     16 C          -4.6401    2.6012    0.0632 C.ar    1  LIG1       -0.0270
     17 C          -5.3082    3.8269   -0.0049 C.ar    1  LIG1        0.0517
     18 C          -6.7125    3.7826   -0.2040 C.ar    1  LIG1        0.0958
     19 N          -7.3790    2.6387   -0.2317 N.ar    1  LIG1       -0.2337
     20 H          -3.5663    2.5791    0.2151 H       1  LIG1        0.0644
     21 N          -8.1938   -0.6634   -0.1444 N.1     1  LIG1       -0.1893
     22 C          -7.5484    0.2965   -0.1345 C.1     1  LIG1        0.1198
     23 N          -4.6255    4.9956    0.1877 N.pl3   1  LIG1       -0.3563
     24 H          -3.6243    4.9669    0.0750 H       1  LIG1        0.1424
     25 H          -5.0484    5.8593   -0.1087 H       1  LIG1        0.1424
     26 C          -7.3592    6.0024   -1.2834 C.ar    1  LIG1        0.1493
     27 C          -7.5560    5.0066   -0.3136 C.ar    1  LIG1        0.0398
     28 C          -8.6329    5.1564    0.5497 C.ar    1  LIG1       -0.0276
     29 C          -9.4586    6.2766    0.4547 C.ar    1  LIG1        0.0436
     30 C          -9.1409    7.2239   -0.5397 C.ar    1  LIG1        0.0497
     31 N          -8.1375    7.0880   -1.3804 N.ar    1  LIG1       -0.2421
     32 H          -8.8290    4.3845    1.2862 H       1  LIG1        0.0644
     33 H          -9.7510    8.1190   -0.6473 H       1  LIG1        0.0849
     34 N          -5.4550    5.7851   -3.0371 N.1     1  LIG1       -0.1893
     35 C          -6.3140    5.8888   -2.2692 C.1     1  LIG1        0.1198
     36 N         -10.5500    6.4471    1.2604 N.pl3   1  LIG1       -0.3568
     37 H         -10.6414    5.8762    2.0843 H       1  LIG1        0.1424
     38 H         -10.9824    7.3550    1.3064 H       1  LIG1        0.1424
@<TRIPOS>BOND
     1    34    35    3
     2    12    11    1
     3    35    26    1
     4    13    11    1
     5    11     4    1
     6    31    26   ar
     7    31    30   ar
     8     7     3    1
     9    26    27   ar
    10     4     3   ar
    11     4     5   ar
    12    33    30    1
    13     3     2   ar
    14    30    29   ar
    15    27    18    1
    16    27    28   ar
    17    19    18   ar
    18    19    14   ar
    19    18    17   ar
    20    21    22    3
    21    14    22    1
    22    14    15   ar
    23    25    23    1
    24    15    16   ar
    25    15     5    1
    26    17    16   ar
    27    17    23    1
    28    16    20    1
    29    24    23    1
    30     5     6   ar
    31    29    28   ar
    32    29    36    1
    33     2     8    1
    34     2     1   ar
    35    28    32    1
    36     6     1   ar
    37    36    38    1
    38    36    37    1
    39     1    10    1
    40    10     9    3
