@<TRIPOS>MOLECULE
mol_data/opt/cam/geoms/mol2/6di13dd-12il-4he.out
 53 56 0 0 0
SMALL
GASTEIGER

@<TRIPOS>ATOM
      1 C          -4.7442   -2.0381    0.0524 C.ar    1  LIG1        0.1408
      2 C          -3.4394   -2.2670    0.4804 C.ar    1  LIG1       -0.0255
      3 C          -2.6746   -1.1628    0.8106 C.ar    1  LIG1       -0.0541
      4 C          -3.1803    0.1305    0.6855 C.ar    1  LIG1       -0.0229
      5 C          -4.4870    0.2440    0.1712 C.ar    1  LIG1        0.0928
      6 N          -5.2537   -0.8199   -0.0983 N.ar    1  LIG1       -0.2346
      7 H          -1.6691   -1.2990    1.1958 H       1  LIG1        0.0622
      8 H          -3.0582   -3.2765    0.5739 H       1  LIG1        0.0646
      9 N          -6.2815   -4.0658   -0.4782 N.1     1  LIG1       -0.1893
     10 C          -5.6130   -3.1520   -0.2479 C.1     1  LIG1        0.1191
     11 C          -2.3520    1.2936    1.1503 C.3     1  LIG1       -0.0376
     12 H          -2.9741    2.0936    1.5556 H       1  LIG1        0.0278
     13 H          -1.7625    1.7246    0.3383 H       1  LIG1        0.0278
     14 H          -1.6618    0.9686    1.9315 H       1  LIG1        0.0278
     15 C          -5.1934    1.5156   -0.0635 C.ar    1  LIG1        0.0846
     16 C          -4.8279    2.7764   -0.5110 C.ar    1  LIG1        0.0965
     17 C          -6.0229    3.5621   -0.6046 C.ar    1  LIG1        0.0980
     18 C          -7.0789    2.7530   -0.2067 C.ar    1  LIG1        0.1018
     19 N          -6.5480    1.5374    0.0996 N.ar    1  LIG1       -0.3485
     20 H          -7.0844    0.7113    0.3302 H       1  LIG1        0.1661
     21 N          -2.5117    3.5581   -1.3254 N.1     1  LIG1       -0.1908
     22 C          -3.5488    3.2070   -0.9508 C.1     1  LIG1        0.1027
     23 N          -6.1752    5.9537   -1.5486 N.1     1  LIG1       -0.1908
     24 C          -6.1051    4.8824   -1.1154 C.1     1  LIG1        0.1027
     25 C          -8.4986    2.9768   -0.0873 C.ar    1  LIG1        0.1596
     26 C          -9.2956    4.0644    0.1254 C.ar    1  LIG1        0.0391
     27 C         -10.6196    3.5295    0.1850 C.ar    1  LIG1        0.1692
     28 C         -10.5608    2.1700    0.0407 C.ar    1  LIG1        0.1792
     29 O          -9.2507    1.8336   -0.1297 O.2     1  LIG1       -0.4492
     30 C          -8.9500    5.5031    0.3264 C.3     1  LIG1       -0.0325
     31 H          -9.7746    6.0009    0.8405 H       1  LIG1        0.0280
     32 H          -8.7688    6.0211   -0.6184 H       1  LIG1        0.0280
     33 H          -8.0469    5.6170    0.9293 H       1  LIG1        0.0280
     34 O         -11.7424    4.2856    0.3866 O.3     1  LIG1       -0.4910
     35 C         -12.3578    4.7484   -0.8171 C.3     1  LIG1        0.0790
     36 H         -13.2218    5.3415   -0.5172 H       1  LIG1        0.0660
     37 H         -11.6651    5.3741   -1.3879 H       1  LIG1        0.0660
     38 H         -12.6816    3.9067   -1.4368 H       1  LIG1        0.0660
     39 C         -12.7131    1.0642    0.7635 C.ar    1  LIG1        0.0355
     40 C         -13.5474   -0.0634    0.6749 C.ar    1  LIG1       -0.0392
     41 C         -11.5237    1.0710   -0.0037 C.ar    1  LIG1        0.0427
     42 C         -13.2265   -1.1443   -0.1164 C.ar    1  LIG1       -0.0446
     43 H         -14.4616   -0.0780    1.2611 H       1  LIG1        0.0636
     44 C         -11.2170   -0.0350   -0.8011 C.ar    1  LIG1       -0.0338
     45 C         -12.0465   -1.1498   -0.8743 C.ar    1  LIG1        0.0255
     46 H         -10.3012   -0.0216   -1.3799 H       1  LIG1        0.0637
     47 H         -13.8903   -2.0006   -0.1599 H       1  LIG1        0.0630
     48 N         -13.0366    2.0800    1.6308 N.pl3   1  LIG1       -0.3574
     49 H         -12.7004    3.0128    1.4246 H       1  LIG1        0.1423
     50 H         -13.9631    2.0416    2.0252 H       1  LIG1        0.1423
     51 C         -11.7038   -2.2662   -1.7002 C.1     1  LIG1       -0.0696
     52 C         -11.4152   -3.2080   -2.3929 C.1     1  LIG1       -0.1139
     53 H         -11.1490   -4.0426   -2.9993 H       1  LIG1        0.1232
@<TRIPOS>BOND
     1    53    52    1
     2    52    51    3
     3    51    45    1
     4    23    24    3
     5    38    35    1
     6    37    35    1
     7    46    44    1
     8    21    22    3
     9    24    17    1
    10    22    16    1
    11    45    44   ar
    12    45    42   ar
    13    35    36    1
    14    35    34    1
    15    44    41   ar
    16    32    30    1
    17    17    16   ar
    18    17    18   ar
    19    16    15   ar
    20     9    10    3
    21    10     1    1
    22    18    25    1
    23    18    19   ar
    24    47    42    1
    25    29    25   ar
    26    29    28   ar
    27    42    40   ar
    28     6     1   ar
    29     6     5   ar
    30    25    26   ar
    31    15    19   ar
    32    15     5    1
    33    41    28    1
    34    41    39   ar
    35    28    27   ar
    36     1     2   ar
    37    19    20    1
    38    26    27   ar
    39    26    30    1
    40     5     4   ar
    41    27    34    1
    42    30    31    1
    43    30    33    1
    44    13    11    1
    45     2     8    1
    46     2     3   ar
    47    40    39   ar
    48    40    43    1
    49     4     3   ar
    50     4    11    1
    51    39    48    1
    52     3     7    1
    53    11    12    1
    54    11    14    1
    55    49    48    1
    56    48    50    1
