@<TRIPOS>MOLECULE
mol_data/opt/cam/geoms/mol2/6di13fh-12eh6aa-.out
 46 49 0 0 0
SMALL
GASTEIGER

@<TRIPOS>ATOM
      1 C          -4.6831   -2.0249    0.0439 C.ar    1  LIG1        0.1408
      2 C          -3.3213   -2.2252    0.2224 C.ar    1  LIG1       -0.0255
      3 C          -2.5280   -1.0923    0.3321 C.ar    1  LIG1       -0.0541
      4 C          -3.0706    0.1833    0.2441 C.ar    1  LIG1       -0.0228
      5 C          -4.4625    0.2727    0.0028 C.ar    1  LIG1        0.0951
      6 N          -5.2372   -0.8197   -0.0659 N.ar    1  LIG1       -0.2345
      7 H          -1.4625   -1.1978    0.5113 H       1  LIG1        0.0622
      8 H          -2.9105   -3.2245    0.2933 H       1  LIG1        0.0646
      9 N          -6.2655   -4.0846   -0.0825 N.1     1  LIG1       -0.1893
     10 C          -5.5762   -3.1584   -0.0298 C.1     1  LIG1        0.1191
     11 C          -2.1923    1.3815    0.4534 C.3     1  LIG1       -0.0376
     12 H          -2.6375    2.0731    1.1723 H       1  LIG1        0.0278
     13 H          -2.0506    1.9496   -0.4665 H       1  LIG1        0.0278
     14 H          -1.2156    1.0707    0.8295 H       1  LIG1        0.0278
     15 C          -5.2192    1.5164   -0.1425 C.ar    1  LIG1        0.1096
     16 C          -4.9570    2.8453   -0.4611 C.ar    1  LIG1        0.1651
     17 C          -6.1776    3.5494   -0.5029 C.ar    1  LIG1        0.0960
     18 C          -7.1878    2.6376   -0.2135 C.ar    1  LIG1        0.1085
     19 N          -6.5904    1.4345   -0.0091 N.ar    1  LIG1       -0.3461
     20 H          -7.0513    0.5504    0.1499 H       1  LIG1        0.1662
     21 O          -3.7901    3.4576   -0.7561 O.3     1  LIG1       -0.5030
     22 H          -4.0524    4.3820   -0.9280 H       1  LIG1        0.2923
     23 N          -6.1763    4.9220   -0.8659 N.pl3   1  LIG1       -0.3534
     24 H          -6.6276    5.0756   -1.7626 H       1  LIG1        0.1425
     25 H          -6.6602    5.4995   -0.1869 H       1  LIG1        0.1425
     26 C          -8.6171    2.7765   -0.1236 C.ar    1  LIG1        0.1708
     27 C          -9.4687    3.8370    0.0876 C.ar    1  LIG1        0.0931
     28 C         -10.8006    3.2911    0.0751 C.ar    1  LIG1        0.0873
     29 C         -10.6711    1.9447   -0.1195 C.ar    1  LIG1        0.1590
     30 O          -9.3335    1.6414   -0.2541 O.2     1  LIG1       -0.4501
     31 C          -9.1809    5.2023    0.3372 C.1     1  LIG1       -0.0639
     32 C          -9.0292    6.3780    0.5625 C.1     1  LIG1       -0.1137
     33 H          -8.8843    7.4111    0.7828 H       1  LIG1        0.1232
     34 N         -11.9570    4.0354    0.2681 N.pl3   1  LIG1       -0.3541
     35 H         -11.7946    5.0317    0.1983 H       1  LIG1        0.1425
     36 H         -12.7372    3.7486   -0.3078 H       1  LIG1        0.1425
     37 C         -11.2693   -0.3624   -0.8235 C.ar    1  LIG1        0.0383
     38 C         -11.6224    0.8546   -0.2225 C.ar    1  LIG1        0.0372
     39 C         -12.9250    0.9686    0.2739 C.ar    1  LIG1       -0.0481
     40 C         -13.7946   -0.1012    0.1327 C.ar    1  LIG1       -0.0429
     41 C         -13.3392   -1.2567   -0.4894 C.ar    1  LIG1        0.0276
     42 N         -12.0971   -1.3918   -0.9555 N.ar    1  LIG1       -0.2626
     43 H         -13.2365    1.8701    0.7906 H       1  LIG1        0.0626
     44 H         -13.9970   -2.1130   -0.6162 H       1  LIG1        0.0829
     45 H         -10.2637   -0.4972   -1.2122 H       1  LIG1        0.0837
     46 H         -14.8095   -0.0463    0.5108 H       1  LIG1        0.0633
@<TRIPOS>BOND
     1    24    23    1
     2    45    37    1
     3    42    37   ar
     4    42    41   ar
     5    22    21    1
     6    23    17    1
     7    23    25    1
     8    37    38   ar
     9    21    16    1
    10    44    41    1
    11    17    16   ar
    12    17    18   ar
    13    41    40   ar
    14    13    11    1
    15    16    15   ar
    16    36    34    1
    17    30    26   ar
    18    30    29   ar
    19    38    29    1
    20    38    39   ar
    21    18    26    1
    22    18    19   ar
    23    15    19   ar
    24    15     5    1
    25    26    27   ar
    26    29    28   ar
    27     9    10    3
    28     6     5   ar
    29     6     1   ar
    30    10     1    1
    31    19    20    1
    32     5     4   ar
    33     1     2   ar
    34    28    27   ar
    35    28    34    1
    36    27    31    1
    37    40    39   ar
    38    40    46    1
    39    35    34    1
    40     2     8    1
    41     2     3   ar
    42     4     3   ar
    43     4    11    1
    44    39    43    1
    45     3     7    1
    46    31    32    3
    47    11    14    1
    48    11    12    1
    49    32    33    1
