@<TRIPOS>MOLECULE
mol_data/opt/cam/geoms/mol2/6di12he6ah13li.out
 52 55 0 0 0
SMALL
GASTEIGER

@<TRIPOS>ATOM
      1 C          -4.1934   -2.0813   -1.1567 C.ar    1  LIG1        0.1409
      2 C          -2.9521   -2.2999   -0.5649 C.ar    1  LIG1       -0.0255
      3 C          -2.4342   -1.2871    0.2252 C.ar    1  LIG1       -0.0540
      4 C          -3.1331   -0.0965    0.4019 C.ar    1  LIG1       -0.0213
      5 C          -4.3534    0.0370   -0.2970 C.ar    1  LIG1        0.1122
      6 N          -4.8750   -0.9450   -1.0399 N.ar    1  LIG1       -0.2329
      7 H          -1.4879   -1.4301    0.7378 H       1  LIG1        0.0622
      8 H          -2.4298   -3.2381   -0.7085 H       1  LIG1        0.0646
      9 N          -5.2455   -3.9750   -2.5961 N.1     1  LIG1       -0.1893
     10 C          -4.7957   -3.1217   -1.9597 C.1     1  LIG1        0.1191
     11 C          -2.6367    0.9493    1.3579 C.3     1  LIG1       -0.0376
     12 H          -3.3989    1.1627    2.1132 H       1  LIG1        0.0278
     13 H          -2.4220    1.9016    0.8659 H       1  LIG1        0.0278
     14 H          -1.7350    0.6054    1.8682 H       1  LIG1        0.0278
     15 C          -5.1499    1.2635   -0.2317 C.ar    1  LIG1        0.1758
     16 C          -4.8687    2.5904   -0.3971 C.ar    1  LIG1        0.0888
     17 C          -6.1227    3.2878   -0.2949 C.ar    1  LIG1        0.0917
     18 C          -7.0859    2.3241   -0.0952 C.ar    1  LIG1        0.1544
     19 O          -6.5053    1.1117   -0.0733 O.2     1  LIG1       -0.4501
     20 N          -3.6464    3.2085   -0.6320 N.pl3   1  LIG1       -0.3540
     21 H          -3.0517    2.7123   -1.2823 H       1  LIG1        0.1425
     22 H          -3.7547    4.1774   -0.9050 H       1  LIG1        0.1425
     23 C          -6.2502    4.6924   -0.4382 C.1     1  LIG1       -0.0640
     24 C          -6.2749    5.8900   -0.5775 C.1     1  LIG1       -0.1137
     25 H          -6.3165    6.9484   -0.6960 H       1  LIG1        0.1232
     26 C          -9.2670    1.1741    0.1071 C.ar    1  LIG1        0.0391
     27 C          -8.5287    2.3619    0.0823 C.ar    1  LIG1        0.0384
     28 C          -9.2232    3.5570    0.2427 C.ar    1  LIG1       -0.0267
     29 C         -10.6086    3.5625    0.4124 C.ar    1  LIG1        0.0531
     30 C         -11.2688    2.3089    0.3662 C.ar    1  LIG1        0.1112
     31 N         -10.5827    1.1640    0.2412 N.ar    1  LIG1       -0.2508
     32 H          -8.6882    4.5000    0.2633 H       1  LIG1        0.0644
     33 H          -8.7718    0.2145    0.0059 H       1  LIG1        0.0837
     34 N         -11.2673    4.7357    0.6801 N.pl3   1  LIG1       -0.3563
     35 H         -10.7593    5.5892    0.5168 H       1  LIG1        0.1424
     36 H         -12.2729    4.7769    0.5527 H       1  LIG1        0.1424
     37 C         -12.7167    2.1168    0.5047 C.ar    1  LIG1        0.1092
     38 C         -13.8667    2.8841    0.3704 C.ar    1  LIG1        0.1497
     39 C         -15.0032    2.0761    0.6303 C.ar    1  LIG1        0.0092
     40 C         -14.5120    0.8209    0.9076 C.ar    1  LIG1        0.0087
     41 N         -13.1552    0.8591    0.8300 N.ar    1  LIG1       -0.3562
     42 H         -12.4973    0.0985    0.9146 H       1  LIG1        0.1655
     43 H         -15.0367   -0.0877    1.1629 H       1  LIG1        0.0811
     44 O         -13.9416    4.2199    0.0328 O.3     1  LIG1       -0.4927
     45 C         -14.0938    4.4468   -1.3647 C.3     1  LIG1        0.0789
     46 H         -14.9917    3.9499   -1.7445 H       1  LIG1        0.0660
     47 H         -14.1911    5.5250   -1.5020 H       1  LIG1        0.0660
     48 H         -13.2226    4.0810   -1.9190 H       1  LIG1        0.0660
     49 C         -16.4300    2.5240    0.6076 C.3     1  LIG1       -0.0348
     50 H         -17.0815    1.7766    1.0660 H       1  LIG1        0.0279
     51 H         -16.7948    2.6938   -0.4116 H       1  LIG1        0.0279
     52 H         -16.5560    3.4625    1.1544 H       1  LIG1        0.0279
@<TRIPOS>BOND
     1     9    10    3
     2    10     1    1
     3    48    45    1
     4    46    45    1
     5    47    45    1
     6    45    44    1
     7    21    20    1
     8     1     6   ar
     9     1     2   ar
    10     6     5   ar
    11    22    20    1
    12     8     2    1
    13    25    24    1
    14    20    16    1
    15    24    23    3
    16     2     3   ar
    17    23    17    1
    18    51    49    1
    19    16    17   ar
    20    16    15   ar
    21     5    15    1
    22     5     4   ar
    23    17    18   ar
    24    15    19   ar
    25    18    19   ar
    26    18    27    1
    27    33    26    1
    28    44    38    1
    29    27    26   ar
    30    27    28   ar
    31    26    31   ar
    32     3     4   ar
    33     3     7    1
    34    31    30   ar
    35    28    32    1
    36    28    29   ar
    37    30    29   ar
    38    30    37    1
    39    38    37   ar
    40    38    39   ar
    41     4    11    1
    42    29    34    1
    43    37    41   ar
    44    35    34    1
    45    36    34    1
    46    49    39    1
    47    49    50    1
    48    49    52    1
    49    39    40   ar
    50    41    40   ar
    51    41    42    1
    52    13    11    1
    53    40    43    1
    54    11    14    1
    55    11    12    1
