@<TRIPOS>MOLECULE
mol_data/opt/cam/geoms/mol2/6di6di6di6di.out
 54 57 0 0 0
SMALL
GASTEIGER

@<TRIPOS>ATOM
      1 C          -2.1386   -0.5486   -0.4181 C.ar    1  LIG1        0.1407
      2 C          -2.5507   -1.8779   -0.4482 C.ar    1  LIG1       -0.0255
      3 C          -3.9070   -2.1303   -0.3453 C.ar    1  LIG1       -0.0541
      4 C          -4.8219   -1.0837   -0.2426 C.ar    1  LIG1       -0.0243
      5 C          -4.2927    0.2199   -0.2668 C.ar    1  LIG1        0.0781
      6 N          -2.9847    0.4750   -0.3260 N.ar    1  LIG1       -0.2360
      7 H          -4.2677   -3.1540   -0.3311 H       1  LIG1        0.0622
      8 H          -1.8252   -2.6782   -0.5301 H       1  LIG1        0.0646
      9 N           0.4004   -0.0003   -0.5227 N.1     1  LIG1       -0.1893
     10 C          -0.7319   -0.2261   -0.4776 C.1     1  LIG1        0.1191
     11 C          -6.2859   -1.3855   -0.0807 C.3     1  LIG1       -0.0377
     12 H          -6.7766   -1.4776   -1.0531 H       1  LIG1        0.0278
     13 H          -6.8041   -0.6053    0.4795 H       1  LIG1        0.0278
     14 H          -6.4192   -2.3294    0.4520 H       1  LIG1        0.0278
     15 C          -6.1486    1.7763   -1.0741 C.ar    1  LIG1        0.1499
     16 C          -5.1357    1.4460   -0.1675 C.ar    1  LIG1        0.0368
     17 C          -4.8683    2.3844    0.8235 C.ar    1  LIG1       -0.0449
     18 C          -5.6158    3.5492    0.9483 C.ar    1  LIG1       -0.0237
     19 C          -6.6580    3.7301    0.0196 C.ar    1  LIG1        0.0781
     20 N          -6.8848    2.8827   -0.9815 N.ar    1  LIG1       -0.2353
     21 H          -4.0412    2.2009    1.5013 H       1  LIG1        0.0628
     22 N          -6.6434    0.2658   -3.1321 N.1     1  LIG1       -0.1893
     23 C          -6.4276    0.9420   -2.2199 C.1     1  LIG1        0.1198
     24 C          -5.2689    4.5515    2.0135 C.3     1  LIG1       -0.0377
     25 H          -5.8089    4.3398    2.9402 H       1  LIG1        0.0278
     26 H          -5.5174    5.5697    1.7095 H       1  LIG1        0.0278
     27 H          -4.2000    4.5137    2.2324 H       1  LIG1        0.0278
     28 C          -8.3851    5.2611    1.1007 C.ar    1  LIG1        0.1499
     29 C          -7.5600    4.9164    0.0251 C.ar    1  LIG1        0.0368
     30 C          -7.6785    5.7009   -1.1165 C.ar    1  LIG1       -0.0449
     31 C          -8.5168    6.8089   -1.1569 C.ar    1  LIG1       -0.0237
     32 C          -9.2384    7.0975    0.0172 C.ar    1  LIG1        0.0781
     33 N          -9.1967    6.3167    1.0952 N.ar    1  LIG1       -0.2353
     34 H          -7.1096    5.4240   -1.9979 H       1  LIG1        0.0628
     35 N          -8.4783    3.7652    3.2259 N.1     1  LIG1       -0.1893
     36 C          -8.4427    4.4374    2.2863 C.1     1  LIG1        0.1198
     37 C          -8.6388    7.6051   -2.4259 C.3     1  LIG1       -0.0377
     38 H          -7.8834    8.3942   -2.4654 H       1  LIG1        0.0278
     39 H          -9.6175    8.0794   -2.5153 H       1  LIG1        0.0278
     40 H          -8.4932    6.9570   -3.2924 H       1  LIG1        0.0278
     41 C          -9.7710    9.5908   -0.0046 C.ar    1  LIG1        0.1492
     42 C         -10.1684    8.2559    0.1461 C.ar    1  LIG1        0.0367
     43 C         -11.4958    8.0328    0.5010 C.ar    1  LIG1       -0.0455
     44 C         -12.3775    9.0959    0.6512 C.ar    1  LIG1       -0.0316
     45 C         -11.8621   10.3772    0.4401 C.ar    1  LIG1        0.0320
     46 N         -10.5973   10.6296    0.1336 N.ar    1  LIG1       -0.2437
     47 H         -11.8289    7.0127    0.6640 H       1  LIG1        0.0628
     48 H         -12.5108   11.2451    0.5365 H       1  LIG1        0.0832
     49 N          -7.2839   10.1675   -0.5004 N.1     1  LIG1       -0.1893
     50 C          -8.3919    9.9232   -0.2795 C.1     1  LIG1        0.1198
     51 C         -13.8146    8.8837    1.0323 C.3     1  LIG1       -0.0383
     52 H         -14.3661    9.8257    1.0381 H       1  LIG1        0.0278
     53 H         -13.8925    8.4419    2.0299 H       1  LIG1        0.0278
     54 H         -14.3119    8.2042    0.3348 H       1  LIG1        0.0278
@<TRIPOS>BOND
     1    40    37    1
     2    22    23    3
     3    39    37    1
     4    38    37    1
     5    37    31    1
     6    23    15    1
     7    34    30    1
     8    31    30   ar
     9    31    32   ar
    10    30    29   ar
    11    15    20   ar
    12    15    16   ar
    13    12    11    1
    14    20    19   ar
    15     8     2    1
    16     9    10    3
    17    49    50    3
    18    10     1    1
    19     2     1   ar
    20     2     3   ar
    21     1     6   ar
    22     3     7    1
    23     3     4   ar
    24     6     5   ar
    25    50    41    1
    26     5     4   ar
    27     5    16    1
    28     4    11    1
    29    16    17   ar
    30    11    14    1
    31    11    13    1
    32    41    46   ar
    33    41    42   ar
    34    32    42    1
    35    32    33   ar
    36    19    29    1
    37    19    18   ar
    38    29    28   ar
    39    46    45   ar
    40    42    43   ar
    41    54    51    1
    42    45    48    1
    43    45    44   ar
    44    43    44   ar
    45    43    47    1
    46    44    51    1
    47    17    18   ar
    48    17    21    1
    49    18    24    1
    50    51    52    1
    51    51    53    1
    52    33    28   ar
    53    28    36    1
    54    26    24    1
    55    24    27    1
    56    24    25    1
    57    36    35    3
