@<TRIPOS>MOLECULE
mol_data/opt/cam/geoms/mol2/6di6di-.out
 28 29 0 0 0
SMALL
GASTEIGER

@<TRIPOS>ATOM
      1 C          -4.4302   -1.9759   -0.7312 C.ar    1  LIG1        0.1407
      2 C          -3.1351   -2.1025   -0.2371 C.ar    1  LIG1       -0.0255
      3 C          -2.5551   -0.9821    0.3303 C.ar    1  LIG1       -0.0541
      4 C          -3.2402    0.2309    0.3759 C.ar    1  LIG1       -0.0243
      5 C          -4.5258    0.2519   -0.1967 C.ar    1  LIG1        0.0781
      6 N          -5.1106   -0.8319   -0.7101 N.ar    1  LIG1       -0.2360
      7 H          -1.5595   -1.0457    0.7582 H       1  LIG1        0.0622
      8 H          -2.6177   -3.0531   -0.2828 H       1  LIG1        0.0646
      9 N          -5.6214   -4.0607   -1.7282 N.1     1  LIG1       -0.1893
     10 C          -5.1054   -3.1234   -1.2916 C.1     1  LIG1        0.1191
     11 C          -2.6071    1.4183    1.0463 C.3     1  LIG1       -0.0377
     12 H          -3.3536    2.1005    1.4563 H       1  LIG1        0.0278
     13 H          -1.9942    1.9852    0.3408 H       1  LIG1        0.0278
     14 H          -1.9614    1.0898    1.8634 H       1  LIG1        0.0278
     15 C          -5.0248    2.6677   -0.8575 C.ar    1  LIG1        0.1492
     16 C          -5.3888    1.4685   -0.2315 C.ar    1  LIG1        0.0367
     17 C          -6.6648    1.4144    0.3229 C.ar    1  LIG1       -0.0455
     18 C          -7.5033    2.5212    0.2851 C.ar    1  LIG1       -0.0316
     19 C          -7.0056    3.6675   -0.3394 C.ar    1  LIG1        0.0320
     20 N          -5.8104    3.7459   -0.9070 N.ar    1  LIG1       -0.2437
     21 H          -6.9959    0.4873    0.7801 H       1  LIG1        0.0628
     22 H          -7.6167    4.5660   -0.3901 H       1  LIG1        0.0832
     23 N          -2.7419    2.8759   -2.0860 N.1     1  LIG1       -0.1893
     24 C          -3.7595    2.7911   -1.5443 C.1     1  LIG1        0.1198
     25 C          -8.8836    2.4888    0.8759 C.3     1  LIG1       -0.0383
     26 H          -8.8560    2.1952    1.9289 H       1  LIG1        0.0278
     27 H          -9.5154    1.7657    0.3521 H       1  LIG1        0.0278
     28 H          -9.3658    3.4659    0.8098 H       1  LIG1        0.0278
@<TRIPOS>BOND
     1    23    24    3
     2     9    10    3
     3    24    15    1
     4    10     1    1
     5    20    15   ar
     6    20    19   ar
     7    15    16   ar
     8     1     6   ar
     9     1     2   ar
    10     6     5   ar
    11    22    19    1
    12    19    18   ar
    13     8     2    1
    14     2     3   ar
    15    16     5    1
    16    16    17   ar
    17     5     4   ar
    18    18    17   ar
    19    18    25    1
    20    17    21    1
    21     3     4   ar
    22     3     7    1
    23    13    11    1
    24    27    25    1
    25     4    11    1
    26    28    25    1
    27    25    26    1
    28    11    12    1
    29    11    14    1
