@<TRIPOS>MOLECULE
mol_data/opt/cam/geoms/mol2/6di6di-6di-6di.out
 54 57 0 0 0
SMALL
GASTEIGER

@<TRIPOS>ATOM
      1 C          -4.5735   -2.2477   -0.1951 C.ar    1  LIG1        0.1407
      2 C          -3.1878   -2.3583   -0.2715 C.ar    1  LIG1       -0.0255
      3 C          -2.4516   -1.1874   -0.2759 C.ar    1  LIG1       -0.0541
      4 C          -3.0837    0.0547   -0.2335 C.ar    1  LIG1       -0.0243
      5 C          -4.4907    0.0432   -0.2066 C.ar    1  LIG1        0.0781
      6 N          -5.2104   -1.0796   -0.1598 N.ar    1  LIG1       -0.2360
      7 H          -1.3673   -1.2297   -0.2997 H       1  LIG1        0.0622
      8 H          -2.7135   -3.3317   -0.3055 H       1  LIG1        0.0646
      9 N          -6.0221   -4.4038   -0.0849 N.1     1  LIG1       -0.1893
     10 C          -5.3927   -3.4361   -0.1367 C.1     1  LIG1        0.1191
     11 C          -2.2553    1.3085   -0.1836 C.3     1  LIG1       -0.0377
     12 H          -2.7814    2.1316    0.3024 H       1  LIG1        0.0278
     13 H          -1.9857    1.6391   -1.1899 H       1  LIG1        0.0278
     14 H          -1.3303    1.1256    0.3675 H       1  LIG1        0.0278
     15 C          -5.2714    2.2941   -1.1264 C.ar    1  LIG1        0.1499
     16 C          -5.3196    1.2817   -0.1626 C.ar    1  LIG1        0.0368
     17 C          -6.2504    1.4453    0.8593 C.ar    1  LIG1       -0.0449
     18 C          -7.0536    2.5750    0.9360 C.ar    1  LIG1       -0.0237
     19 C          -6.8838    3.5395   -0.0734 C.ar    1  LIG1        0.0781
     20 N          -6.0234    3.3927   -1.0755 N.ar    1  LIG1       -0.2353
     21 H          -6.3372    0.6674    1.6107 H       1  LIG1        0.0628
     22 N          -3.7297    2.0637   -3.2073 N.1     1  LIG1       -0.1893
     23 C          -4.4164    2.1790   -2.2851 C.1     1  LIG1        0.1198
     24 C          -8.0312    2.7414    2.0669 C.3     1  LIG1       -0.0377
     25 H          -7.7631    2.0931    2.9029 H       1  LIG1        0.0278
     26 H          -9.0469    2.4739    1.7596 H       1  LIG1        0.0278
     27 H          -8.0599    3.7718    2.4267 H       1  LIG1        0.0278
     28 C          -6.9950    6.0540   -0.0185 C.ar    1  LIG1        0.1499
     29 C          -7.6487    4.8181   -0.0952 C.ar    1  LIG1        0.0368
     30 C          -9.0309    4.8574   -0.2091 C.ar    1  LIG1       -0.0449
     31 C          -9.7241    6.0633   -0.2822 C.ar    1  LIG1       -0.0237
     32 C          -8.9511    7.2374   -0.2503 C.ar    1  LIG1        0.0781
     33 N          -7.6268    7.2208   -0.0886 N.ar    1  LIG1       -0.2353
     34 H          -9.5892    3.9271   -0.2503 H       1  LIG1        0.0628
     35 N          -4.4325    6.1631    0.4123 N.1     1  LIG1       -0.1893
     36 C          -5.5669    6.1182    0.1984 C.1     1  LIG1        0.1198
     37 C         -11.2255    6.0501   -0.3585 C.3     1  LIG1       -0.0377
     38 H         -11.6240    5.1956    0.1929 H       1  LIG1        0.0278
     39 H         -11.5634    5.9691   -1.3946 H       1  LIG1        0.0278
     40 H         -11.6619    6.9583    0.0603 H       1  LIG1        0.0278
     41 C         -10.3145    9.0763   -1.3845 C.ar    1  LIG1        0.1492
     42 C          -9.5277    8.6108   -0.3229 C.ar    1  LIG1        0.0367
     43 C          -9.2235    9.5282    0.6799 C.ar    1  LIG1       -0.0455
     44 C          -9.7227   10.8232    0.6335 C.ar    1  LIG1       -0.0316
     45 C         -10.5265   11.1493   -0.4619 C.ar    1  LIG1        0.0320
     46 N         -10.8092   10.3145   -1.4514 N.ar    1  LIG1       -0.2437
     47 H          -8.5820    9.2138    1.4970 H       1  LIG1        0.0628
     48 H         -10.9540   12.1463   -0.5433 H       1  LIG1        0.0832
     49 N         -10.8345    7.5440   -3.4203 N.1     1  LIG1       -0.1893
     50 C         -10.6051    8.2322   -2.5204 C.1     1  LIG1        0.1198
     51 C          -9.4038   11.8342    1.6972 C.3     1  LIG1       -0.0383
     52 H         -10.0160   12.7314    1.5873 H       1  LIG1        0.0278
     53 H          -8.3537   12.1372    1.6432 H       1  LIG1        0.0278
     54 H          -9.5745   11.4258    2.6966 H       1  LIG1        0.0278
@<TRIPOS>BOND
     1    49    50    3
     2    22    23    3
     3    50    41    1
     4    23    15    1
     5    46    41   ar
     6    46    45   ar
     7    39    37    1
     8    41    42   ar
     9    13    11    1
    10    15    20   ar
    11    15    16   ar
    12    20    19   ar
    13    48    45    1
    14    45    44   ar
    15    37    31    1
    16    37    40    1
    17    37    38    1
    18    42    32    1
    19    42    43   ar
    20     8     2    1
    21     7     3    1
    22    31    32   ar
    23    31    30   ar
    24     3     2   ar
    25     3     4   ar
    26     2     1   ar
    27    34    30    1
    28    32    33   ar
    29     4     5   ar
    30     4    11    1
    31    30    29   ar
    32     5    16    1
    33     5     6   ar
    34     1     6   ar
    35     1    10    1
    36    11    12    1
    37    11    14    1
    38    16    17   ar
    39    10     9    3
    40    29    19    1
    41    29    28   ar
    42    33    28   ar
    43    19    18   ar
    44    28    36    1
    45    36    35    3
    46    44    43   ar
    47    44    51    1
    48    43    47    1
    49    17    18   ar
    50    17    21    1
    51    18    24    1
    52    52    51    1
    53    53    51    1
    54    51    54    1
    55    26    24    1
    56    24    27    1
    57    24    25    1
