@<TRIPOS>MOLECULE
mol_data/opt/cam/geoms/mol2/6di6di-6di-6di-.out
 54 57 0 0 0
SMALL
GASTEIGER

@<TRIPOS>ATOM
      1 C          -4.0921   -2.0137    0.6090 C.ar    1  LIG1        0.1407
      2 C          -3.0208   -2.2269   -0.2541 C.ar    1  LIG1       -0.0255
      3 C          -2.6605   -1.1898   -1.0958 C.ar    1  LIG1       -0.0541
      4 C          -3.3674    0.0115   -1.0912 C.ar    1  LIG1       -0.0243
      5 C          -4.4590    0.0963   -0.2073 C.ar    1  LIG1        0.0781
      6 N          -4.7919   -0.8817    0.6365 N.ar    1  LIG1       -0.2360
      7 H          -1.8101   -1.3027   -1.7608 H       1  LIG1        0.0622
      8 H          -2.4842   -3.1679   -0.2447 H       1  LIG1        0.0646
      9 N          -4.7745   -3.8867    2.2776 N.1     1  LIG1       -0.1893
     10 C          -4.4859   -3.0446    1.5409 C.1     1  LIG1        0.1191
     11 C          -2.9249    1.1415   -1.9788 C.3     1  LIG1       -0.0377
     12 H          -3.1705    2.1157   -1.5525 H       1  LIG1        0.0278
     13 H          -3.4024    1.0786   -2.9602 H       1  LIG1        0.0278
     14 H          -1.8442    1.1011   -2.1296 H       1  LIG1        0.0278
     15 C          -6.0507    1.8639   -1.1351 C.ar    1  LIG1        0.1499
     16 C          -5.3159    1.3104   -0.0813 C.ar    1  LIG1        0.0368
     17 C          -5.4875    1.9030    1.1650 C.ar    1  LIG1       -0.0449
     18 C          -6.2869    3.0267    1.3365 C.ar    1  LIG1       -0.0237
     19 C          -6.9141    3.5341    0.1830 C.ar    1  LIG1        0.0781
     20 N          -6.8239    2.9409   -1.0051 N.ar    1  LIG1       -0.2353
     21 H          -4.9935    1.4584    2.0227 H       1  LIG1        0.0628
     22 N          -6.0472    0.7603   -3.4897 N.1     1  LIG1       -0.1893
     23 C          -6.0539    1.2549   -2.4451 C.1     1  LIG1        0.1198
     24 C          -6.4706    3.6133    2.7082 C.3     1  LIG1       -0.0377
     25 H          -6.3836    2.8327    3.4665 H       1  LIG1        0.0278
     26 H          -7.4472    4.0875    2.8197 H       1  LIG1        0.0278
     27 H          -5.7083    4.3690    2.9156 H       1  LIG1        0.0278
     28 C          -7.3613    6.0108    0.5851 C.ar    1  LIG1        0.1499
     29 C          -7.7915    4.7388    0.1936 C.ar    1  LIG1        0.0368
     30 C          -9.0935    4.6507   -0.2857 C.ar    1  LIG1       -0.0449
     31 C          -9.9406    5.7525   -0.3039 C.ar    1  LIG1       -0.0237
     32 C          -9.4140    6.9617    0.1891 C.ar    1  LIG1        0.0781
     33 N          -8.1477    7.0854    0.5822 N.ar    1  LIG1       -0.2353
     34 H          -9.4428    3.6968   -0.6670 H       1  LIG1        0.0628
     35 N          -4.8869    6.4131    1.2769 N.1     1  LIG1       -0.1893
     36 C          -5.9891    6.2442    0.9726 C.1     1  LIG1        0.1198
     37 C         -11.3284    5.6165   -0.8650 C.3     1  LIG1       -0.0377
     38 H         -11.3438    4.8598   -1.6520 H       1  LIG1        0.0278
     39 H         -11.6894    6.5556   -1.2876 H       1  LIG1        0.0278
     40 H         -12.0345    5.3093   -0.0892 H       1  LIG1        0.0278
     41 C         -11.3745    8.3809    0.9907 C.ar    1  LIG1        0.1492
     42 C         -10.1931    8.2315    0.2530 C.ar    1  LIG1        0.0367
     43 C          -9.7084    9.3660   -0.3917 C.ar    1  LIG1       -0.0455
     44 C         -10.4022   10.5679   -0.3285 C.ar    1  LIG1       -0.0316
     45 C         -11.5856   10.5745    0.4141 C.ar    1  LIG1        0.0320
     46 N         -12.0602    9.5232    1.0676 N.ar    1  LIG1       -0.2437
     47 H          -8.7747    9.2964   -0.9409 H       1  LIG1        0.0628
     48 H         -12.1729   11.4870    0.4900 H       1  LIG1        0.0832
     49 N         -12.3074    6.3927    2.3839 N.1     1  LIG1       -0.1893
     50 C         -11.9018    7.2835    1.7690 C.1     1  LIG1        0.1198
     51 C          -9.9027   11.8066   -1.0152 C.3     1  LIG1       -0.0383
     52 H          -9.7450   11.6300   -2.0827 H       1  LIG1        0.0278
     53 H          -8.9463   12.1281   -0.5928 H       1  LIG1        0.0278
     54 H         -10.6106   12.6309   -0.9097 H       1  LIG1        0.0278
@<TRIPOS>BOND
     1    22    23    3
     2    13    11    1
     3    23    15    1
     4    14    11    1
     5    52    51    1
     6    11    12    1
     7    11     4    1
     8     7     3    1
     9    38    37    1
    10    39    37    1
    11    15    20   ar
    12    15    16   ar
    13     3     4   ar
    14     3     2   ar
    15     4     5   ar
    16    51    54    1
    17    51    53    1
    18    51    44    1
    19    20    19   ar
    20    47    43    1
    21    37    31    1
    22    37    40    1
    23    34    30    1
    24    43    44   ar
    25    43    42   ar
    26    44    45   ar
    27    31    30   ar
    28    31    32   ar
    29    30    29   ar
    30     2     8    1
    31     2     1   ar
    32     5    16    1
    33     5     6   ar
    34    16    17   ar
    35    19    29    1
    36    19    18   ar
    37    32    42    1
    38    32    33   ar
    39    29    28   ar
    40    42    41   ar
    41    45    48    1
    42    45    46   ar
    43    33    28   ar
    44    28    36    1
    45     1     6   ar
    46     1    10    1
    47    36    35    3
    48    41    46   ar
    49    41    50    1
    50    17    18   ar
    51    17    21    1
    52    18    24    1
    53    10     9    3
    54    50    49    3
    55    24    26    1
    56    24    27    1
    57    24    25    1
