@<TRIPOS>MOLECULE
mol_data/opt/cam/geoms/mol2/6di6di6di-6di-.out
 54 57 0 0 0
SMALL
GASTEIGER

@<TRIPOS>ATOM
      1 C          -4.3063   -1.9740   -1.2755 C.ar    1  LIG1        0.1407
      2 C          -3.0961   -2.2428   -0.6425 C.ar    1  LIG1       -0.0255
      3 C          -2.5831   -1.2743    0.2034 C.ar    1  LIG1       -0.0541
      4 C          -3.2585   -0.0717    0.3952 C.ar    1  LIG1       -0.0243
      5 C          -4.4657    0.0937   -0.3071 C.ar    1  LIG1        0.0781
      6 N          -4.9776   -0.8359   -1.1117 N.ar    1  LIG1       -0.2360
      7 H          -1.6519   -1.4545    0.7314 H       1  LIG1        0.0622
      8 H          -2.5875   -3.1852   -0.8056 H       1  LIG1        0.0646
      9 N          -5.3113   -3.7607   -2.8736 N.1     1  LIG1       -0.1893
     10 C          -4.8859   -2.9544   -2.1638 C.1     1  LIG1        0.1191
     11 C          -2.7087    0.9684    1.3333 C.3     1  LIG1       -0.0377
     12 H          -3.5020    1.4741    1.8866 H       1  LIG1        0.0278
     13 H          -2.1440    1.7368    0.7961 H       1  LIG1        0.0278
     14 H          -2.0288    0.5101    2.0540 H       1  LIG1        0.0278
     15 C          -6.6162    1.2951    0.2396 C.ar    1  LIG1        0.1499
     16 C          -5.2864    1.3330   -0.1991 C.ar    1  LIG1        0.0368
     17 C          -4.7886    2.5802   -0.5489 C.ar    1  LIG1       -0.0449
     18 C          -5.5792    3.7258   -0.5012 C.ar    1  LIG1       -0.0237
     19 C          -6.9135    3.5498   -0.0963 C.ar    1  LIG1        0.0781
     20 N          -7.3973    2.3690    0.2923 N.ar    1  LIG1       -0.2353
     21 H          -3.7570    2.6685   -0.8756 H       1  LIG1        0.0628
     22 N          -7.6762   -0.9001    1.1444 N.1     1  LIG1       -0.1893
     23 C          -7.2073    0.0664    0.7195 C.1     1  LIG1        0.1198
     24 C          -4.9752    5.0592   -0.8443 C.3     1  LIG1       -0.0377
     25 H          -5.4781    5.8789   -0.3285 H       1  LIG1        0.0278
     26 H          -5.0394    5.2542   -1.9178 H       1  LIG1        0.0278
     27 H          -3.9203    5.0789   -0.5625 H       1  LIG1        0.0278
     28 C          -8.2542    5.5026   -1.0545 C.ar    1  LIG1        0.1499
     29 C          -7.8989    4.6631    0.0069 C.ar    1  LIG1        0.0368
     30 C          -8.5938    4.8521    1.1969 C.ar    1  LIG1       -0.0449
     31 C          -9.5312    5.8670    1.3438 C.ar    1  LIG1       -0.0237
     32 C          -9.7405    6.6980    0.2267 C.ar    1  LIG1        0.0781
     33 N          -9.1444    6.4874   -0.9448 N.ar    1  LIG1       -0.2353
     34 H          -8.4041    4.1717    2.0204 H       1  LIG1        0.0628
     35 N          -7.2572    5.1532   -3.4305 N.1     1  LIG1       -0.1893
     36 C          -7.7044    5.3127   -2.3768 C.1     1  LIG1        0.1198
     37 C         -10.2828    6.0067    2.6381 C.3     1  LIG1       -0.0377
     38 H         -10.4080    5.0292    3.1080 H       1  LIG1        0.0278
     39 H         -11.2723    6.4418    2.4877 H       1  LIG1        0.0278
     40 H          -9.7412    6.6497    3.3367 H       1  LIG1        0.0278
     41 C         -10.5981    8.9377    1.0904 C.ar    1  LIG1        0.1492
     42 C         -10.6957    7.8428    0.2220 C.ar    1  LIG1        0.0367
     43 C         -11.7096    7.8861   -0.7308 C.ar    1  LIG1       -0.0455
     44 C         -12.5980    8.9534   -0.7721 C.ar    1  LIG1       -0.0316
     45 C         -12.4108    9.9665    0.1716 C.ar    1  LIG1        0.0320
     46 N         -11.4374    9.9751    1.0716 N.ar    1  LIG1       -0.2437
     47 H         -11.7901    7.0729   -1.4453 H       1  LIG1        0.0628
     48 H         -13.0821   10.8223    0.1885 H       1  LIG1        0.0832
     49 N          -8.6496    9.0762    2.8076 N.1     1  LIG1       -0.1893
     50 C          -9.5198    9.0256    2.0484 C.1     1  LIG1        0.1198
     51 C         -13.7040    9.0229   -1.7856 C.3     1  LIG1       -0.0383
     52 H         -14.3669    8.1568   -1.7058 H       1  LIG1        0.0278
     53 H         -13.3018    9.0330   -2.8026 H       1  LIG1        0.0278
     54 H         -14.3070    9.9230   -1.6527 H       1  LIG1        0.0278
@<TRIPOS>BOND
     1    35    36    3
     2     9    10    3
     3    53    51    1
     4    36    28    1
     5    10     1    1
     6    26    24    1
     7    51    52    1
     8    51    54    1
     9    51    44    1
    10    47    43    1
    11     1     6   ar
    12     1     2   ar
    13     6     5   ar
    14    28    33   ar
    15    28    29   ar
    16    33    32   ar
    17    21    17    1
    18    24    27    1
    19    24    18    1
    20    24    25    1
    21     8     2    1
    22    44    43   ar
    23    44    45   ar
    24    43    42   ar
    25     2     3   ar
    26    17    18   ar
    27    17    16   ar
    28    18    19   ar
    29     5    16    1
    30     5     4   ar
    31    16    15   ar
    32    19    29    1
    33    19    20   ar
    34    29    30   ar
    35    45    48    1
    36    45    46   ar
    37     3     4   ar
    38     3     7    1
    39    42    32    1
    40    42    41   ar
    41    32    31   ar
    42    15    20   ar
    43    15    23    1
    44     4    11    1
    45    23    22    3
    46    13    11    1
    47    46    41   ar
    48    41    50    1
    49    30    31   ar
    50    30    34    1
    51    11    12    1
    52    11    14    1
    53    31    37    1
    54    50    49    3
    55    39    37    1
    56    37    38    1
    57    37    40    1
