@<TRIPOS>MOLECULE
mol_data/opt/cam/geoms/mol2/6di6di.out
 28 29 0 0 0
SMALL
GASTEIGER

@<TRIPOS>ATOM
      1 C          -4.2910   -1.5469   -1.3610 C.ar    1  LIG1        0.1407
      2 C          -3.2865   -2.0931   -0.5672 C.ar    1  LIG1       -0.0255
      3 C          -2.8732   -1.3630    0.5326 C.ar    1  LIG1       -0.0541
      4 C          -3.4657   -0.1398    0.8412 C.ar    1  LIG1       -0.0243
      5 C          -4.5036    0.2908   -0.0064 C.ar    1  LIG1        0.0781
      6 N          -4.8828   -0.3853   -1.0923 N.ar    1  LIG1       -0.2360
      7 H          -2.0693   -1.7363    1.1593 H       1  LIG1        0.0622
      8 H          -2.8389   -3.0461   -0.8219 H       1  LIG1        0.0646
      9 N          -5.0562   -2.8156   -3.4974 N.1     1  LIG1       -0.1893
     10 C          -4.7302   -2.2404   -2.5497 C.1     1  LIG1        0.1191
     11 C          -2.9602    0.6577    2.0112 C.3     1  LIG1       -0.0377
     12 H          -3.4732    0.3692    2.9322 H       1  LIG1        0.0278
     13 H          -3.1133    1.7289    1.8703 H       1  LIG1        0.0278
     14 H          -1.8916    0.4826    2.1529 H       1  LIG1        0.0278
     15 C          -5.9701    1.8909    1.3392 C.ar    1  LIG1        0.1492
     16 C          -5.2416    1.5732    0.1857 C.ar    1  LIG1        0.0367
     17 C          -5.2826    2.4976   -0.8546 C.ar    1  LIG1       -0.0455
     18 C          -5.9814    3.6901   -0.7179 C.ar    1  LIG1       -0.0316
     19 C          -6.6365    3.9007    0.4981 C.ar    1  LIG1        0.0320
     20 N          -6.6477    3.0301    1.4973 N.ar    1  LIG1       -0.2437
     21 H          -4.7629    2.2659   -1.7790 H       1  LIG1        0.0628
     22 H          -7.1905    4.8222    0.6630 H       1  LIG1        0.0832
     23 N          -6.1332    0.1975    3.3064 N.1     1  LIG1       -0.1893
     24 C          -6.0674    0.9550    2.4358 C.1     1  LIG1        0.1198
     25 C          -6.0450    4.7019   -1.8258 C.3     1  LIG1       -0.0383
     26 H          -6.5320    5.6213   -1.4952 H       1  LIG1        0.0278
     27 H          -6.6090    4.3112   -2.6779 H       1  LIG1        0.0278
     28 H          -5.0451    4.9577   -2.1862 H       1  LIG1        0.0278
@<TRIPOS>BOND
     1     9    10    3
     2    27    25    1
     3    10     1    1
     4    28    25    1
     5    25    26    1
     6    25    18    1
     7    21    17    1
     8     1     6   ar
     9     1     2   ar
    10     6     5   ar
    11    17    18   ar
    12    17    16   ar
    13     8     2    1
    14    18    19   ar
    15     2     3   ar
    16     5    16    1
    17     5     4   ar
    18    16    15   ar
    19    19    22    1
    20    19    20   ar
    21     3     4   ar
    22     3     7    1
    23     4    11    1
    24    15    20   ar
    25    15    24    1
    26    13    11    1
    27    11    14    1
    28    11    12    1
    29    24    23    3
