@<TRIPOS>MOLECULE
mol_data/opt/cam/geoms/mol2/6di6hi6dl-6hd.out
 55 58 0 0 0
SMALL
GASTEIGER

@<TRIPOS>ATOM
      1 C          -3.8107   -1.7428   -1.6278 C.ar    1  LIG1        0.1407
      2 C          -2.8980   -2.2034   -0.6873 C.ar    1  LIG1       -0.0255
      3 C          -2.8048   -1.4980    0.5007 C.ar    1  LIG1       -0.0541
      4 C          -3.5709   -0.3570    0.7214 C.ar    1  LIG1       -0.0243
      5 C          -4.4269    0.0584   -0.3241 C.ar    1  LIG1        0.0786
      6 N          -4.5519   -0.6497   -1.4519 N.ar    1  LIG1       -0.2360
      7 H          -2.1379   -1.8474    1.2830 H       1  LIG1        0.0622
      8 H          -2.3099   -3.0933   -0.8747 H       1  LIG1        0.0646
      9 N          -4.1398   -3.0518   -3.8498 N.1     1  LIG1       -0.1893
     10 C          -4.0020   -2.4604   -2.8667 C.1     1  LIG1        0.1191
     11 C          -3.4859    0.3321    2.0574 C.3     1  LIG1       -0.0377
     12 H          -4.4349    0.7915    2.3360 H       1  LIG1        0.0278
     13 H          -2.7242    1.1178    2.0636 H       1  LIG1        0.0278
     14 H          -3.2113   -0.3876    2.8316 H       1  LIG1        0.0278
     15 C          -6.6156    1.3096   -0.6658 C.ar    1  LIG1        0.1261
     16 C          -5.2573    1.2877   -0.2460 C.ar    1  LIG1        0.0404
     17 C          -4.7358    2.4803    0.2267 C.ar    1  LIG1       -0.0443
     18 C          -5.4953    3.6459    0.3369 C.ar    1  LIG1       -0.0236
     19 C          -6.8313    3.5293   -0.0537 C.ar    1  LIG1        0.0788
     20 N          -7.3628    2.4069   -0.5393 N.ar    1  LIG1       -0.2314
     21 H          -3.6926    2.5159    0.5239 H       1  LIG1        0.0628
     22 N          -7.2387    0.2096   -1.1714 N.pl3   1  LIG1       -0.3426
     23 H          -8.1656    0.3822   -1.5287 H       1  LIG1        0.1437
     24 H          -6.6590   -0.4547   -1.6625 H       1  LIG1        0.1437
     25 C          -4.8771    4.9075    0.8824 C.3     1  LIG1       -0.0377
     26 H          -5.5881    5.4893    1.4723 H       1  LIG1        0.0278
     27 H          -4.4969    5.5612    0.0895 H       1  LIG1        0.0278
     28 H          -4.0296    4.6667    1.5286 H       1  LIG1        0.0278
     29 C          -9.0075    4.5492    0.7041 C.ar    1  LIG1        0.1501
     30 C          -7.7925    4.6641    0.0320 C.ar    1  LIG1        0.0400
     31 C          -7.5409    5.8872   -0.5854 C.ar    1  LIG1       -0.0059
     32 C          -8.4738    6.9125   -0.5391 C.ar    1  LIG1        0.1468
     33 C          -9.7066    6.6957    0.1365 C.ar    1  LIG1        0.1173
     34 N          -9.9112    5.5321    0.7472 N.ar    1  LIG1       -0.2319
     35 H          -6.6086    6.0213   -1.1169 H       1  LIG1        0.0662
     36 N          -9.6611    2.4531    2.0931 N.1     1  LIG1       -0.1893
     37 C          -9.3574    3.3647    1.4509 C.1     1  LIG1        0.1198
     38 O          -8.2662    8.1226   -1.0976 O.3     1  LIG1       -0.4929
     39 C          -7.0155    8.3975   -1.7059 C.3     1  LIG1        0.0789
     40 H          -7.0677    9.4340   -2.0348 H       1  LIG1        0.0660
     41 H          -6.1938    8.2832   -0.9912 H       1  LIG1        0.0660
     42 H          -6.8420    7.7507   -2.5721 H       1  LIG1        0.0660
     43 C         -11.7010    7.7560    1.3233 C.ar    1  LIG1        0.1256
     44 C         -10.7807    7.7145    0.2257 C.ar    1  LIG1        0.0447
     45 C         -10.9627    8.6663   -0.7663 C.ar    1  LIG1       -0.0303
     46 C         -11.9600    9.6374   -0.6586 C.ar    1  LIG1        0.0706
     47 C         -12.7564    9.6217    0.4877 C.ar    1  LIG1        0.0471
     48 N         -12.6380    8.7159    1.4377 N.ar    1  LIG1       -0.2388
     49 H         -10.3248    8.6657   -1.6375 H       1  LIG1        0.0638
     50 H         -13.5270   10.3763    0.6268 H       1  LIG1        0.0843
     51 N         -11.6778    6.8621    2.3319 N.pl3   1  LIG1       -0.3426
     52 H         -12.4261    6.9414    3.0018 H       1  LIG1        0.1437
     53 H         -11.2047    5.9825    2.1793 H       1  LIG1        0.1437
     54 N         -12.2979   11.4205   -2.5012 N.1     1  LIG1       -0.1908
     55 C         -12.1485   10.6217   -1.6765 C.1     1  LIG1        0.1007
@<TRIPOS>BOND
     1     9    10    3
     2    10     1    1
     3    42    39    1
     4    54    55    3
     5    40    39    1
     6    39    38    1
     7    39    41    1
     8    55    46    1
     9    24    22    1
    10    49    45    1
    11     1     6   ar
    12     1     2   ar
    13    23    22    1
    14     6     5   ar
    15    22    15    1
    16    35    31    1
    17    38    32    1
    18     8     2    1
    19    45    46   ar
    20    45    44   ar
    21     2     3   ar
    22    15    20   ar
    23    15    16   ar
    24    46    47   ar
    25    31    32   ar
    26    31    30   ar
    27    20    19   ar
    28    32    33   ar
    29     5    16    1
    30     5     4   ar
    31    16    17   ar
    32    19    30    1
    33    19    18   ar
    34    30    29   ar
    35    27    25    1
    36    33    44    1
    37    33    34   ar
    38    44    43   ar
    39    17    18   ar
    40    17    21    1
    41    18    25    1
    42    47    50    1
    43    47    48   ar
    44     3     4   ar
    45     3     7    1
    46    29    34   ar
    47    29    37    1
    48     4    11    1
    49    25    26    1
    50    25    28    1
    51    43    48   ar
    52    43    51    1
    53    37    36    3
    54    11    13    1
    55    11    12    1
    56    11    14    1
    57    53    51    1
    58    51    52    1
