@<TRIPOS>MOLECULE
mol_data/opt/cam/geoms/mol2/6di6di6di6di-.out
 54 57 0 0 0
SMALL
GASTEIGER

@<TRIPOS>ATOM
      1 C          -2.2511   -0.5359   -1.1440 C.ar    1  LIG1        0.1407
      2 C          -2.3301   -1.7209   -0.4173 C.ar    1  LIG1       -0.0255
      3 C          -3.3900   -1.8643    0.4596 C.ar    1  LIG1       -0.0541
      4 C          -4.3550   -0.8657    0.5844 C.ar    1  LIG1       -0.0243
      5 C          -4.1972    0.2666   -0.2363 C.ar    1  LIG1        0.0781
      6 N          -3.1571    0.4350   -1.0551 N.ar    1  LIG1       -0.2360
      7 H          -3.4701   -2.7580    1.0706 H       1  LIG1        0.0622
      8 H          -1.5723   -2.4871   -0.5281 H       1  LIG1        0.0646
      9 N          -0.2368   -0.1501   -2.7416 N.1     1  LIG1       -0.1893
     10 C          -1.1401   -0.3078   -2.0385 C.1     1  LIG1        0.1191
     11 C          -5.4648   -1.0260    1.5861 C.3     1  LIG1       -0.0377
     12 H          -6.3015   -1.5829    1.1566 H       1  LIG1        0.0278
     13 H          -5.8519   -0.0657    1.9303 H       1  LIG1        0.0278
     14 H          -5.1071   -1.5787    2.4575 H       1  LIG1        0.0278
     15 C          -6.5077    1.3218   -0.5014 C.ar    1  LIG1        0.1499
     16 C          -5.1396    1.4220   -0.2286 C.ar    1  LIG1        0.0368
     17 C          -4.6485    2.7031    0.0063 C.ar    1  LIG1       -0.0449
     18 C          -5.4844    3.8115    0.0113 C.ar    1  LIG1       -0.0237
     19 C          -6.8478    3.5746   -0.2398 C.ar    1  LIG1        0.0781
     20 N          -7.3358    2.3655   -0.4961 N.ar    1  LIG1       -0.2353
     21 H          -3.5869    2.8248    0.1940 H       1  LIG1        0.0628
     22 N          -7.5605   -0.9651   -1.1509 N.1     1  LIG1       -0.1893
     23 C          -7.1047    0.0562   -0.8601 C.1     1  LIG1        0.1198
     24 C          -4.9336    5.1817    0.2969 C.3     1  LIG1       -0.0377
     25 H          -5.6096    5.7650    0.9252 H       1  LIG1        0.0278
     26 H          -4.7739    5.7483   -0.6256 H       1  LIG1        0.0278
     27 H          -3.9703    5.1086    0.8045 H       1  LIG1        0.0278
     28 C          -8.9288    4.6485    0.6845 C.ar    1  LIG1        0.1499
     29 C          -7.8649    4.6636   -0.2257 C.ar    1  LIG1        0.0368
     30 C          -7.8268    5.7300   -1.1124 C.ar    1  LIG1       -0.0449
     31 C          -8.8165    6.7101   -1.1197 C.ar    1  LIG1       -0.0237
     32 C          -9.8633    6.5552   -0.1938 C.ar    1  LIG1        0.0781
     33 N          -9.8899    5.5659    0.7010 N.ar    1  LIG1       -0.2353
     34 H          -7.0108    5.8020   -1.8251 H       1  LIG1        0.0628
     35 N          -9.0368    2.8429    2.5532 N.1     1  LIG1       -0.1893
     36 C          -9.0041    3.6327    1.7107 C.1     1  LIG1        0.1198
     37 C          -8.7028    7.8692   -2.0703 C.3     1  LIG1       -0.0377
     38 H          -9.2058    8.7590   -1.6884 H       1  LIG1        0.0278
     39 H          -9.1504    7.6267   -3.0374 H       1  LIG1        0.0278
     40 H          -7.6527    8.1178   -2.2387 H       1  LIG1        0.0278
     41 C         -11.8843    7.8191   -1.1131 C.ar    1  LIG1        0.1492
     42 C         -11.0052    7.5063   -0.0681 C.ar    1  LIG1        0.0367
     43 C         -11.2774    8.0793    1.1717 C.ar    1  LIG1       -0.0455
     44 C         -12.3467    8.9507    1.3323 C.ar    1  LIG1       -0.0316
     45 C         -13.1246    9.2083    0.2005 C.ar    1  LIG1        0.0320
     46 N         -12.9169    8.6557   -0.9859 N.ar    1  LIG1       -0.2437
     47 H         -10.6412    7.8265    2.0139 H       1  LIG1        0.0628
     48 H         -13.9678    9.8925    0.2661 H       1  LIG1        0.0832
     49 N         -11.6192    6.7038   -3.4473 N.1     1  LIG1       -0.1893
     50 C         -11.7455    7.2013   -2.4117 C.1     1  LIG1        0.1198
     51 C         -12.6672    9.5760    2.6596 C.3     1  LIG1       -0.0383
     52 H         -11.7780   10.0212    3.1133 H       1  LIG1        0.0278
     53 H         -13.0510    8.8275    3.3593 H       1  LIG1        0.0278
     54 H         -13.4238   10.3563    2.5575 H       1  LIG1        0.0278
@<TRIPOS>BOND
     1    49    50    3
     2    39    37    1
     3     9    10    3
     4    50    41    1
     5    40    37    1
     6    37    38    1
     7    37    31    1
     8    10     1    1
     9    34    30    1
    10    22    23    3
    11     1     6   ar
    12     1     2   ar
    13    31    30   ar
    14    31    32   ar
    15    41    46   ar
    16    41    42   ar
    17    30    29   ar
    18     6     5   ar
    19    46    45   ar
    20    23    15    1
    21    26    24    1
    22     8     2    1
    23    15    20   ar
    24    15    16   ar
    25    20    19   ar
    26     2     3   ar
    27    19    29    1
    28    19    18   ar
    29     5    16    1
    30     5     4   ar
    31    16    17   ar
    32    29    28   ar
    33    32    42    1
    34    32    33   ar
    35    42    43   ar
    36    17    18   ar
    37    17    21    1
    38    18    24    1
    39    45    48    1
    40    45    44   ar
    41    24    27    1
    42    24    25    1
    43     3     4   ar
    44     3     7    1
    45     4    11    1
    46    28    33   ar
    47    28    36    1
    48    12    11    1
    49    43    44   ar
    50    43    47    1
    51    44    51    1
    52    11    13    1
    53    11    14    1
    54    36    35    3
    55    54    51    1
    56    51    52    1
    57    51    53    1
