@<TRIPOS>MOLECULE
mol_data/opt/cam/geoms/mol2/6di6di6di-6di.out
 54 57 0 0 0
SMALL
GASTEIGER

@<TRIPOS>ATOM
      1 C          -3.9919   -1.7624   -1.6088 C.ar    1  LIG1        0.1407
      2 C          -3.0116   -2.2046   -0.7251 C.ar    1  LIG1       -0.0255
      3 C          -2.7678   -1.4390    0.4025 C.ar    1  LIG1       -0.0541
      4 C          -3.4782   -0.2625    0.6253 C.ar    1  LIG1       -0.0243
      5 C          -4.4356    0.0906   -0.3421 C.ar    1  LIG1        0.0781
      6 N          -4.6904   -0.6439   -1.4230 N.ar    1  LIG1       -0.2360
      7 H          -2.0249   -1.7608    1.1256 H       1  LIG1        0.0622
      8 H          -2.4715   -3.1236   -0.9183 H       1  LIG1        0.0646
      9 N          -4.4817   -3.1653   -3.7413 N.1     1  LIG1       -0.1893
     10 C          -4.2851   -2.5285   -2.7976 C.1     1  LIG1        0.1191
     11 C          -3.2291    0.5579    1.8619 C.3     1  LIG1       -0.0377
     12 H          -4.1570    0.9621    2.2711 H       1  LIG1        0.0278
     13 H          -2.5668    1.4048    1.6569 H       1  LIG1        0.0278
     14 H          -2.7521   -0.0495    2.6333 H       1  LIG1        0.0278
     15 C          -6.6578    1.2718   -0.1479 C.ar    1  LIG1        0.1499
     16 C          -5.2604    1.3271   -0.2274 C.ar    1  LIG1        0.0368
     17 C          -4.6919    2.5925   -0.2146 C.ar    1  LIG1       -0.0449
     18 C          -5.4716    3.7456   -0.1647 C.ar    1  LIG1       -0.0237
     19 C          -6.8646    3.5610   -0.1452 C.ar    1  LIG1        0.0781
     20 N          -7.4289    2.3530   -0.1032 N.ar    1  LIG1       -0.2353
     21 H          -3.6111    2.6903   -0.2509 H       1  LIG1        0.0628
     22 N          -7.8876   -1.0094    0.0626 N.1     1  LIG1       -0.1893
     23 C          -7.3430    0.0025   -0.0546 C.1     1  LIG1        0.1198
     24 C          -4.8005    5.0898   -0.1020 C.3     1  LIG1       -0.0377
     25 H          -5.4279    5.8348    0.3901 H       1  LIG1        0.0278
     26 H          -4.5713    5.4607   -1.1040 H       1  LIG1        0.0278
     27 H          -3.8623    5.0172    0.4526 H       1  LIG1        0.0278
     28 C          -7.9306    5.7001   -1.0537 C.ar    1  LIG1        0.1499
     29 C          -7.8483    4.6808   -0.0990 C.ar    1  LIG1        0.0368
     30 C          -8.7922    4.7195    0.9218 C.ar    1  LIG1       -0.0449
     31 C          -9.7464    5.7269    1.0013 C.ar    1  LIG1       -0.0237
     32 C          -9.7304    6.6929   -0.0231 C.ar    1  LIG1        0.0781
     33 N          -8.8358    6.6763   -1.0094 N.ar    1  LIG1       -0.2353
     34 H          -8.7706    3.9414    1.6777 H       1  LIG1        0.0628
     35 N          -6.3170    5.7651   -3.0918 N.1     1  LIG1       -0.1893
     36 C          -7.0408    5.7378   -2.1911 C.1     1  LIG1        0.1198
     37 C         -10.7018    5.7544    2.1615 C.3     1  LIG1       -0.0377
     38 H         -10.2288    5.3317    3.0501 H       1  LIG1        0.0278
     39 H         -11.5952    5.1637    1.9434 H       1  LIG1        0.0278
     40 H         -11.0265    6.7692    2.3975 H       1  LIG1        0.0278
     41 C         -12.0595    7.7401   -0.1356 C.ar    1  LIG1        0.1492
     42 C         -10.6643    7.8551   -0.0793 C.ar    1  LIG1        0.0367
     43 C         -10.1394    9.1429   -0.1476 C.ar    1  LIG1       -0.0455
     44 C         -10.9762   10.2489   -0.2233 C.ar    1  LIG1       -0.0316
     45 C         -12.3504    9.9985   -0.2356 C.ar    1  LIG1        0.0320
     46 N         -12.8855    8.7864   -0.2059 N.ar    1  LIG1       -0.2437
     47 H          -9.0612    9.2678   -0.1470 H       1  LIG1        0.0628
     48 H         -13.0527   10.8280   -0.2830 H       1  LIG1        0.0832
     49 N         -13.1979    5.4027   -0.1873 N.1     1  LIG1       -0.1893
     50 C         -12.6983    6.4448   -0.1675 C.1     1  LIG1        0.1198
     51 C         -10.4353   11.6478   -0.3019 C.3     1  LIG1       -0.0383
     52 H         -11.2359   12.3864   -0.2300 H       1  LIG1        0.0278
     53 H          -9.9129   11.8109   -1.2493 H       1  LIG1        0.0278
     54 H          -9.7209   11.8419    0.5025 H       1  LIG1        0.0278
@<TRIPOS>BOND
     1     9    10    3
     2    35    36    3
     3    10     1    1
     4    36    28    1
     5     1     6   ar
     6     1     2   ar
     7     6     5   ar
     8    53    51    1
     9    26    24    1
    10    28    33   ar
    11    28    29   ar
    12    33    32   ar
    13     8     2    1
    14     2     3   ar
    15     5    16    1
    16     5     4   ar
    17    51    52    1
    18    51    44    1
    19    51    54    1
    20    48    45    1
    21    21    17    1
    22    45    44   ar
    23    45    46   ar
    24    16    17   ar
    25    16    15   ar
    26    44    43   ar
    27    17    18   ar
    28    46    41   ar
    29    49    50    3
    30    50    41    1
    31    18    19   ar
    32    18    24    1
    33    15    20   ar
    34    15    23    1
    35    43    47    1
    36    43    42   ar
    37    19    20   ar
    38    19    29    1
    39    41    42   ar
    40    24    25    1
    41    24    27    1
    42    29    30   ar
    43    42    32    1
    44    23    22    3
    45    32    31   ar
    46     3     4   ar
    47     3     7    1
    48     4    11    1
    49    30    31   ar
    50    30    34    1
    51    31    37    1
    52    13    11    1
    53    11    12    1
    54    11    14    1
    55    39    37    1
    56    37    40    1
    57    37    38    1
