@<TRIPOS>MOLECULE
mol_data/opt/cam/geoms/mol2/6di6di-6di6di-.out
 54 57 0 0 0
SMALL
GASTEIGER

@<TRIPOS>ATOM
      1 C          -4.3684   -2.1013   -0.9110 C.ar    1  LIG1        0.1407
      2 C          -3.0549   -2.2650   -0.4788 C.ar    1  LIG1       -0.0255
      3 C          -2.4415   -1.1839    0.1275 C.ar    1  LIG1       -0.0541
      4 C          -3.1122    0.0299    0.2703 C.ar    1  LIG1       -0.0243
      5 C          -4.4184    0.0929   -0.2490 C.ar    1  LIG1        0.0781
      6 N          -5.0354   -0.9553   -0.7973 N.ar    1  LIG1       -0.2360
      7 H          -1.4303   -1.2797    0.5104 H       1  LIG1        0.0622
      8 H          -2.5492   -3.2153   -0.5999 H       1  LIG1        0.0646
      9 N          -5.6148   -4.1233   -1.9675 N.1     1  LIG1       -0.1893
     10 C          -5.0762   -3.2120   -1.5042 C.1     1  LIG1        0.1191
     11 C          -2.4406    1.1697    0.9849 C.3     1  LIG1       -0.0377
     12 H          -3.1635    1.8447    1.4458 H       1  LIG1        0.0278
     13 H          -1.8303    1.7590    0.2959 H       1  LIG1        0.0278
     14 H          -1.7855    0.7872    1.7707 H       1  LIG1        0.0278
     15 C          -4.9200    2.5483   -0.7491 C.ar    1  LIG1        0.1499
     16 C          -5.2700    1.3163   -0.1858 C.ar    1  LIG1        0.0368
     17 C          -6.5198    1.2511    0.4201 C.ar    1  LIG1       -0.0449
     18 C          -7.3627    2.3548    0.4816 C.ar    1  LIG1       -0.0237
     19 C          -6.8981    3.5367   -0.1254 C.ar    1  LIG1        0.0781
     20 N          -5.7051    3.6236   -0.7096 N.ar    1  LIG1       -0.2353
     21 H          -6.8348    0.3107    0.8603 H       1  LIG1        0.0628
     22 N          -2.6648    2.8415   -2.0099 N.1     1  LIG1       -0.1893
     23 C          -3.6711    2.7194   -1.4548 C.1     1  LIG1        0.1198
     24 C          -8.6793    2.2466    1.1988 C.3     1  LIG1       -0.0377
     25 H          -8.6075    1.5243    2.0143 H       1  LIG1        0.0278
     26 H          -9.4658    1.9083    0.5194 H       1  LIG1        0.0278
     27 H          -8.9934    3.2040    1.6183 H       1  LIG1        0.0278
     28 C          -8.9298    4.9765   -0.7022 C.ar    1  LIG1        0.1499
     29 C          -7.6631    4.8177   -0.1303 C.ar    1  LIG1        0.0368
     30 C          -7.0916    5.9590    0.4210 C.ar    1  LIG1       -0.0449
     31 C          -7.7503    7.1833    0.4205 C.ar    1  LIG1       -0.0237
     32 C          -9.0154    7.2180   -0.1963 C.ar    1  LIG1        0.0781
     33 N          -9.5840    6.1363   -0.7261 N.ar    1  LIG1       -0.2353
     34 H          -6.1069    5.8823    0.8705 H       1  LIG1        0.0628
     35 N         -10.1429    2.9829   -1.8490 N.1     1  LIG1       -0.1893
     36 C          -9.6057    3.8738   -1.3456 C.1     1  LIG1        0.1198
     37 C          -7.1128    8.3693    1.0888 C.3     1  LIG1       -0.0377
     38 H          -7.8570    9.0761    1.4595 H       1  LIG1        0.0278
     39 H          -6.4646    8.9067    0.3921 H       1  LIG1        0.0278
     40 H          -6.5016    8.0433    1.9329 H       1  LIG1        0.0278
     41 C          -9.4718    9.6368   -0.8844 C.ar    1  LIG1        0.1492
     42 C          -9.8670    8.4406   -0.2711 C.ar    1  LIG1        0.0367
     43 C         -11.1649    8.3940    0.2311 C.ar    1  LIG1       -0.0455
     44 C         -11.9963    9.5042    0.1568 C.ar    1  LIG1       -0.0316
     45 C         -11.4678   10.6469   -0.4484 C.ar    1  LIG1        0.0320
     46 N         -10.2501   10.7181   -0.9668 N.ar    1  LIG1       -0.2437
     47 H         -11.5193    7.4699    0.6767 H       1  LIG1        0.0628
     48 H         -12.0715   11.5486   -0.5255 H       1  LIG1        0.0832
     49 N          -7.1420    9.8377   -2.0221 N.1     1  LIG1       -0.1893
     50 C          -8.1802    9.7547   -1.5209 C.1     1  LIG1        0.1198
     51 C         -13.4007    9.4788    0.6884 C.3     1  LIG1       -0.0383
     52 H         -13.4220    9.1633    1.7351 H       1  LIG1        0.0278
     53 H         -14.0190    8.7756    0.1227 H       1  LIG1        0.0278
     54 H         -13.8670   10.4636    0.6221 H       1  LIG1        0.0278
@<TRIPOS>BOND
     1    49    50    3
     2    22    23    3
     3     9    10    3
     4    35    36    3
     5    50    41    1
     6    10     1    1
     7    23    15    1
     8    36    28    1
     9    46    41   ar
    10    46    45   ar
    11     1     6   ar
    12     1     2   ar
    13    41    42   ar
    14     6     5   ar
    15    15    20   ar
    16    15    16   ar
    17    33    28   ar
    18    33    32   ar
    19    20    19   ar
    20    28    29   ar
    21     8     2    1
    22    48    45    1
    23     2     3   ar
    24    45    44   ar
    25    42    32    1
    26    42    43   ar
    27     5    16    1
    28     5     4   ar
    29    32    31   ar
    30    16    17   ar
    31    29    19    1
    32    29    30   ar
    33    19    18   ar
    34    53    51    1
    35     3     4   ar
    36     3     7    1
    37    44    43   ar
    38    44    51    1
    39    43    47    1
    40     4    11    1
    41    13    11    1
    42    39    37    1
    43    17    18   ar
    44    17    21    1
    45    31    30   ar
    46    31    37    1
    47    30    34    1
    48    18    24    1
    49    26    24    1
    50    54    51    1
    51    51    52    1
    52    11    12    1
    53    11    14    1
    54    37    38    1
    55    37    40    1
    56    24    27    1
    57    24    25    1
