@<TRIPOS>MOLECULE
mol_data/opt/cam/geoms/mol2/6di6di-6di.out
 41 43 0 0 0
SMALL
GASTEIGER

@<TRIPOS>ATOM
      1 C          -4.4786   -2.0849   -0.6689 C.ar    1  LIG1        0.1407
      2 C          -3.1313   -2.2071   -0.3395 C.ar    1  LIG1       -0.0255
      3 C          -2.4785   -1.0755    0.1146 C.ar    1  LIG1       -0.0541
      4 C          -3.1465    0.1444    0.2086 C.ar    1  LIG1       -0.0243
      5 C          -4.4936    0.1586   -0.1978 C.ar    1  LIG1        0.0781
      6 N          -5.1448   -0.9350   -0.5975 N.ar    1  LIG1       -0.2360
      7 H          -1.4370   -1.1349    0.4148 H       1  LIG1        0.0622
      8 H          -2.6285   -3.1632   -0.4208 H       1  LIG1        0.0646
      9 N          -5.7887   -4.1947   -1.4371 N.1     1  LIG1       -0.1893
     10 C          -5.2230   -3.2449   -1.1011 C.1     1  LIG1        0.1191
     11 C          -2.4269    1.3449    0.7581 C.3     1  LIG1       -0.0377
     12 H          -3.1135    2.0537    1.2241 H       1  LIG1        0.0278
     13 H          -1.8899    1.8754   -0.0323 H       1  LIG1        0.0278
     14 H          -1.6978    1.0351    1.5099 H       1  LIG1        0.0278
     15 C          -5.0632    2.5583   -0.8650 C.ar    1  LIG1        0.1499
     16 C          -5.3484    1.3809   -0.1657 C.ar    1  LIG1        0.0368
     17 C          -6.5373    1.3686    0.5554 C.ar    1  LIG1       -0.0449
     18 C          -7.3817    2.4721    0.5958 C.ar    1  LIG1       -0.0237
     19 C          -6.9873    3.5961   -0.1550 C.ar    1  LIG1        0.0781
     20 N          -5.8526    3.6311   -0.8511 N.ar    1  LIG1       -0.2353
     21 H          -6.8018    0.4712    1.1049 H       1  LIG1        0.0628
     22 N          -2.9341    2.7529   -2.3455 N.1     1  LIG1       -0.1893
     23 C          -3.8845    2.6713   -1.6929 C.1     1  LIG1        0.1198
     24 C          -8.6249    2.4260    1.4394 C.3     1  LIG1       -0.0377
     25 H          -8.4670    1.7865    2.3102 H       1  LIG1        0.0278
     26 H          -9.4649    2.0182    0.8713 H       1  LIG1        0.0278
     27 H          -8.9148    3.4173    1.7919 H       1  LIG1        0.0278
     28 C          -9.0828    4.9689   -0.6592 C.ar    1  LIG1        0.1492
     29 C          -7.7614    4.8707   -0.2040 C.ar    1  LIG1        0.0367
     30 C          -7.1334    6.0601    0.1555 C.ar    1  LIG1       -0.0455
     31 C          -7.8149    7.2692    0.0991 C.ar    1  LIG1       -0.0316
     32 C          -9.1399    7.2250   -0.3409 C.ar    1  LIG1        0.0320
     33 N          -9.7602    6.1173   -0.7219 N.ar    1  LIG1       -0.2437
     34 H          -6.0966    6.0274    0.4753 H       1  LIG1        0.0628
     35 H          -9.7238    8.1411   -0.3968 H       1  LIG1        0.0832
     36 N         -10.3470    2.8664   -1.5216 N.1     1  LIG1       -0.1893
     37 C          -9.7903    3.8057   -1.1424 C.1     1  LIG1        0.1198
     38 C          -7.1600    8.5657    0.4810 C.3     1  LIG1       -0.0383
     39 H          -7.8698    9.3941    0.4428 H       1  LIG1        0.0278
     40 H          -6.3335    8.7998   -0.1963 H       1  LIG1        0.0278
     41 H          -6.7491    8.5181    1.4932 H       1  LIG1        0.0278
@<TRIPOS>BOND
     1    22    23    3
     2    23    15    1
     3    36    37    3
     4     9    10    3
     5    37    28    1
     6    10     1    1
     7    15    20   ar
     8    15    16   ar
     9    20    19   ar
    10    33    28   ar
    11    33    32   ar
    12     1     6   ar
    13     1     2   ar
    14    28    29   ar
    15     6     5   ar
    16     8     2    1
    17    35    32    1
    18    32    31   ar
    19     2     3   ar
    20    29    19    1
    21    29    30   ar
    22     5    16    1
    23     5     4   ar
    24    40    38    1
    25    16    17   ar
    26    19    18   ar
    27    13    11    1
    28    31    30   ar
    29    31    38    1
    30     3     4   ar
    31     3     7    1
    32    30    34    1
    33     4    11    1
    34    39    38    1
    35    38    41    1
    36    17    18   ar
    37    17    21    1
    38    18    24    1
    39    11    12    1
    40    11    14    1
    41    26    24    1
    42    24    27    1
    43    24    25    1
