@<TRIPOS>MOLECULE
mol_data/opt/cam/geoms/mol2/6di6di-4di6di.out
 55 58 0 0 0
SMALL
GASTEIGER

@<TRIPOS>ATOM
      1 C          -4.5724   -2.2622   -0.1057 C.ar    1  LIG1        0.1407
      2 C          -3.1891   -2.3794   -0.2108 C.ar    1  LIG1       -0.0255
      3 C          -2.4502   -1.2112   -0.2611 C.ar    1  LIG1       -0.0541
      4 C          -3.0779    0.0334   -0.2349 C.ar    1  LIG1       -0.0243
      5 C          -4.4842    0.0276   -0.1764 C.ar    1  LIG1        0.0781
      6 N          -5.2053   -1.0916   -0.0855 N.ar    1  LIG1       -0.2360
      7 H          -1.3667   -1.2575   -0.3083 H       1  LIG1        0.0622
      8 H          -2.7184   -3.3549   -0.2313 H       1  LIG1        0.0646
      9 N          -6.0229   -4.4108    0.0917 N.1     1  LIG1       -0.1893
     10 C          -5.3929   -3.4463    0.0011 C.1     1  LIG1        0.1191
     11 C          -2.2454    1.2854   -0.2339 C.3     1  LIG1       -0.0377
     12 H          -2.7578    2.1204    0.2465 H       1  LIG1        0.0278
     13 H          -2.0006    1.5931   -1.2537 H       1  LIG1        0.0278
     14 H          -1.3073    1.1121    0.2979 H       1  LIG1        0.0278
     15 C          -5.2783    2.2587   -1.1331 C.ar    1  LIG1        0.1499
     16 C          -5.3075    1.2702   -0.1444 C.ar    1  LIG1        0.0368
     17 C          -6.2131    1.4641    0.8946 C.ar    1  LIG1       -0.0449
     18 C          -7.0108    2.5983    0.9616 C.ar    1  LIG1       -0.0237
     19 C          -6.8637    3.5377   -0.0760 C.ar    1  LIG1        0.0766
     20 N          -6.0255    3.3608   -1.0922 N.ar    1  LIG1       -0.2354
     21 H          -6.2841    0.7065    1.6681 H       1  LIG1        0.0628
     22 N          -3.7836    1.9723   -3.2415 N.1     1  LIG1       -0.1893
     23 C          -4.4497    2.1124   -2.3075 C.1     1  LIG1        0.1198
     24 C          -7.9578    2.7932    2.1141 C.3     1  LIG1       -0.0377
     25 H          -7.6574    2.1768    2.9633 H       1  LIG1        0.0278
     26 H          -8.9783    2.5042    1.8453 H       1  LIG1        0.0278
     27 H          -7.9896    3.8352    2.4376 H       1  LIG1        0.0278
     28 C          -6.9597    6.0487   -0.1348 C.ar    1  LIG1        0.0615
     29 C          -7.6895    7.2323   -0.2141 C.ar    1  LIG1       -0.0357
     30 C          -7.6297    4.8169   -0.1154 C.ar    1  LIG1        0.0183
     31 C          -9.0805    7.2228   -0.2841 C.ar    1  LIG1       -0.0110
     32 H          -7.1587    8.1777   -0.2295 H       1  LIG1        0.0637
     33 C          -9.0173    4.8231   -0.1667 C.ar    1  LIG1       -0.0478
     34 C          -9.7661    5.9971   -0.2520 C.ar    1  LIG1       -0.0420
     35 H          -9.5443    3.8743   -0.1557 H       1  LIG1        0.0627
     36 N          -4.3841    6.2171    0.1017 N.1     1  LIG1       -0.1908
     37 C          -5.5295    6.1219   -0.0259 C.1     1  LIG1        0.0998
     38 C         -11.2674    5.9077   -0.3010 C.3     1  LIG1       -0.0391
     39 H         -11.6124    4.9782    0.1558 H       1  LIG1        0.0278
     40 H         -11.6227    5.9214   -1.3352 H       1  LIG1        0.0278
     41 H         -11.7413    6.7411    0.2216 H       1  LIG1        0.0278
     42 C         -10.5261    8.9591   -1.4558 C.ar    1  LIG1        0.1477
     43 C          -9.7800    8.5364   -0.3452 C.ar    1  LIG1        0.0185
     44 C          -9.6768    9.4378    0.7115 C.ar    1  LIG1       -0.0469
     45 C         -10.3012   10.6794    0.6560 C.ar    1  LIG1       -0.0317
     46 C         -11.0262   10.9675   -0.5014 C.ar    1  LIG1        0.0320
     47 N         -11.1376   10.1416   -1.5332 N.ar    1  LIG1       -0.2438
     48 H          -9.1042    9.1557    1.5906 H       1  LIG1        0.0628
     49 H         -11.5402   11.9214   -0.5969 H       1  LIG1        0.0832
     50 N         -10.7662    7.4179   -3.5369 N.1     1  LIG1       -0.1893
     51 C         -10.6568    8.1108   -2.6184 C.1     1  LIG1        0.1197
     52 C         -10.2015   11.6664    1.7837 C.3     1  LIG1       -0.0383
     53 H         -10.8060   12.5538    1.5872 H       1  LIG1        0.0278
     54 H          -9.1671   11.9908    1.9308 H       1  LIG1        0.0278
     55 H         -10.5424   11.2266    2.7249 H       1  LIG1        0.0278
@<TRIPOS>BOND
     1    50    51    3
     2    22    23    3
     3    51    42    1
     4    23    15    1
     5    47    42   ar
     6    47    46   ar
     7    42    43   ar
     8    40    38    1
     9    13    11    1
    10    15    20   ar
    11    15    16   ar
    12    20    19   ar
    13    49    46    1
    14    46    45   ar
    15    43    31    1
    16    43    44   ar
    17     7     3    1
    18    38    34    1
    19    38    39    1
    20    38    41    1
    21    31    34   ar
    22    31    29   ar
    23     3     4   ar
    24     3     2   ar
    25    34    33   ar
    26     4    11    1
    27     4     5   ar
    28    11    12    1
    29    11    14    1
    30     8     2    1
    31    32    29    1
    32    29    28   ar
    33     2     1   ar
    34     5    16    1
    35     5     6   ar
    36    33    35    1
    37    33    30   ar
    38    16    17   ar
    39    28    30   ar
    40    28    37    1
    41    30    19    1
    42     1     6   ar
    43     1    10    1
    44    19    18   ar
    45    37    36    3
    46    10     9    3
    47    45    44   ar
    48    45    52    1
    49    44    48    1
    50    17    18   ar
    51    17    21    1
    52    18    24    1
    53    53    52    1
    54    52    54    1
    55    52    55    1
    56    26    24    1
    57    24    27    1
    58    24    25    1
