@<TRIPOS>MOLECULE
mol_data/opt/cam/geoms/mol2/6dl12ae13ea-6hh-.out
 48 51 0 0 0
SMALL
GASTEIGER

@<TRIPOS>ATOM
      1 C          -4.4861   -2.0323   -0.6022 C.ar    1  LIG1        0.1411
      2 C          -3.1068   -2.1061   -0.4659 C.ar    1  LIG1       -0.0223
      3 C          -2.4175   -0.9406   -0.1547 C.ar    1  LIG1       -0.0150
      4 C          -3.1253    0.2416    0.0070 C.ar    1  LIG1        0.1491
      5 C          -4.5351    0.2204   -0.1520 C.ar    1  LIG1        0.1489
      6 N          -5.1793   -0.9022   -0.4499 N.ar    1  LIG1       -0.2296
      7 H          -1.3417   -0.9648   -0.0415 H       1  LIG1        0.0656
      8 H          -2.5870   -3.0470   -0.5991 H       1  LIG1        0.0647
      9 N          -5.8381   -4.1744   -1.1854 N.1     1  LIG1       -0.1893
     10 C          -5.2475   -3.2154   -0.9256 C.1     1  LIG1        0.1191
     11 O          -2.5647    1.4297    0.3092 O.3     1  LIG1       -0.4929
     12 C          -1.1585    1.4957    0.4709 C.3     1  LIG1        0.0789
     13 H          -0.9318    2.5349    0.7036 H       1  LIG1        0.0660
     14 H          -0.8231    0.8581    1.2955 H       1  LIG1        0.0660
     15 H          -0.6393    1.2087   -0.4495 H       1  LIG1        0.0660
     16 C          -5.3492    1.4197    0.0027 C.ar    1  LIG1        0.1587
     17 C          -5.1094    2.7224    0.3200 C.ar    1  LIG1        0.0019
     18 C          -6.3727    3.3936    0.3218 C.ar    1  LIG1        0.0725
     19 C          -7.3056    2.4391   -0.0206 C.ar    1  LIG1        0.1683
     20 O          -6.6860    1.2482   -0.2060 O.2     1  LIG1       -0.4504
     21 H          -4.1551    3.1642    0.5467 H       1  LIG1        0.0668
     22 C          -6.5869    4.7432    0.7049 C.1     1  LIG1       -0.0658
     23 C          -6.7297    5.8831    1.0629 C.1     1  LIG1       -0.1138
     24 H          -6.8830    6.8897    1.3760 H       1  LIG1        0.1232
     25 C          -8.7367    2.3891   -0.1768 C.ar    1  LIG1        0.0993
     26 C          -9.6975    3.3191   -0.5760 C.ar    1  LIG1        0.0536
     27 C         -10.9436    2.6407   -0.5848 C.ar    1  LIG1       -0.0202
     28 C         -10.7227    1.3310   -0.2072 C.ar    1  LIG1        0.0515
     29 N          -9.3807    1.2015    0.0254 N.ar    1  LIG1       -0.3507
     30 H          -8.9508    0.3326    0.3239 H       1  LIG1        0.1660
     31 C          -9.4878    4.6566   -1.0046 C.1     1  LIG1       -0.0674
     32 C          -9.3460    5.7851   -1.3997 C.1     1  LIG1       -0.1138
     33 H          -9.1990    6.7815   -1.7458 H       1  LIG1        0.1232
     34 H         -11.8874    3.0787   -0.8714 H       1  LIG1        0.0651
     35 C         -11.2649   -1.1273    0.0105 C.ar    1  LIG1        0.1254
     36 C         -11.6634    0.2264   -0.0104 C.ar    1  LIG1        0.0396
     37 C         -13.0128    0.4941    0.1988 C.ar    1  LIG1       -0.0272
     38 C         -13.9178   -0.5369    0.4417 C.ar    1  LIG1        0.0437
     39 C         -13.3969   -1.8293    0.4864 C.ar    1  LIG1        0.0503
     40 N         -12.1164   -2.1107    0.2658 N.ar    1  LIG1       -0.2382
     41 H         -13.3553    1.5242    0.2133 H       1  LIG1        0.0644
     42 H         -14.0482   -2.6737    0.7056 H       1  LIG1        0.0849
     43 N          -9.9168   -1.4969   -0.1881 N.pl3   1  LIG1       -0.3426
     44 H          -9.8333   -2.5040   -0.1038 H       1  LIG1        0.1437
     45 H          -9.5518   -1.2029   -1.0892 H       1  LIG1        0.1437
     46 N         -15.2636   -0.2841    0.7092 N.pl3   1  LIG1       -0.3568
     47 H         -15.6306    0.5529    0.2802 H       1  LIG1        0.1424
     48 H         -15.8759   -1.0734    0.5613 H       1  LIG1        0.1424
@<TRIPOS>BOND
     1    33    32    1
     2    32    31    3
     3     9    10    3
     4    45    43    1
     5    31    26    1
     6    10     1    1
     7    34    27    1
     8     1     2   ar
     9     1     6   ar
    10     8     2    1
    11    27    26   ar
    12    27    28   ar
    13    26    25   ar
    14     2     3   ar
    15     6     5   ar
    16    15    12    1
    17    28    36    1
    18    28    29   ar
    19    20    19   ar
    20    20    16   ar
    21    43    44    1
    22    43    35    1
    23    25    19    1
    24    25    29   ar
    25     3     7    1
    26     3     4   ar
    27     5    16    1
    28     5     4   ar
    29    19    18   ar
    30    36    35   ar
    31    36    37   ar
    32    16    17   ar
    33     4    11    1
    34    35    40   ar
    35    29    30    1
    36    37    41    1
    37    37    38   ar
    38    40    39   ar
    39    47    46    1
    40    11    12    1
    41    17    18   ar
    42    17    21    1
    43    18    22    1
    44    38    39   ar
    45    38    46    1
    46    12    13    1
    47    12    14    1
    48    39    42    1
    49    48    46    1
    50    22    23    3
    51    23    24    1
