@<TRIPOS>MOLECULE
mol_data/opt/cam/geoms/mol2/6dl4da-4ah-13fl.out
 52 55 0 0 0
SMALL
GASTEIGER

@<TRIPOS>ATOM
      1 C          -4.1611   -2.0995    1.4090 C.ar    1  LIG1        0.1410
      2 C          -3.0254   -2.4258    0.6778 C.ar    1  LIG1       -0.0223
      3 C          -2.5863   -1.5364   -0.2913 C.ar    1  LIG1       -0.0151
      4 C          -3.2923   -0.3549   -0.4876 C.ar    1  LIG1        0.1461
      5 C          -4.3951   -0.0745    0.3527 C.ar    1  LIG1        0.1151
      6 N          -4.8236   -0.9492    1.2520 N.ar    1  LIG1       -0.2326
      7 H          -1.7181   -1.7729   -0.8926 H       1  LIG1        0.0656
      8 H          -2.5062   -3.3596    0.8576 H       1  LIG1        0.0647
      9 N          -5.0593   -3.7770    3.1780 N.1     1  LIG1       -0.1893
     10 C          -4.6717   -3.0172    2.3978 C.1     1  LIG1        0.1191
     11 O          -3.0237    0.5436   -1.4501 O.3     1  LIG1       -0.4930
     12 C          -1.7672    0.4848   -2.1062 C.3     1  LIG1        0.0789
     13 H          -1.7284    1.3595   -2.7529 H       1  LIG1        0.0660
     14 H          -0.9494    0.5356   -1.3814 H       1  LIG1        0.0660
     15 H          -1.6782   -0.4205   -2.7160 H       1  LIG1        0.0660
     16 C          -4.5657    2.4655    0.2525 C.ar    1  LIG1        0.0616
     17 C          -5.3463    3.6201    0.1927 C.ar    1  LIG1       -0.0360
     18 C          -5.1647    1.1939    0.2520 C.ar    1  LIG1        0.0214
     19 C          -6.7377    3.5504    0.1368 C.ar    1  LIG1       -0.0166
     20 H          -4.8522    4.5846    0.1786 H       1  LIG1        0.0637
     21 C          -6.5556    1.1330    0.2207 C.ar    1  LIG1       -0.0506
     22 C          -7.3266    2.2825    0.1599 C.ar    1  LIG1       -0.0533
     23 H          -7.0299    0.1593    0.2622 H       1  LIG1        0.0625
     24 N          -2.0007    2.7835    0.4685 N.1     1  LIG1       -0.1908
     25 C          -3.1422    2.6272    0.3638 C.1     1  LIG1        0.0998
     26 H          -8.4080    2.1981    0.1567 H       1  LIG1        0.0624
     27 C          -7.1987    5.9335    0.7661 C.ar    1  LIG1       -0.0533
     28 C          -7.9924    7.0664    0.7049 C.ar    1  LIG1       -0.0502
     29 C          -7.5590    4.7802    0.0676 C.ar    1  LIG1       -0.0161
     30 C          -9.1672    7.1060   -0.0540 C.ar    1  LIG1        0.0226
     31 H          -7.7159    7.9479    1.2705 H       1  LIG1        0.0625
     32 C          -8.7135    4.8177   -0.7146 C.ar    1  LIG1       -0.0327
     33 C          -9.5088    5.9559   -0.7971 C.ar    1  LIG1        0.0345
     34 H          -8.9833    3.9507   -1.3115 H       1  LIG1        0.0642
     35 H          -6.3166    5.9335    1.3971 H       1  LIG1        0.0624
     36 N         -10.6687    5.9469   -1.6042 N.pl3   1  LIG1       -0.3574
     37 H         -10.7301    6.7678   -2.1971 H       1  LIG1        0.1423
     38 H         -10.7301    5.1122   -2.1735 H       1  LIG1        0.1423
     39 C          -9.9982    8.3078   -0.0353 C.ar    1  LIG1        0.0940
     40 C          -9.6835    9.6057    0.3178 C.ar    1  LIG1        0.1844
     41 C         -10.8669   10.3767    0.2602 C.ar    1  LIG1        0.1792
     42 C         -11.8956    9.5484   -0.1216 C.ar    1  LIG1        0.0481
     43 N         -11.3545    8.3049   -0.3158 N.ar    1  LIG1       -0.3546
     44 H         -11.8652    7.4519   -0.4837 H       1  LIG1        0.1656
     45 H         -12.9427    9.7438   -0.2842 H       1  LIG1        0.0845
     46 O          -8.4561   10.0872    0.6609 O.3     1  LIG1       -0.5019
     47 H          -8.5620   11.0328    0.8305 H       1  LIG1        0.2924
     48 O         -10.8311   11.7088    0.5419 O.3     1  LIG1       -0.4900
     49 C         -12.0741   12.3709    0.4683 C.3     1  LIG1        0.0790
     50 H         -11.8956   13.4155    0.7227 H       1  LIG1        0.0660
     51 H         -12.4938   12.3096   -0.5437 H       1  LIG1        0.0660
     52 H         -12.7923   11.9408    1.1775 H       1  LIG1        0.0660
@<TRIPOS>BOND
     1    13    12    1
     2    15    12    1
     3    37    36    1
     4    38    36    1
     5    12    11    1
     6    12    14    1
     7    36    33    1
     8    11     4    1
     9    34    32    1
    10     7     3    1
    11    33    32   ar
    12    33    30   ar
    13    32    29   ar
    14    51    49    1
    15     4     3   ar
    16     4     5   ar
    17    44    43    1
    18    43    42   ar
    19    43    39   ar
    20     3     2   ar
    21    45    42    1
    22    42    41   ar
    23    30    39    1
    24    30    28   ar
    25    39    40   ar
    26    29    19    1
    27    29    27   ar
    28    19    22   ar
    29    19    17   ar
    30    26    22    1
    31    22    21   ar
    32    20    17    1
    33    17    16   ar
    34    21    18   ar
    35    21    23    1
    36    18    16   ar
    37    18     5    1
    38    16    25    1
    39    41    40   ar
    40    41    48    1
    41    40    46    1
    42     5     6   ar
    43    25    24    3
    44    49    48    1
    45    49    50    1
    46    49    52    1
    47    46    47    1
    48     2     8    1
    49     2     1   ar
    50    28    27   ar
    51    28    31    1
    52    27    35    1
    53     6     1   ar
    54     1    10    1
    55    10     9    3
