@<TRIPOS>MOLECULE
mol_data/opt/cam/geoms/mol2/6dl6dl.out
 30 31 0 0 0
SMALL
GASTEIGER

@<TRIPOS>ATOM
      1 C          -4.5216   -1.9767    0.8927 C.ar    1  LIG1        0.1410
      2 C          -3.1873   -2.1662    0.5544 C.ar    1  LIG1       -0.0223
      3 C          -2.5011   -1.1228   -0.0496 C.ar    1  LIG1       -0.0151
      4 C          -3.1721    0.0708   -0.2901 C.ar    1  LIG1        0.1461
      5 C          -4.5311    0.1692    0.0839 C.ar    1  LIG1        0.1167
      6 N          -5.1742   -0.8349    0.6589 N.ar    1  LIG1       -0.2326
      7 H          -1.4630   -1.2484   -0.3282 H       1  LIG1        0.0656
      8 H          -2.6984   -3.1109    0.7602 H       1  LIG1        0.0647
      9 N          -5.8063   -3.9063    2.0643 N.1     1  LIG1       -0.1893
     10 C          -5.2578   -3.0364    1.5372 C.1     1  LIG1        0.1191
     11 O          -2.6204    1.1576   -0.8682 O.3     1  LIG1       -0.4930
     12 C          -1.2894    1.0652   -1.3475 C.3     1  LIG1        0.0789
     13 H          -1.0704    2.0264   -1.8097 H       1  LIG1        0.0660
     14 H          -0.5817    0.8857   -0.5310 H       1  LIG1        0.0660
     15 H          -1.1925    0.2727   -2.0966 H       1  LIG1        0.0660
     16 C          -6.5295    1.3684   -0.8565 C.ar    1  LIG1        0.1495
     17 C          -5.3176    1.4080   -0.1613 C.ar    1  LIG1        0.0433
     18 C          -4.8881    2.6399    0.3321 C.ar    1  LIG1       -0.0064
     19 C          -5.6838    3.7588    0.1337 C.ar    1  LIG1        0.1388
     20 C          -6.8895    3.6043   -0.5662 C.ar    1  LIG1        0.0707
     21 N          -7.2960    2.4496   -1.0529 N.ar    1  LIG1       -0.2403
     22 H          -3.9473    2.7007    0.8620 H       1  LIG1        0.0662
     23 H          -7.5216    4.4741   -0.7232 H       1  LIG1        0.0867
     24 N          -7.3809   -0.8124   -1.9842 N.1     1  LIG1       -0.1893
     25 C          -7.0071    0.1476   -1.4607 C.1     1  LIG1        0.1198
     26 O          -5.4027    5.0061    0.5615 O.3     1  LIG1       -0.4936
     27 C          -4.2002    5.2124    1.2783 C.3     1  LIG1        0.0789
     28 H          -4.1731    6.2731    1.5234 H       1  LIG1        0.0660
     29 H          -4.1816    4.6269    2.2042 H       1  LIG1        0.0660
     30 H          -3.3245    4.9588    0.6706 H       1  LIG1        0.0660
@<TRIPOS>BOND
     1    15    12    1
     2    24    25    3
     3    13    12    1
     4    25    16    1
     5    12    11    1
     6    12    14    1
     7    21    16   ar
     8    21    20   ar
     9    11     4    1
    10    16    17   ar
    11    23    20    1
    12    20    19   ar
    13     7     3    1
    14     4     3   ar
    15     4     5   ar
    16    17     5    1
    17    17    18   ar
    18     3     2   ar
    19     5     6   ar
    20    19    18   ar
    21    19    26    1
    22    18    22    1
    23     2     8    1
    24     2     1   ar
    25    26    27    1
    26     6     1   ar
    27    30    27    1
    28     1    10    1
    29    27    28    1
    30    27    29    1
    31    10     9    3
