@<TRIPOS>MOLECULE
mol_data/opt/cam/geoms/mol2/6dl6dl6dl6dl.out
 58 61 0 0 0
SMALL
GASTEIGER

@<TRIPOS>ATOM
      1 C          -2.1034   -0.4330   -1.8554 C.ar    1  LIG1        0.1410
      2 C          -2.2129   -1.6338   -1.1640 C.ar    1  LIG1       -0.0223
      3 C          -3.1838   -1.7481   -0.1802 C.ar    1  LIG1       -0.0151
      4 C          -4.0078   -0.6585    0.0799 C.ar    1  LIG1        0.1461
      5 C          -3.8252    0.5203   -0.6781 C.ar    1  LIG1        0.1167
      6 N          -2.8950    0.6153   -1.6153 N.ar    1  LIG1       -0.2326
      7 H          -3.2921   -2.6752    0.3673 H       1  LIG1        0.0656
      8 H          -1.5506   -2.4600   -1.3933 H       1  LIG1        0.0647
      9 N          -0.2643   -0.1894   -3.6731 N.1     1  LIG1       -0.1893
     10 C          -1.0941   -0.2770   -2.8736 C.1     1  LIG1        0.1191
     11 O          -4.9862   -0.6406    1.0063 O.3     1  LIG1       -0.4930
     12 C          -5.2671   -1.8335    1.7211 C.3     1  LIG1        0.0789
     13 H          -6.1106   -1.6010    2.3690 H       1  LIG1        0.0660
     14 H          -5.5446   -2.6452    1.0410 H       1  LIG1        0.0660
     15 H          -4.4128   -2.1425    2.3327 H       1  LIG1        0.0660
     16 C          -5.3044    2.3626   -1.5452 C.ar    1  LIG1        0.1502
     17 C          -4.6801    1.7186   -0.4707 C.ar    1  LIG1        0.0433
     18 C          -4.8488    2.2740    0.7941 C.ar    1  LIG1       -0.0058
     19 C          -5.6062    3.4273    0.9468 C.ar    1  LIG1        0.1467
     20 C          -6.2442    3.9665   -0.1895 C.ar    1  LIG1        0.1168
     21 N          -6.0649    3.4494   -1.3958 N.ar    1  LIG1       -0.2319
     22 H          -4.3720    1.8095    1.6460 H       1  LIG1        0.0662
     23 N          -5.2057    1.4472   -3.9749 N.1     1  LIG1       -0.1893
     24 C          -5.2212    1.8514   -2.8925 C.1     1  LIG1        0.1198
     25 O          -5.7551    4.0975    2.1006 O.3     1  LIG1       -0.4929
     26 C          -5.3823    3.4639    3.3145 C.3     1  LIG1        0.0789
     27 H          -5.6853    4.1435    4.1087 H       1  LIG1        0.0660
     28 H          -5.9086    2.5121    3.4317 H       1  LIG1        0.0660
     29 H          -4.2998    3.3074    3.3640 H       1  LIG1        0.0660
     30 C          -8.1637    5.3078    0.8140 C.ar    1  LIG1        0.1502
     31 C          -7.1260    5.1600   -0.1144 C.ar    1  LIG1        0.0433
     32 C          -6.9760    6.1641   -1.0663 C.ar    1  LIG1       -0.0058
     33 C          -7.8068    7.2756   -1.0377 C.ar    1  LIG1        0.1467
     34 C          -8.7563    7.3777    0.0028 C.ar    1  LIG1        0.1168
     35 N          -8.9436    6.3901    0.8652 N.ar    1  LIG1       -0.2319
     36 H          -6.2223    6.0419   -1.8327 H       1  LIG1        0.0662
     37 N          -8.7809    3.4154    2.4852 N.1     1  LIG1       -0.1893
     38 C          -8.4990    4.2640    1.7521 C.1     1  LIG1        0.1198
     39 O          -7.7995    8.2587   -1.9489 O.3     1  LIG1       -0.4929
     40 C          -6.7040    8.3492   -2.8498 C.3     1  LIG1        0.0789
     41 H          -6.8654    9.2620   -3.4199 H       1  LIG1        0.0660
     42 H          -5.7605    8.4263   -2.3022 H       1  LIG1        0.0660
     43 H          -6.6794    7.4926   -3.5305 H       1  LIG1        0.0660
     44 C          -9.1787    9.8831    0.1645 C.ar    1  LIG1        0.1495
     45 C          -9.6404    8.5621    0.1614 C.ar    1  LIG1        0.0433
     46 C         -11.0013    8.3503    0.3831 C.ar    1  LIG1       -0.0064
     47 C         -11.8371    9.4427    0.5579 C.ar    1  LIG1        0.1388
     48 C         -11.2731   10.7271    0.5105 C.ar    1  LIG1        0.0707
     49 N          -9.9855   10.9399    0.3327 N.ar    1  LIG1       -0.2403
     50 H         -11.3660    7.3325    0.4225 H       1  LIG1        0.0662
     51 H         -11.9193   11.5912    0.6376 H       1  LIG1        0.0867
     52 N          -6.6448   10.4292   -0.0238 N.1     1  LIG1       -0.1893
     53 C          -7.7741   10.1921    0.0485 C.1     1  LIG1        0.1198
     54 O         -13.1652    9.3858    0.7728 O.3     1  LIG1       -0.4936
     55 C         -13.7743    8.1090    0.8563 C.3     1  LIG1        0.0789
     56 H         -14.8313    8.2917    1.0432 H       1  LIG1        0.0660
     57 H         -13.6627    7.5526   -0.0806 H       1  LIG1        0.0660
     58 H         -13.3553    7.5214    1.6800 H       1  LIG1        0.0660
@<TRIPOS>BOND
     1    23    24    3
     2     9    10    3
     3    43    40    1
     4    41    40    1
     5    24    16    1
     6    10     1    1
     7    40    42    1
     8    40    39    1
     9    39    33    1
    10     1     6   ar
    11     1     2   ar
    12    36    32    1
    13     6     5   ar
    14    16    21   ar
    15    16    17   ar
    16    21    20   ar
    17     8     2    1
    18     2     3   ar
    19    32    33   ar
    20    32    31   ar
    21    33    34   ar
    22     5    17    1
    23     5     4   ar
    24    17    18   ar
    25    20    31    1
    26    20    19   ar
    27     3     4   ar
    28     3     7    1
    29    31    30   ar
    30    57    55    1
    31    52    53    3
    32    34    45    1
    33    34    35   ar
    34    53    44    1
    35     4    11    1
    36    45    44   ar
    37    45    46   ar
    38    44    49   ar
    39    49    48   ar
    40    46    50    1
    41    46    47   ar
    42    48    47   ar
    43    48    51    1
    44    47    54    1
    45    54    55    1
    46    18    19   ar
    47    18    22    1
    48    30    35   ar
    49    30    38    1
    50    55    56    1
    51    55    58    1
    52    19    25    1
    53    11    12    1
    54    14    12    1
    55    12    15    1
    56    12    13    1
    57    38    37    3
    58    25    26    1
    59    26    29    1
    60    26    28    1
    61    26    27    1
