@<TRIPOS>MOLECULE
mol_data/opt/cam/geoms/mol2/6dl6dl6dl6dl-.out
 58 61 0 0 0
SMALL
GASTEIGER

@<TRIPOS>ATOM
      1 C          -3.8148   -1.8206    1.4608 C.ar    1  LIG1        0.1410
      2 C          -2.8380   -2.1903    0.5437 C.ar    1  LIG1       -0.0223
      3 C          -2.5984   -1.3622   -0.5429 C.ar    1  LIG1       -0.0151
      4 C          -3.3410   -0.1937   -0.6719 C.ar    1  LIG1        0.1461
      5 C          -4.3189    0.0939    0.3059 C.ar    1  LIG1        0.1167
      6 N          -4.5385   -0.7047    1.3383 N.ar    1  LIG1       -0.2326
      7 H          -1.8470   -1.6325   -1.2733 H       1  LIG1        0.0656
      8 H          -2.2784   -3.1080    0.6800 H       1  LIG1        0.0647
      9 N          -4.2387   -3.3337    3.5288 N.1     1  LIG1       -0.1893
     10 C          -4.0731   -2.6499    2.6120 C.1     1  LIG1        0.1191
     11 O          -3.2047    0.6974   -1.6741 O.3     1  LIG1       -0.4930
     12 C          -2.3199    0.3882   -2.7389 C.3     1  LIG1        0.0789
     13 H          -2.4111    1.2070   -3.4506 H       1  LIG1        0.0660
     14 H          -1.2836    0.3228   -2.3905 H       1  LIG1        0.0660
     15 H          -2.6030   -0.5494   -3.2277 H       1  LIG1        0.0660
     16 C          -6.5653    1.2235    0.2377 C.ar    1  LIG1        0.1502
     17 C          -5.1701    1.3102    0.2158 C.ar    1  LIG1        0.0433
     18 C          -4.6051    2.5806    0.1443 C.ar    1  LIG1       -0.0058
     19 C          -5.4269    3.6984    0.1238 C.ar    1  LIG1        0.1467
     20 C          -6.8239    3.5055    0.1543 C.ar    1  LIG1        0.1168
     21 N          -7.3581    2.2965    0.2020 N.ar    1  LIG1       -0.2319
     22 H          -3.5289    2.6788    0.1055 H       1  LIG1        0.0662
     23 N          -7.7807   -1.0730    0.2489 N.1     1  LIG1       -0.1893
     24 C          -7.2371   -0.0537    0.2592 C.1     1  LIG1        0.1198
     25 O          -4.9888    4.9727    0.0698 O.3     1  LIG1       -0.4929
     26 C          -3.5963    5.2064   -0.0558 C.3     1  LIG1        0.0789
     27 H          -3.4802    6.2866   -0.1271 H       1  LIG1        0.0660
     28 H          -3.0492    4.8386    0.8190 H       1  LIG1        0.0660
     29 H          -3.1968    4.7374   -0.9609 H       1  LIG1        0.0660
     30 C          -8.7977    4.7171   -0.8300 C.ar    1  LIG1        0.1502
     31 C          -7.7683    4.6524    0.1149 C.ar    1  LIG1        0.0433
     32 C          -7.6880    5.6814    1.0482 C.ar    1  LIG1       -0.0058
     33 C          -8.6192    6.7098    1.0200 C.ar    1  LIG1        0.1467
     34 C          -9.5843    6.7150   -0.0084 C.ar    1  LIG1        0.1168
     35 N          -9.6703    5.7263   -0.8850 N.ar    1  LIG1       -0.2319
     36 H          -6.9099    5.6587    1.7989 H       1  LIG1        0.0662
     37 N          -9.0439    2.9531   -2.7219 N.1     1  LIG1       -0.1893
     38 C          -8.9383    3.7187   -1.8629 C.1     1  LIG1        0.1198
     39 O          -8.6946    7.6996    1.9258 O.3     1  LIG1       -0.4929
     40 C          -7.5825    7.9319    2.7762 C.3     1  LIG1        0.0789
     41 H          -7.8192    8.8360    3.3341 H       1  LIG1        0.0660
     42 H          -7.4366    7.1023    3.4758 H       1  LIG1        0.0660
     43 H          -6.6748    8.0971    2.1884 H       1  LIG1        0.0660
     44 C         -10.2238    9.1769   -0.1887 C.ar    1  LIG1        0.1495
     45 C         -10.5749    7.8140   -0.1550 C.ar    1  LIG1        0.0433
     46 C         -11.9111    7.4994   -0.3340 C.ar    1  LIG1       -0.0064
     47 C         -12.8462    8.5179   -0.4999 C.ar    1  LIG1        0.1388
     48 C         -12.3942    9.8409   -0.4914 C.ar    1  LIG1        0.0707
     49 N         -11.1119   10.1543   -0.3509 N.ar    1  LIG1       -0.2403
     50 H         -12.2364    6.4660   -0.3514 H       1  LIG1        0.0662
     51 H         -13.0775   10.6742   -0.6116 H       1  LIG1        0.0867
     52 N          -7.7372    9.9255   -0.0541 N.1     1  LIG1       -0.1893
     53 C          -8.8454    9.5996   -0.1054 C.1     1  LIG1        0.1198
     54 O         -14.1299    8.1418   -0.6567 O.3     1  LIG1       -0.4936
     55 C         -15.1103    9.1486   -0.8397 C.3     1  LIG1        0.0789
     56 H         -16.0589    8.6259   -0.9514 H       1  LIG1        0.0660
     57 H         -15.1643    9.8158    0.0273 H       1  LIG1        0.0660
     58 H         -14.9132    9.7384   -1.7412 H       1  LIG1        0.0660
@<TRIPOS>BOND
     1    13    12    1
     2    15    12    1
     3    12    14    1
     4    12    11    1
     5    37    38    3
     6    38    30    1
     7    58    55    1
     8    11     4    1
     9     7     3    1
    10    29    26    1
    11    56    55    1
    12    35    30   ar
    13    35    34   ar
    14    55    54    1
    15    55    57    1
    16    30    31   ar
    17     4     3   ar
    18     4     5   ar
    19    54    47    1
    20    51    48    1
    21     3     2   ar
    22    47    48   ar
    23    47    46   ar
    24    48    49   ar
    25    50    46    1
    26    49    44   ar
    27    46    45   ar
    28    44    45   ar
    29    44    53    1
    30    45    34    1
    31    27    26    1
    32    53    52    3
    33    26    25    1
    34    26    28    1
    35    34    33   ar
    36    25    19    1
    37    22    18    1
    38    31    20    1
    39    31    32   ar
    40    19    18   ar
    41    19    20   ar
    42    18    17   ar
    43    20    21   ar
    44    21    16   ar
    45    17    16   ar
    46    17     5    1
    47    16    24    1
    48    23    24    3
    49     5     6   ar
    50     2     8    1
    51     2     1   ar
    52    33    32   ar
    53    33    39    1
    54    32    36    1
    55     6     1   ar
    56     1    10    1
    57    39    40    1
    58    43    40    1
    59    10     9    3
    60    40    41    1
    61    40    42    1
