@<TRIPOS>MOLECULE
mol_data/opt/cam/geoms/mol2/6dl6dl-.out
 30 31 0 0 0
SMALL
GASTEIGER

@<TRIPOS>ATOM
      1 C          -4.5140   -2.0636    0.5793 C.ar    1  LIG1        0.1410
      2 C          -3.1798   -2.1729    0.2033 C.ar    1  LIG1       -0.0223
      3 C          -2.5207   -1.0363   -0.2391 C.ar    1  LIG1       -0.0151
      4 C          -3.2160    0.1674   -0.2834 C.ar    1  LIG1        0.1461
      5 C          -4.5491    0.1946    0.1838 C.ar    1  LIG1        0.1167
      6 N          -5.1786   -0.9042    0.5735 N.ar    1  LIG1       -0.2326
      7 H          -1.4881   -1.0949   -0.5578 H       1  LIG1        0.0656
      8 H          -2.6751   -3.1306    0.2475 H       1  LIG1        0.0647
      9 N          -5.7996   -4.1877    1.3432 N.1     1  LIG1       -0.1893
     10 C          -5.2420   -3.2319    1.0093 C.1     1  LIG1        0.1191
     11 O          -2.7254    1.3184   -0.7702 O.3     1  LIG1       -0.4930
     12 C          -1.3210    1.4458   -0.9376 C.3     1  LIG1        0.0789
     13 H          -1.1495    2.4816   -1.2245 H       1  LIG1        0.0660
     14 H          -0.8005    1.2407    0.0022 H       1  LIG1        0.0660
     15 H          -0.9536    0.7847   -1.7294 H       1  LIG1        0.0660
     16 C          -4.8780    2.6393    0.8382 C.ar    1  LIG1        0.1495
     17 C          -5.3385    1.4546    0.2329 C.ar    1  LIG1        0.0433
     18 C          -6.6238    1.4648   -0.2814 C.ar    1  LIG1       -0.0064
     19 C          -7.3870    2.6278   -0.2178 C.ar    1  LIG1        0.1388
     20 C          -6.8236    3.7579    0.3819 C.ar    1  LIG1        0.0707
     21 N          -5.6037    3.7525    0.9051 N.ar    1  LIG1       -0.2403
     22 H          -7.0452    0.5724   -0.7284 H       1  LIG1        0.0662
     23 H          -7.3691    4.6923    0.4554 H       1  LIG1        0.0867
     24 N          -2.5584    2.7351    2.0089 N.1     1  LIG1       -0.1893
     25 C          -3.5877    2.7011    1.4834 C.1     1  LIG1        0.1198
     26 O          -8.6242    2.5701   -0.7473 O.3     1  LIG1       -0.4936
     27 C          -9.4372    3.7296   -0.6888 C.3     1  LIG1        0.0789
     28 H         -10.3814    3.4571   -1.1577 H       1  LIG1        0.0660
     29 H          -9.6217    4.0356    0.3464 H       1  LIG1        0.0660
     30 H          -8.9862    4.5620   -1.2396 H       1  LIG1        0.0660
@<TRIPOS>BOND
     1    15    12    1
     2    30    27    1
     3    13    12    1
     4    28    27    1
     5    12    11    1
     6    12    14    1
     7    11     4    1
     8    26    27    1
     9    26    19    1
    10    22    18    1
    11    27    29    1
    12     7     3    1
    13     4     3   ar
    14     4     5   ar
    15    18    19   ar
    16    18    17   ar
    17     3     2   ar
    18    19    20   ar
    19     5    17    1
    20     5     6   ar
    21     2     8    1
    22     2     1   ar
    23    17    16   ar
    24    20    23    1
    25    20    21   ar
    26     6     1   ar
    27     1    10    1
    28    16    21   ar
    29    16    25    1
    30    10     9    3
    31    25    24    3
