@<TRIPOS>MOLECULE
mol_data/opt/cam/geoms/mol2/6dl6ad-12da12ae-6ae-6ii13ad12ef-.out
 88 95 0 0 0
SMALL
GASTEIGER

@<TRIPOS>ATOM
      1 C          -3.8296   -1.7798   -1.3597 C.ar    1  LIG1        0.1410
      2 C          -2.4404   -1.7743   -1.3341 C.ar    1  LIG1       -0.0223
      3 C          -1.7956   -0.5912   -1.0094 C.ar    1  LIG1       -0.0151
      4 C          -2.5531    0.5374   -0.7142 C.ar    1  LIG1        0.1461
      5 C          -3.9662    0.4377   -0.7496 C.ar    1  LIG1        0.1154
      6 N          -4.5627   -0.7026   -1.0757 N.ar    1  LIG1       -0.2326
      7 H          -0.7145   -0.5547   -0.9914 H       1  LIG1        0.0656
      8 H          -1.8811   -2.6727   -1.5657 H       1  LIG1        0.0647
      9 N          -5.0835   -3.9687   -1.9803 N.1     1  LIG1       -0.1893
     10 C          -4.5428   -2.9859   -1.7022 C.1     1  LIG1        0.1191
     11 O          -2.0239    1.7372   -0.4050 O.3     1  LIG1       -0.4930
     12 C          -0.6136    1.8982   -0.4413 C.3     1  LIG1        0.0789
     13 H          -0.4280    2.9432   -0.1993 H       1  LIG1        0.0660
     14 H          -0.1218    1.2605    0.3003 H       1  LIG1        0.0660
     15 H          -0.2176    1.6794   -1.4379 H       1  LIG1        0.0660
     16 C          -6.1555    1.5761   -1.0455 C.ar    1  LIG1        0.0377
     17 C          -4.8755    1.5779   -0.4707 C.ar    1  LIG1        0.0233
     18 C          -4.5679    2.6382    0.3717 C.ar    1  LIG1       -0.0314
     19 C          -5.5091    3.6474    0.5812 C.ar    1  LIG1        0.0814
     20 C          -6.7341    3.5794   -0.0999 C.ar    1  LIG1        0.1246
     21 N          -7.0464    2.5413   -0.8803 N.ar    1  LIG1       -0.2499
     22 H          -3.6196    2.6859    0.8869 H       1  LIG1        0.0638
     23 H          -6.4510    0.7423   -1.6738 H       1  LIG1        0.0836
     24 N          -4.9655    5.4557    2.3527 N.1     1  LIG1       -0.1908
     25 C          -5.2196    4.6700    1.5433 C.1     1  LIG1        0.1014
     26 C          -7.7496    4.6313   -0.0017 C.ar    1  LIG1        0.1725
     27 C          -7.7062    6.0021   -0.0672 C.ar    1  LIG1        0.0997
     28 C          -9.0562    6.4593    0.0162 C.ar    1  LIG1        0.0054
     29 C          -9.8199    5.3382    0.1268 C.ar    1  LIG1        0.1720
     30 O          -9.0340    4.2315    0.1093 O.2     1  LIG1       -0.4488
     31 N          -5.6419    7.4827   -0.5107 N.1     1  LIG1       -0.1907
     32 C          -6.5592    6.8126   -0.2947 C.1     1  LIG1        0.1030
     33 H          -9.3931    7.4833   -0.0209 H       1  LIG1        0.0670
     34 C         -11.2401    5.1366    0.2671 C.ar    1  LIG1        0.1718
     35 C         -12.2768    5.9902    0.4743 C.ar    1  LIG1        0.0033
     36 C         -13.4592    5.1856    0.5106 C.ar    1  LIG1        0.0711
     37 C         -13.0469    3.8846    0.3247 C.ar    1  LIG1        0.1526
     38 O         -11.6985    3.8620    0.1763 O.2     1  LIG1       -0.4504
     39 H         -12.2290    7.0611    0.5964 H       1  LIG1        0.0669
     40 C         -14.7799    5.6716    0.7034 C.1     1  LIG1       -0.0658
     41 C         -15.8870    6.1152    0.8687 C.1     1  LIG1       -0.1138
     42 H         -16.8674    6.5076    1.0144 H       1  LIG1        0.1232
     43 C         -12.9962    1.4299   -0.0116 C.ar    1  LIG1        0.0390
     44 C         -13.7215    2.5985    0.2541 C.ar    1  LIG1        0.0378
     45 C         -15.0923    2.4609    0.4534 C.ar    1  LIG1       -0.0321
     46 C         -15.6851    1.2016    0.3684 C.ar    1  LIG1        0.0513
     47 C         -14.8672    0.0910    0.0697 C.ar    1  LIG1        0.0880
     48 N         -13.5484    0.2295   -0.1003 N.ar    1  LIG1       -0.2530
     49 H         -15.7075    3.3212    0.6839 H       1  LIG1        0.0638
     50 H         -11.9220    1.4807   -0.1610 H       1  LIG1        0.0837
     51 C         -17.0893    1.0832    0.6231 C.1     1  LIG1       -0.0675
     52 C         -18.2692    1.0304    0.8543 C.1     1  LIG1       -0.1138
     53 H         -19.3128    0.9673    1.0620 H       1  LIG1        0.1232
     54 C         -14.8426   -2.3929    0.5521 C.ar    1  LIG1        0.0482
     55 C         -15.4129   -1.2798   -0.0913 C.ar    1  LIG1        0.0228
     56 C         -16.4976   -1.5093   -0.9298 C.ar    1  LIG1       -0.0458
     57 C         -17.0088   -2.7832   -1.1438 C.ar    1  LIG1       -0.0224
     58 C         -16.3724   -3.8271   -0.4588 C.ar    1  LIG1        0.0903
     59 N         -15.3303   -3.6139    0.3610 N.ar    1  LIG1       -0.2495
     60 H         -16.9560   -0.6710   -1.4440 H       1  LIG1        0.0628
     61 C         -13.6785   -2.2872    1.4973 C.3     1  LIG1       -0.0217
     62 H         -13.8139   -1.4727    2.2130 H       1  LIG1        0.0293
     63 H         -12.7562   -2.0790    0.9514 H       1  LIG1        0.0293
     64 H         -13.5743   -3.2281    2.0373 H       1  LIG1        0.0293
     65 C         -18.1744   -2.9842   -2.0695 C.3     1  LIG1       -0.0376
     66 H         -19.0299   -3.4252   -1.5492 H       1  LIG1        0.0278
     67 H         -17.9184   -3.6477   -2.9009 H       1  LIG1        0.0278
     68 H         -18.4957   -2.0299   -2.4907 H       1  LIG1        0.0278
     69 C         -16.7569   -5.2397   -0.5488 C.ar    1  LIG1        0.0670
     70 C         -17.7283   -5.9594   -1.2159 C.ar    1  LIG1       -0.0168
     71 C         -17.5603   -7.3269   -0.8727 C.ar    1  LIG1        0.0807
     72 C         -16.4834   -7.4061    0.0119 C.ar    1  LIG1        0.1015
     73 N         -16.0256   -6.1400    0.1788 N.ar    1  LIG1       -0.3495
     74 H         -15.2474   -5.8431    0.7522 H       1  LIG1        0.1661
     75 H         -18.4808   -5.5885   -1.8893 H       1  LIG1        0.0652
     76 N         -18.9633   -9.2045   -1.9443 N.1     1  LIG1       -0.1908
     77 C         -18.3229   -8.3859   -1.4346 C.1     1  LIG1        0.1014
     78 C         -15.8259   -8.4952    0.6949 C.ar    1  LIG1        0.1711
     79 C         -16.2045   -9.7424    1.1265 C.ar    1  LIG1        0.1132
     80 C         -15.0449  -10.2853    1.7811 C.ar    1  LIG1        0.1709
     81 C         -14.0713   -9.3448    1.7174 C.ar    1  LIG1        0.1352
     82 O         -14.5415   -8.2459    1.0544 O.2     1  LIG1       -0.4564
     83 H         -13.0514   -9.3011    2.0620 H       1  LIG1        0.1068
     84 C         -17.4707  -10.3696    1.0344 C.1     1  LIG1       -0.0621
     85 C         -18.5448  -10.9072    0.9731 C.1     1  LIG1       -0.1137
     86 H         -19.4999  -11.3707    0.8827 H       1  LIG1        0.1232
     87 O         -15.0436  -11.5164    2.3352 O.3     1  LIG1       -0.5028
     88 H         -14.1797  -11.6972    2.7232 H       1  LIG1        0.2923
@<TRIPOS>BOND
     1    67    65    1
     2    68    65    1
     3    65    66    1
     4    65    57    1
     5     9    10    3
     6    76    77    3
     7    75    70    1
     8    10     1    1
     9    23    16    1
    10     8     2    1
    11    60    56    1
    12    15    12    1
    13    77    71    1
    14     1     2   ar
    15     1     6   ar
    16     2     3   ar
    17    70    71   ar
    18    70    69   ar
    19    57    56   ar
    20    57    58   ar
    21     6     5   ar
    22    16    21   ar
    23    16    17   ar
    24     3     7    1
    25     3     4   ar
    26    56    55   ar
    27    21    20   ar
    28    71    72   ar
    29     5     4   ar
    30     5    17    1
    31     4    11    1
    32    69    58    1
    33    69    73   ar
    34    31    32    3
    35    17    18   ar
    36    58    59   ar
    37    12    11    1
    38    12    13    1
    39    12    14    1
    40    32    27    1
    41    50    43    1
    42    48    43   ar
    43    48    47   ar
    44    20    26    1
    45    20    19   ar
    46    55    47    1
    47    55    54   ar
    48    27    26   ar
    49    27    28   ar
    50    33    28    1
    51    43    44   ar
    52    26    30   ar
    53    72    73   ar
    54    72    78    1
    55    28    29   ar
    56    47    46   ar
    57    30    29   ar
    58    29    34    1
    59    38    34   ar
    60    38    37   ar
    61    73    74    1
    62    44    37    1
    63    44    45   ar
    64    34    35   ar
    65    37    36   ar
    66    59    54   ar
    67    46    45   ar
    68    46    51    1
    69    18    19   ar
    70    18    22    1
    71    45    49    1
    72    35    36   ar
    73    35    39    1
    74    36    40    1
    75    54    61    1
    76    19    25    1
    77    51    52    3
    78    78    82   ar
    79    78    79   ar
    80    40    41    3
    81    52    53    1
    82    41    42    1
    83    86    85    1
    84    63    61    1
    85    85    84    3
    86    84    79    1
    87    82    81   ar
    88    79    80   ar
    89    61    64    1
    90    61    62    1
    91    25    24    3
    92    81    80   ar
    93    81    83    1
    94    80    87    1
    95    87    88    1
