@<TRIPOS>MOLECULE
mol_data/opt/cam/geoms/mol2/6dl6dl6dl.out
 44 46 0 0 0
SMALL
GASTEIGER

@<TRIPOS>ATOM
      1 C          -4.4297   -2.2147    0.3506 C.ar    1  LIG1        0.1410
      2 C          -3.0910   -2.2989   -0.0137 C.ar    1  LIG1       -0.0223
      3 C          -2.4310   -1.1379   -0.3878 C.ar    1  LIG1       -0.0151
      4 C          -3.1299    0.0640   -0.3812 C.ar    1  LIG1        0.1461
      5 C          -4.4902    0.0515    0.0004 C.ar    1  LIG1        0.1167
      6 N          -5.1080   -1.0651    0.3537 N.ar    1  LIG1       -0.2326
      7 H          -1.3904   -1.1797   -0.6814 H       1  LIG1        0.0656
      8 H          -2.5795   -3.2538   -0.0041 H       1  LIG1        0.0647
      9 N          -5.6584   -4.3801    1.0901 N.1     1  LIG1       -0.1893
     10 C          -5.1380   -3.4031    0.7587 C.1     1  LIG1        0.1191
     11 O          -2.6011    1.2581   -0.7241 O.3     1  LIG1       -0.4930
     12 C          -1.2687    1.2914   -1.2080 C.3     1  LIG1        0.0789
     13 H          -1.0694    2.3304   -1.4655 H       1  LIG1        0.0660
     14 H          -0.5568    0.9646   -0.4426 H       1  LIG1        0.0660
     15 H          -1.1564    0.6692   -2.1018 H       1  LIG1        0.0660
     16 C          -6.5580    1.3478   -0.6138 C.ar    1  LIG1        0.1502
     17 C          -5.3100    1.2917    0.0153 C.ar    1  LIG1        0.0433
     18 C          -4.8828    2.4322    0.6909 C.ar    1  LIG1       -0.0058
     19 C          -5.6953    3.5556    0.7315 C.ar    1  LIG1        0.1467
     20 C          -6.9447    3.5080    0.0782 C.ar    1  LIG1        0.1168
     21 N          -7.3409    2.4275   -0.5752 N.ar    1  LIG1       -0.2319
     22 H          -3.9197    2.4240    1.1817 H       1  LIG1        0.0662
     23 N          -7.4253   -0.5985   -2.1004 N.1     1  LIG1       -0.1893
     24 C          -7.0484    0.2501   -1.4129 C.1     1  LIG1        0.1198
     25 O          -5.3781    4.7048    1.3666 O.3     1  LIG1       -0.4929
     26 C          -4.1782    4.7512    2.1185 C.3     1  LIG1        0.0789
     27 H          -4.1482    5.7399    2.5739 H       1  LIG1        0.0660
     28 H          -4.1736    3.9900    2.9056 H       1  LIG1        0.0660
     29 H          -3.2990    4.6196    1.4782 H       1  LIG1        0.0660
     30 C          -9.2193    4.5127    0.4548 C.ar    1  LIG1        0.1495
     31 C          -7.8795    4.6641    0.0846 C.ar    1  LIG1        0.0433
     32 C          -7.4550    5.9294   -0.3221 C.ar    1  LIG1       -0.0064
     33 C          -8.3732    6.9680   -0.3631 C.ar    1  LIG1        0.1388
     34 C          -9.6970    6.7028    0.0157 C.ar    1  LIG1        0.0707
     35 N         -10.1053    5.5172    0.4194 N.ar    1  LIG1       -0.2403
     36 H          -6.4206    6.0773   -0.6003 H       1  LIG1        0.0662
     37 H         -10.4254    7.5084   -0.0170 H       1  LIG1        0.0867
     38 N         -10.1402    2.2772    1.4062 N.1     1  LIG1       -0.1893
     39 C          -9.7249    3.2585    0.9592 C.1     1  LIG1        0.1198
     40 O          -8.1073    8.2346   -0.7438 O.3     1  LIG1       -0.4936
     41 C          -6.7866    8.5494   -1.1409 C.3     1  LIG1        0.0789
     42 H          -6.7939    9.6063   -1.4035 H       1  LIG1        0.0660
     43 H          -6.0738    8.3840   -0.3252 H       1  LIG1        0.0660
     44 H          -6.4811    7.9622   -2.0141 H       1  LIG1        0.0660
@<TRIPOS>BOND
     1    15    12    1
     2    23    24    3
     3    44    41    1
     4    13    12    1
     5    24    16    1
     6    42    41    1
     7    12    11    1
     8    12    14    1
     9    41    40    1
    10    41    43    1
    11    40    33    1
    12    11     4    1
    13     7     3    1
    14    16    21   ar
    15    16    17   ar
    16    36    32    1
    17    21    20   ar
    18     3     4   ar
    19     3     2   ar
    20     4     5   ar
    21    33    32   ar
    22    33    34   ar
    23    32    31   ar
    24    37    34    1
    25     2     8    1
    26     2     1   ar
    27     5    17    1
    28     5     6   ar
    29    17    18   ar
    30    34    35   ar
    31    20    31    1
    32    20    19   ar
    33    31    30   ar
    34     1     6   ar
    35     1    10    1
    36    35    30   ar
    37    30    39    1
    38    18    19   ar
    39    18    22    1
    40    19    25    1
    41    10     9    3
    42    39    38    3
    43    25    26    1
    44    29    26    1
    45    26    27    1
    46    26    28    1
