@<TRIPOS>MOLECULE
mol_data/opt/cam/geoms/mol2/6dl6aa-13ai6ii.out
 51 54 0 0 0
SMALL
GASTEIGER

@<TRIPOS>ATOM
      1 C          -4.5036   -2.1757   -0.0829 C.ar    1  LIG1        0.1410
      2 C          -3.1550   -2.2842   -0.3899 C.ar    1  LIG1       -0.0223
      3 C          -2.4326   -1.1131   -0.5691 C.ar    1  LIG1       -0.0151
      4 C          -3.0745    0.1107   -0.4285 C.ar    1  LIG1        0.1461
      5 C          -4.4531    0.1319   -0.0900 C.ar    1  LIG1        0.1154
      6 N          -5.1256   -1.0038    0.0641 N.ar    1  LIG1       -0.2326
      7 H          -1.3818   -1.1639   -0.8218 H       1  LIG1        0.0656
      8 H          -2.6858   -3.2555   -0.4895 H       1  LIG1        0.0647
      9 N          -5.9106   -4.3376    0.2327 N.1     1  LIG1       -0.1893
     10 C          -5.3008   -3.3651    0.0971 C.1     1  LIG1        0.1191
     11 O          -2.4627    1.3008   -0.6117 O.3     1  LIG1       -0.4930
     12 C          -1.1092    1.3144   -1.0289 C.3     1  LIG1        0.0789
     13 H          -0.8446    2.3636   -1.1507 H       1  LIG1        0.0660
     14 H          -0.4540    0.8609   -0.2774 H       1  LIG1        0.0660
     15 H          -0.9828    0.7955   -1.9849 H       1  LIG1        0.0660
     16 C          -6.6153    1.3373   -0.1781 C.ar    1  LIG1        0.0376
     17 C          -5.2394    1.3769    0.0754 C.ar    1  LIG1        0.0221
     18 C          -4.7166    2.5988    0.5105 C.ar    1  LIG1       -0.0489
     19 C          -5.5558    3.6859    0.6631 C.ar    1  LIG1       -0.0336
     20 C          -6.9149    3.5450    0.3720 C.ar    1  LIG1        0.0871
     21 N          -7.4288    2.3751   -0.0452 N.ar    1  LIG1       -0.2529
     22 H          -3.6633    2.6944    0.7353 H       1  LIG1        0.0625
     23 H          -7.0643    0.4048   -0.5050 H       1  LIG1        0.0836
     24 H          -5.1681    4.6373    1.0079 H       1  LIG1        0.0640
     25 C          -7.8617    4.6417    0.4970 C.ar    1  LIG1        0.0656
     26 C          -7.7359    5.9655    0.8735 C.ar    1  LIG1       -0.0314
     27 C          -9.0135    6.5664    0.7926 C.ar    1  LIG1       -0.0245
     28 C          -9.8976    5.5796    0.3676 C.ar    1  LIG1        0.0516
     29 N          -9.1774    4.4295    0.2018 N.ar    1  LIG1       -0.3527
     30 H          -9.5055    3.5337   -0.1269 H       1  LIG1        0.1660
     31 H          -6.8246    6.4560    1.1864 H       1  LIG1        0.0642
     32 C          -9.3412    7.9876    1.1362 C.3     1  LIG1       -0.0377
     33 H         -10.4040    8.1106    1.3560 H       1  LIG1        0.0278
     34 H          -9.0921    8.6771    0.3218 H       1  LIG1        0.0278
     35 H          -8.7794    8.3140    2.0157 H       1  LIG1        0.0278
     36 C         -12.2662    4.7116    0.5885 C.ar    1  LIG1        0.0473
     37 C         -11.3408    5.6553    0.0959 C.ar    1  LIG1        0.0198
     38 C         -11.8379    6.7088   -0.6695 C.ar    1  LIG1       -0.0466
     39 C         -13.1978    6.8203   -0.9384 C.ar    1  LIG1       -0.0317
     40 C         -14.0117    5.8236   -0.4128 C.ar    1  LIG1        0.0308
     41 N         -13.5695    4.8079    0.3249 N.ar    1  LIG1       -0.2593
     42 H         -11.1438    7.4405   -1.0728 H       1  LIG1        0.0628
     43 H         -15.0852    5.8490   -0.5942 H       1  LIG1        0.0832
     44 C         -11.8606    3.5467    1.4526 C.3     1  LIG1       -0.0217
     45 H         -11.0500    3.8072    2.1359 H       1  LIG1        0.0293
     46 H         -11.5241    2.6950    0.8508 H       1  LIG1        0.0293
     47 H         -12.7292    3.2155    2.0214 H       1  LIG1        0.0293
     48 C         -13.7578    7.9497   -1.7576 C.3     1  LIG1       -0.0383
     49 H         -14.8284    7.8182   -1.9294 H       1  LIG1        0.0278
     50 H         -13.2675    8.0155   -2.7333 H       1  LIG1        0.0278
     51 H         -13.6169    8.9130   -1.2575 H       1  LIG1        0.0278
@<TRIPOS>BOND
     1    50    48    1
     2    15    12    1
     3    49    48    1
     4    48    51    1
     5    48    39    1
     6    13    12    1
     7    42    38    1
     8    12    11    1
     9    12    14    1
    10    39    38   ar
    11    39    40   ar
    12     7     3    1
    13    38    37   ar
    14    11     4    1
    15    43    40    1
    16     3     4   ar
    17     3     2   ar
    18    23    16    1
    19     8     2    1
    20     4     5   ar
    21    40    41   ar
    22     2     1   ar
    23    16    21   ar
    24    16    17   ar
    25    30    29    1
    26     5     6   ar
    27     5    17    1
    28     1     6   ar
    29     1    10    1
    30    21    20   ar
    31    17    18   ar
    32    37    28    1
    33    37    36   ar
    34    10     9    3
    35    29    28   ar
    36    29    25   ar
    37    34    32    1
    38    41    36   ar
    39    28    27   ar
    40    20    25    1
    41    20    19   ar
    42    25    26   ar
    43    18    19   ar
    44    18    22    1
    45    36    44    1
    46    19    24    1
    47    27    26   ar
    48    27    32    1
    49    46    44    1
    50    26    31    1
    51    32    33    1
    52    32    35    1
    53    44    47    1
    54    44    45    1
