@<TRIPOS>MOLECULE
mol_data/opt/cam/geoms/mol2/6ea13ae13de4fl-.out
 49 52 0 0 0
SMALL
GASTEIGER

@<TRIPOS>ATOM
      1 C          -4.3773   -1.7572    1.4894 C.ar    1  LIG1        0.1139
      2 C          -3.0159   -1.9214    1.2295 C.ar    1  LIG1       -0.0278
      3 C          -2.3680   -0.9472    0.4816 C.ar    1  LIG1       -0.0571
      4 C          -3.0833    0.1440    0.0217 C.ar    1  LIG1       -0.0342
      5 C          -4.4450    0.2270    0.3282 C.ar    1  LIG1        0.0885
      6 N          -5.0780   -0.7063    1.0484 N.ar    1  LIG1       -0.2370
      7 H          -1.3098   -1.0408    0.2609 H       1  LIG1        0.0619
      8 H          -2.4937   -2.7905    1.6094 H       1  LIG1        0.0645
      9 C          -5.0866   -2.7415    2.2609 C.1     1  LIG1       -0.0498
     10 C          -5.6570   -3.5791    2.9087 C.1     1  LIG1       -0.1124
     11 H          -6.1705   -4.3153    3.4836 H       1  LIG1        0.1232
     12 H          -2.6062    0.9220   -0.5622 H       1  LIG1        0.0639
     13 C          -5.2771    1.3414   -0.1135 C.ar    1  LIG1        0.0666
     14 C          -5.0216    2.4802   -0.8442 C.ar    1  LIG1       -0.0188
     15 C          -6.2339    3.2146   -0.9352 C.ar    1  LIG1        0.0520
     16 C          -7.2016    2.4920   -0.2401 C.ar    1  LIG1        0.0802
     17 N          -6.6008    1.3605    0.2330 N.ar    1  LIG1       -0.3508
     18 H          -6.9866    0.6674    0.8590 H       1  LIG1        0.1660
     19 H          -4.0805    2.7724   -1.2846 H       1  LIG1        0.0652
     20 C          -6.4357    4.4264   -1.6485 C.1     1  LIG1       -0.0675
     21 C          -6.5987    5.4497   -2.2605 C.1     1  LIG1       -0.1138
     22 H          -6.7552    6.3698   -2.7743 H       1  LIG1        0.1232
     23 C          -8.6166    2.7350   -0.0384 C.ar    1  LIG1        0.0833
     24 C          -9.3249    3.8693    0.3194 C.ar    1  LIG1        0.0944
     25 C         -10.7126    3.5145    0.4041 C.ar    1  LIG1        0.0680
     26 C         -10.8049    2.1681    0.1024 C.ar    1  LIG1        0.0674
     27 N          -9.5333    1.7259   -0.1592 N.ar    1  LIG1       -0.3509
     28 H          -9.3148    0.7862   -0.4524 H       1  LIG1        0.1660
     29 N          -8.3686    6.1955    0.8814 N.1     1  LIG1       -0.1908
     30 C          -8.7855    5.1488    0.6177 C.1     1  LIG1        0.1026
     31 C         -11.7751    4.4094    0.6948 C.1     1  LIG1       -0.0662
     32 C         -12.6553    5.1970    0.9244 C.1     1  LIG1       -0.1138
     33 H         -13.4278    5.9013    1.1291 H       1  LIG1        0.1232
     34 C         -12.9249    1.1549    0.9751 C.ar    1  LIG1        0.1262
     35 C         -13.9911    0.2847    0.8050 C.ar    1  LIG1       -0.0161
     36 C         -11.9517    1.2615   -0.0332 C.ar    1  LIG1        0.0444
     37 C         -14.1084   -0.5013   -0.3389 C.ar    1  LIG1       -0.0165
     38 H         -14.7421    0.2026    1.5862 H       1  LIG1        0.0655
     39 C         -12.0726    0.4656   -1.1683 C.ar    1  LIG1       -0.0073
     40 C         -13.1381   -0.4183   -1.3307 C.ar    1  LIG1        0.1209
     41 H         -11.3502    0.5460   -1.9736 H       1  LIG1        0.0662
     42 H         -14.9552   -1.1685   -0.4351 H       1  LIG1        0.0655
     43 O         -12.7532    1.8959    2.1011 O.3     1  LIG1       -0.5061
     44 H         -13.5331    1.8195    2.6622 H       1  LIG1        0.2922
     45 O         -13.1417   -1.1365   -2.4883 O.3     1  LIG1       -0.4951
     46 C         -14.2176   -2.0203   -2.7112 C.3     1  LIG1        0.0788
     47 H         -14.0370   -2.4825   -3.6813 H       1  LIG1        0.0660
     48 H         -14.2648   -2.8031   -1.9444 H       1  LIG1        0.0660
     49 H         -15.1773   -1.4904   -2.7394 H       1  LIG1        0.0660
@<TRIPOS>BOND
     1    47    46    1
     2    22    21    1
     3    49    46    1
     4    46    45    1
     5    46    48    1
     6    45    40    1
     7    21    20    3
     8    41    39    1
     9    20    15    1
    10    40    39   ar
    11    40    37   ar
    12    19    14    1
    13    39    36   ar
    14    15    14   ar
    15    15    16   ar
    16    14    13   ar
    17    12     4    1
    18    28    27    1
    19    42    37    1
    20    37    35   ar
    21    16    23    1
    22    16    17   ar
    23    27    23   ar
    24    27    26   ar
    25    13    17   ar
    26    13     5    1
    27    23    24   ar
    28    36    26    1
    29    36    34   ar
    30     4     5   ar
    31     4     3   ar
    32    26    25   ar
    33    17    18    1
    34     7     3    1
    35    24    25   ar
    36    24    30    1
    37     5     6   ar
    38    25    31    1
    39     3     2   ar
    40    30    29    3
    41    31    32    3
    42    35    34   ar
    43    35    38    1
    44    32    33    1
    45    34    43    1
    46     6     1   ar
    47     2     1   ar
    48     2     8    1
    49     1     9    1
    50    43    44    1
    51     9    10    3
    52    10    11    1
