@<TRIPOS>MOLECULE
mol_data/opt/cam/geoms/mol2/6ea13eh13aa-4ea-.out
 45 48 0 0 0
SMALL
GASTEIGER

@<TRIPOS>ATOM
      1 C          -4.4546   -2.1074    0.1379 C.ar    1  LIG1        0.1139
      2 C          -3.0781   -2.1824   -0.0828 C.ar    1  LIG1       -0.0278
      3 C          -2.3829   -0.9982   -0.2860 C.ar    1  LIG1       -0.0571
      4 C          -3.0632    0.2069   -0.2656 C.ar    1  LIG1       -0.0341
      5 C          -4.4440    0.1882   -0.0384 C.ar    1  LIG1        0.0897
      6 N          -5.1233   -0.9507    0.1599 N.ar    1  LIG1       -0.2369
      7 H          -1.3120   -1.0164   -0.4597 H       1  LIG1        0.0619
      8 H          -2.5829   -3.1454   -0.0909 H       1  LIG1        0.0645
      9 C          -5.2148   -3.3093    0.3542 C.1     1  LIG1       -0.0498
     10 C          -5.8268   -4.3294    0.5323 C.1     1  LIG1       -0.1124
     11 H          -6.3763   -5.2285    0.6925 H       1  LIG1        0.1232
     12 H          -2.5521    1.1482   -0.4202 H       1  LIG1        0.0639
     13 C          -5.2573    1.3968    0.0046 C.ar    1  LIG1        0.0829
     14 C          -4.9767    2.7589   -0.1314 C.ar    1  LIG1        0.0727
     15 C          -6.2056    3.4596    0.0419 C.ar    1  LIG1        0.0679
     16 C          -7.1944    2.5165    0.2723 C.ar    1  LIG1        0.0855
     17 N          -6.5891    1.2802    0.2342 N.ar    1  LIG1       -0.3494
     18 H          -6.9933    0.3825    0.4588 H       1  LIG1        0.1661
     19 C          -3.7410    3.3933   -0.4176 C.1     1  LIG1       -0.0656
     20 C          -2.7233    3.9906   -0.6690 C.1     1  LIG1       -0.1138
     21 H          -1.8174    4.5101   -0.8805 H       1  LIG1        0.1232
     22 N          -6.3629    4.8399    0.0073 N.pl3   1  LIG1       -0.3553
     23 H          -5.6179    5.3089   -0.4911 H       1  LIG1        0.1424
     24 H          -7.2760    5.1325   -0.3175 H       1  LIG1        0.1424
     25 C          -8.6116    2.7053    0.4705 C.ar    1  LIG1        0.0652
     26 C          -9.3107    3.7707    1.0045 C.ar    1  LIG1       -0.0343
     27 C         -10.6893    3.4659    0.9186 C.ar    1  LIG1       -0.0357
     28 C         -10.8170    2.2194    0.3432 C.ar    1  LIG1        0.0481
     29 N          -9.5364    1.7613    0.0937 N.ar    1  LIG1       -0.3529
     30 H          -9.3311    0.9845   -0.5141 H       1  LIG1        0.1659
     31 H          -8.8632    4.6435    1.4567 H       1  LIG1        0.0639
     32 H         -11.5062    4.0727    1.2743 H       1  LIG1        0.0639
     33 C         -13.2414    1.8974   -0.2883 C.ar    1  LIG1        0.0338
     34 C         -14.3023    1.0240   -0.5578 C.ar    1  LIG1       -0.0457
     35 C         -11.9752    1.3739    0.0560 C.ar    1  LIG1        0.0137
     36 C         -14.1354   -0.3497   -0.5059 C.ar    1  LIG1       -0.0606
     37 H         -15.2642    1.4500   -0.8205 H       1  LIG1        0.0630
     38 C         -11.8360   -0.0193    0.1112 C.ar    1  LIG1       -0.0515
     39 C         -12.8914   -0.8718   -0.1699 C.ar    1  LIG1       -0.0611
     40 H         -10.8828   -0.4389    0.4160 H       1  LIG1        0.0624
     41 H         -14.9701   -1.0075   -0.7222 H       1  LIG1        0.0618
     42 C         -13.4950    3.3028   -0.4018 C.1     1  LIG1       -0.0690
     43 C         -13.7774    4.4675   -0.5198 C.1     1  LIG1       -0.1139
     44 H         -14.0075    5.5027   -0.6238 H       1  LIG1        0.1232
     45 H         -12.7453   -1.9455   -0.1120 H       1  LIG1        0.0618
@<TRIPOS>BOND
     1    21    20    1
     2    37    34    1
     3    41    36    1
     4    20    19    3
     5    44    43    1
     6    34    36   ar
     7    34    33   ar
     8    43    42    3
     9    30    29    1
    10    36    39   ar
    11    23    22    1
    12     7     3    1
    13    12     4    1
    14    19    14    1
    15    42    33    1
    16    24    22    1
    17    33    35   ar
    18     3     4   ar
    19     3     2   ar
    20     4     5   ar
    21    39    45    1
    22    39    38   ar
    23    14    13   ar
    24    14    15   ar
    25     8     2    1
    26     2     1   ar
    27     5    13    1
    28     5     6   ar
    29    13    17   ar
    30    22    15    1
    31    15    16   ar
    32    35    38   ar
    33    35    28    1
    34    29    28   ar
    35    29    25   ar
    36    38    40    1
    37     1     6   ar
    38     1     9    1
    39    17    16   ar
    40    17    18    1
    41    16    25    1
    42    28    27   ar
    43     9    10    3
    44    25    26   ar
    45    10    11    1
    46    27    26   ar
    47    27    32    1
    48    26    31    1
