@<TRIPOS>MOLECULE
mol_data/opt/cam/geoms/mol2/6ea13ee12lf-4ef-6lh-13dh6ll-13il-.out
 108 115 0 0 0
SMALL
GASTEIGER

@<TRIPOS>ATOM
      1 C          -4.5635   -2.0331   -1.1435 C.ar    1  LIG1        0.1139
      2 C          -3.2693   -2.1611   -1.6516 C.ar    1  LIG1       -0.0278
      3 C          -2.5382   -1.0040   -1.8803 C.ar    1  LIG1       -0.0571
      4 C          -3.1039    0.2287   -1.6023 C.ar    1  LIG1       -0.0341
      5 C          -4.4071    0.2621   -1.0960 C.ar    1  LIG1        0.0897
      6 N          -5.1208   -0.8493   -0.8721 N.ar    1  LIG1       -0.2369
      7 H          -1.5289   -1.0639   -2.2738 H       1  LIG1        0.0619
      8 H          -2.8628   -3.1439   -1.8551 H       1  LIG1        0.0645
      9 C          -5.3558   -3.2064   -0.8906 C.1     1  LIG1       -0.0498
     10 C          -5.9955   -4.2046   -0.6879 C.1     1  LIG1       -0.1124
     11 H          -6.5684   -5.0835   -0.5009 H       1  LIG1        0.1232
     12 H          -2.5630    1.1510   -1.7676 H       1  LIG1        0.0639
     13 C          -5.1015    1.5044   -0.7670 C.ar    1  LIG1        0.0823
     14 C          -4.7710    2.8512   -0.8552 C.ar    1  LIG1        0.0675
     15 C          -5.8968    3.5978   -0.3737 C.ar    1  LIG1        0.0691
     16 C          -6.8659    2.6705   -0.0006 C.ar    1  LIG1        0.1032
     17 N          -6.3609    1.4312   -0.2540 N.ar    1  LIG1       -0.3485
     18 H          -6.8220    0.5469   -0.0902 H       1  LIG1        0.1661
     19 C          -3.5663    3.4245   -1.3393 C.1     1  LIG1       -0.0662
     20 C          -2.5525    3.9328   -1.7458 C.1     1  LIG1       -0.1138
     21 H          -1.6619    4.3964   -2.1023 H       1  LIG1        0.1232
     22 C          -5.9795    5.0134   -0.3615 C.1     1  LIG1       -0.0662
     23 C          -6.0021    6.2168   -0.3980 C.1     1  LIG1       -0.1138
     24 H          -6.0159    7.2818   -0.4152 H       1  LIG1        0.1232
     25 C          -8.2021    2.7986    0.5234 C.ar    1  LIG1        0.1982
     26 C          -8.8767    3.7490    1.2339 C.ar    1  LIG1        0.2098
     27 C         -10.1788    3.2134    1.5021 C.ar    1  LIG1        0.2061
     28 C         -10.2131    1.9512    0.9625 C.ar    1  LIG1        0.1821
     29 O          -8.9967    1.7020    0.3687 O.2     1  LIG1       -0.4457
     30 O          -8.3810    4.9197    1.6846 O.3     1  LIG1       -0.4884
     31 C          -9.0581    6.0869    1.2245 C.3     1  LIG1        0.0791
     32 H          -8.5889    6.9289    1.7335 H       1  LIG1        0.0660
     33 H          -8.9282    6.2013    0.1437 H       1  LIG1        0.0660
     34 H         -10.1205    6.0493    1.4762 H       1  LIG1        0.0660
     35 O         -11.1212    3.9411    2.1274 O.3     1  LIG1       -0.5008
     36 H         -11.7710    3.3521    2.5502 H       1  LIG1        0.2924
     37 C         -12.3072    0.7083    1.6421 C.ar    1  LIG1        0.0362
     38 C         -13.2531   -0.2786    1.3337 C.ar    1  LIG1       -0.0343
     39 C         -11.2236    0.9232    0.7656 C.ar    1  LIG1        0.0399
     40 C         -13.1540   -1.0865    0.2134 C.ar    1  LIG1        0.0299
     41 H         -14.0753   -0.4383    2.0225 H       1  LIG1        0.0637
     42 C         -11.1214    0.1054   -0.3649 C.ar    1  LIG1       -0.0076
     43 C         -12.0576   -0.8784   -0.6421 C.ar    1  LIG1        0.1254
     44 H         -10.2980    0.2687   -1.0522 H       1  LIG1        0.0662
     45 C         -12.4428    1.4000    2.8848 C.1     1  LIG1       -0.0689
     46 C         -12.5799    1.9609    3.9452 C.1     1  LIG1       -0.1139
     47 H         -12.6769    2.4216    4.9021 H       1  LIG1        0.1232
     48 O         -11.9844   -1.6375   -1.7587 O.3     1  LIG1       -0.5061
     49 H         -11.1796   -1.4209   -2.2447 H       1  LIG1        0.2922
     50 C         -13.8773   -3.4846   -0.1840 C.ar    1  LIG1        0.2232
     51 C         -14.1836   -2.1102   -0.0746 C.ar    1  LIG1        0.0489
     52 C         -15.5129   -1.7775   -0.2049 C.ar    1  LIG1       -0.0260
     53 C         -16.5135   -2.7344   -0.4609 C.ar    1  LIG1        0.0532
     54 C         -16.0804   -4.0584   -0.6125 C.ar    1  LIG1        0.1128
     55 N         -14.7791   -4.3931   -0.4453 N.ar    1  LIG1       -0.2090
     56 H         -15.8029   -0.7345   -0.1119 H       1  LIG1        0.0644
     57 O         -12.5923   -3.8460    0.0181 O.3     1  LIG1       -0.4792
     58 C         -12.2845   -5.2213   -0.1118 C.3     1  LIG1        0.0804
     59 H         -11.2071   -5.2976    0.0350 H       1  LIG1        0.0660
     60 H         -12.8060   -5.8157    0.6452 H       1  LIG1        0.0660
     61 H         -12.5608   -5.5993   -1.0999 H       1  LIG1        0.0660
     62 N         -17.8378   -2.3250   -0.4563 N.pl3   1  LIG1       -0.3563
     63 H         -17.9598   -1.3249   -0.5143 H       1  LIG1        0.1424
     64 H         -18.4940   -2.8071   -1.0506 H       1  LIG1        0.1424
     65 C         -16.9348   -5.2247   -0.8711 C.ar    1  LIG1        0.0867
     66 C         -18.1696   -5.4531   -1.4959 C.ar    1  LIG1        0.0997
     67 C         -18.4329   -6.8538   -1.4503 C.ar    1  LIG1        0.0686
     68 C         -17.3636   -7.4509   -0.8030 C.ar    1  LIG1        0.0744
     69 N         -16.4843   -6.4369   -0.4885 N.ar    1  LIG1       -0.3503
     70 H         -15.5617   -6.5795   -0.1018 H       1  LIG1        0.1660
     71 N         -19.7165   -3.8408   -2.7705 N.1     1  LIG1       -0.1907
     72 C         -19.0027   -4.5499   -2.1908 C.1     1  LIG1        0.1032
     73 N         -19.5798   -7.4755   -1.9614 N.pl3   1  LIG1       -0.3553
     74 H         -20.1890   -6.8183   -2.4346 H       1  LIG1        0.1424
     75 H         -19.3637   -8.2443   -2.5856 H       1  LIG1        0.1424
     76 C         -15.8944   -9.3742   -0.0715 C.ar    1  LIG1        0.2247
     77 C         -17.1475   -8.8430   -0.4297 C.ar    1  LIG1        0.0651
     78 C         -18.2079   -9.7516   -0.3969 C.ar    1  LIG1       -0.0035
     79 C         -18.0099  -11.0798   -0.0404 C.ar    1  LIG1        0.1483
     80 C         -16.7229  -11.5002    0.3257 C.ar    1  LIG1        0.1327
     81 N         -15.7027  -10.6241    0.2788 N.ar    1  LIG1       -0.2072
     82 H         -19.1972   -9.3924   -0.6461 H       1  LIG1        0.0663
     83 O         -14.8238   -8.5305   -0.0788 O.3     1  LIG1       -0.4792
     84 C         -13.5628   -9.0826    0.2685 C.3     1  LIG1        0.0804
     85 H         -12.8584   -8.2519    0.2322 H       1  LIG1        0.0660
     86 H         -13.5837   -9.5193    1.2695 H       1  LIG1        0.0660
     87 H         -13.2623   -9.8544   -0.4451 H       1  LIG1        0.0660
     88 O         -18.9949  -12.0151   -0.0501 O.3     1  LIG1       -0.4929
     89 C         -20.3019  -11.6099   -0.3929 C.3     1  LIG1        0.0789
     90 H         -20.9219  -12.5036   -0.3268 H       1  LIG1        0.0660
     91 H         -20.6870  -10.8520    0.2988 H       1  LIG1        0.0660
     92 H         -20.3484  -11.2156   -1.4151 H       1  LIG1        0.0660
     93 C         -16.3545  -12.8620    0.7134 C.ar    1  LIG1        0.0752
     94 C         -17.0046  -13.9524    1.2832 C.ar    1  LIG1        0.0181
     95 C         -16.0083  -14.9520    1.4500 C.ar    1  LIG1        0.1408
     96 C         -14.8020  -14.4669    1.0021 C.ar    1  LIG1        0.0447
     97 N         -15.0299  -13.2015    0.5618 N.ar    1  LIG1       -0.3561
     98 H         -14.3509  -12.5277    0.2473 H       1  LIG1        0.1655
     99 H         -13.8261  -14.9254    0.9810 H       1  LIG1        0.0844
    100 C         -18.4096  -14.1242    1.7698 C.3     1  LIG1       -0.0342
    101 H         -18.4303  -14.9399    2.4969 H       1  LIG1        0.0279
    102 H         -19.1035  -14.3680    0.9607 H       1  LIG1        0.0279
    103 H         -18.7861  -13.2220    2.2538 H       1  LIG1        0.0279
    104 O         -16.2071  -16.1809    2.0215 O.3     1  LIG1       -0.4933
    105 C         -16.7374  -17.1485    1.1330 C.3     1  LIG1        0.0789
    106 H         -16.8495  -18.0742    1.7002 H       1  LIG1        0.0660
    107 H         -17.7164  -16.8456    0.7427 H       1  LIG1        0.0660
    108 H         -16.0624  -17.3216    0.2859 H       1  LIG1        0.0660
@<TRIPOS>BOND
     1    71    72    3
     2    75    73    1
     3    74    73    1
     4     7     3    1
     5    49    48    1
     6    72    66    1
     7    21    20    1
     8    73    67    1
     9     3     2   ar
    10     3     4   ar
    11     8     2    1
    12    12     4    1
    13    48    43    1
    14    20    19    3
    15     2     1   ar
    16     4     5   ar
    17    66    67   ar
    18    66    65   ar
    19    67    68   ar
    20    92    89    1
    21    19    14    1
    22     1     9    1
    23     1     6   ar
    24    61    58    1
    25     5     6   ar
    26     5    13    1
    27    44    42    1
    28    64    62    1
    29     9    10    3
    30    65    54    1
    31    65    69   ar
    32    14    13   ar
    33    14    15   ar
    34    68    69   ar
    35    68    77    1
    36    13    17   ar
    37    10    11    1
    38    82    78    1
    39    43    42   ar
    40    43    40   ar
    41    54    53   ar
    42    54    55   ar
    43    63    62    1
    44    69    70    1
    45    53    62    1
    46    53    52   ar
    47    55    50   ar
    48    87    84    1
    49    77    78   ar
    50    77    76   ar
    51    24    23    1
    52    23    22    3
    53    78    79   ar
    54    89    90    1
    55    89    88    1
    56    89    91    1
    57    15    22    1
    58    15    16   ar
    59    42    39   ar
    60    17    18    1
    61    17    16   ar
    62    52    56    1
    63    52    51   ar
    64    50    51   ar
    65    50    57    1
    66    58    57    1
    67    58    59    1
    68    58    60    1
    69    83    76    1
    70    83    84    1
    71    51    40    1
    72    76    81   ar
    73    88    79    1
    74    79    80   ar
    75    16    25    1
    76    33    31    1
    77    40    38   ar
    78    85    84    1
    79    98    97    1
    80    84    86    1
    81    81    80   ar
    82   108   105    1
    83    80    93    1
    84    29    25   ar
    85    29    28   ar
    86    25    26   ar
    87    97    93   ar
    88    97    96   ar
    89    93    94   ar
    90   107   105    1
    91    39    28    1
    92    39    37   ar
    93   102   100    1
    94    28    27   ar
    95    99    96    1
    96    96    95   ar
    97   105   106    1
    98   105   104    1
    99    31    34    1
   100    31    30    1
   101    31    32    1
   102    26    27   ar
   103    26    30    1
   104    94    95   ar
   105    94   100    1
   106    38    37   ar
   107    38    41    1
   108    95   104    1
   109    27    35    1
   110    37    45    1
   111   100   103    1
   112   100   101    1
   113    35    36    1
   114    45    46    3
   115    46    47    1
