@<TRIPOS>MOLECULE
mol_data/opt/cam/geoms/mol2/6ea6ea6ea6ea.out
 46 49 0 0 0
SMALL
GASTEIGER

@<TRIPOS>ATOM
      1 C          -3.6868   -1.8610   -0.7956 C.ar    1  LIG1        0.1138
      2 C          -2.9973   -2.2745    0.3482 C.ar    1  LIG1       -0.0278
      3 C          -3.1898   -1.5674    1.5236 C.ar    1  LIG1       -0.0571
      4 C          -4.0533   -0.4823    1.5212 C.ar    1  LIG1       -0.0355
      5 C          -4.6980   -0.1391    0.3300 C.ar    1  LIG1        0.0750
      6 N          -4.5178   -0.8137   -0.8056 N.ar    1  LIG1       -0.2383
      7 H          -2.6782   -1.8627    2.4336 H       1  LIG1        0.0619
      8 H          -2.3346   -3.1299    0.2991 H       1  LIG1        0.0645
      9 C          -3.5093   -2.5721   -2.0326 C.1     1  LIG1       -0.0498
     10 C          -3.3387   -3.1874   -3.0518 C.1     1  LIG1       -0.1124
     11 H          -3.1988   -3.7217   -3.9634 H       1  LIG1        0.1232
     12 H          -4.2441    0.0828    2.4263 H       1  LIG1        0.0639
     13 C          -6.8963    0.9800   -0.2840 C.ar    1  LIG1        0.1230
     14 C          -5.6067    1.0352    0.2802 C.ar    1  LIG1        0.0342
     15 C          -5.1987    2.2558    0.8091 C.ar    1  LIG1       -0.0479
     16 C          -6.0362    3.3561    0.7480 C.ar    1  LIG1       -0.0349
     17 C          -7.2878    3.2073    0.1495 C.ar    1  LIG1        0.0751
     18 N          -7.7041    2.0431   -0.3453 N.ar    1  LIG1       -0.2377
     19 H          -4.2135    2.3422    1.2563 H       1  LIG1        0.0626
     20 C          -7.4477   -0.2455   -0.7940 C.1     1  LIG1       -0.0491
     21 C          -7.9510   -1.2587   -1.2002 C.1     1  LIG1       -0.1124
     22 H          -8.3857   -2.1571   -1.5738 H       1  LIG1        0.1232
     23 H          -5.7350    4.3109    1.1632 H       1  LIG1        0.0639
     24 C          -9.5633    4.3145    0.3908 C.ar    1  LIG1        0.1230
     25 C          -8.2055    4.3674    0.0195 C.ar    1  LIG1        0.0342
     26 C          -7.7327    5.5761   -0.4822 C.ar    1  LIG1       -0.0479
     27 C          -8.5886    6.6550   -0.6199 C.ar    1  LIG1       -0.0349
     28 C          -9.9230    6.4986   -0.2435 C.ar    1  LIG1        0.0751
     29 N         -10.3901    5.3559    0.2560 N.ar    1  LIG1       -0.2377
     30 H          -6.6921    5.6612   -0.7788 H       1  LIG1        0.0626
     31 C         -10.1401    3.1399    0.9857 C.1     1  LIG1       -0.0491
     32 C         -10.6463    2.1859    1.5134 C.1     1  LIG1       -0.1124
     33 H         -11.0935    1.3299    1.9638 H       1  LIG1        0.1232
     34 H          -8.2328    7.6048   -1.0022 H       1  LIG1        0.0639
     35 C         -11.7571    8.0316    0.6171 C.ar    1  LIG1        0.1222
     36 C         -10.8908    7.6131   -0.4117 C.ar    1  LIG1        0.0342
     37 C         -10.9617    8.2927   -1.6248 C.ar    1  LIG1       -0.0485
     38 C         -11.8746    9.3218   -1.7896 C.ar    1  LIG1       -0.0429
     39 C         -12.6953    9.6432   -0.7163 C.ar    1  LIG1        0.0290
     40 N         -12.6394    9.0273    0.4591 N.ar    1  LIG1       -0.2460
     41 H         -10.3132    7.9937   -2.4423 H       1  LIG1        0.0625
     42 H         -13.4324   10.4380   -0.8029 H       1  LIG1        0.0830
     43 C         -11.7140    7.4442    1.9284 C.1     1  LIG1       -0.0491
     44 C         -11.6831    6.9984    3.0445 C.1     1  LIG1       -0.1124
     45 H         -11.6627    6.5847    4.0262 H       1  LIG1        0.1232
     46 H         -11.9565    9.8576   -2.7284 H       1  LIG1        0.0633
@<TRIPOS>BOND
     1    11    10    1
     2    10     9    3
     3    46    38    1
     4    41    37    1
     5     9     1    1
     6    38    37   ar
     7    38    39   ar
     8    37    36   ar
     9    22    21    1
    10    21    20    3
    11    34    27    1
    12     6     1   ar
    13     6     5   ar
    14    42    39    1
    15     1     2   ar
    16    20    13    1
    17    30    26    1
    18    39    40   ar
    19    27    26   ar
    20    27    28   ar
    21    26    25   ar
    22    36    28    1
    23    36    35   ar
    24    18    13   ar
    25    18    17   ar
    26    13    14   ar
    27    28    29   ar
    28    25    17    1
    29    25    24   ar
    30    17    16   ar
    31    29    24   ar
    32    14     5    1
    33    14    15   ar
    34     8     2    1
    35     5     4   ar
    36     2     3   ar
    37    24    31    1
    38    40    35   ar
    39    35    43    1
    40    16    15   ar
    41    16    23    1
    42    15    19    1
    43    31    32    3
    44    32    33    1
    45     4     3   ar
    46     4    12    1
    47     3     7    1
    48    43    44    3
    49    44    45    1
