@<TRIPOS>MOLECULE
mol_data/opt/cam/geoms/mol2/6ea6ea-6ea-6ea.out
 46 49 0 0 0
SMALL
GASTEIGER

@<TRIPOS>ATOM
      1 C          -4.1941   -2.1072    0.6344 C.ar    1  LIG1        0.1138
      2 C          -3.2797   -2.4551   -0.3628 C.ar    1  LIG1       -0.0278
      3 C          -3.0184   -1.5300   -1.3600 C.ar    1  LIG1       -0.0571
      4 C          -3.6529   -0.2975   -1.3279 C.ar    1  LIG1       -0.0355
      5 C          -4.5369   -0.0241   -0.2811 C.ar    1  LIG1        0.0750
      6 N          -4.8091   -0.9215    0.6711 N.ar    1  LIG1       -0.2383
      7 H          -2.3291   -1.7685   -2.1631 H       1  LIG1        0.0619
      8 H          -2.8051   -3.4286   -0.3466 H       1  LIG1        0.0645
      9 C          -4.5098   -3.0449    1.6779 C.1     1  LIG1       -0.0498
     10 C          -4.7549   -3.8501    2.5371 C.1     1  LIG1       -0.1124
     11 H          -4.9798   -4.5536    3.3055 H       1  LIG1        0.1232
     12 H          -3.4729    0.4375   -2.0997 H       1  LIG1        0.0639
     13 C          -4.8123    2.5156   -0.5654 C.ar    1  LIG1        0.1230
     14 C          -5.2949    1.2519   -0.1764 C.ar    1  LIG1        0.0342
     15 C          -6.5786    1.2135    0.3699 C.ar    1  LIG1       -0.0479
     16 C          -7.3287    2.3677    0.4724 C.ar    1  LIG1       -0.0349
     17 C          -6.7736    3.5698    0.0248 C.ar    1  LIG1        0.0751
     18 N          -5.5417    3.6343   -0.4707 N.ar    1  LIG1       -0.2377
     19 H          -6.9605    0.2618    0.7196 H       1  LIG1        0.0626
     20 C          -3.4754    2.7239   -1.0583 C.1     1  LIG1       -0.0491
     21 C          -2.3633    2.9432   -1.4612 C.1     1  LIG1       -0.1124
     22 H          -1.3771    3.1439   -1.8126 H       1  LIG1        0.1232
     23 H          -8.3216    2.3488    0.9068 H       1  LIG1        0.0639
     24 C          -7.0307    6.0419    0.5595 C.ar    1  LIG1        0.1230
     25 C          -7.5554    4.8300    0.0707 C.ar    1  LIG1        0.0342
     26 C          -8.8761    4.8498   -0.3673 C.ar    1  LIG1       -0.0479
     27 C          -9.6078    6.0241   -0.3499 C.ar    1  LIG1       -0.0349
     28 C          -8.9900    7.1860    0.1138 C.ar    1  LIG1        0.0751
     29 N          -7.7375    7.1752    0.5759 N.ar    1  LIG1       -0.2377
     30 H          -9.3280    3.9361   -0.7402 H       1  LIG1        0.0626
     31 C          -5.7133    6.1291    1.1283 C.1     1  LIG1       -0.0491
     32 C          -4.6324    6.2361    1.6433 C.1     1  LIG1       -0.1124
     33 H          -3.6653    6.3213    2.0826 H       1  LIG1        0.1232
     34 H         -10.6331    6.0407   -0.6912 H       1  LIG1        0.0639
     35 C         -10.6610    8.9578   -0.7023 C.ar    1  LIG1        0.1222
     36 C          -9.6844    8.4989    0.2019 C.ar    1  LIG1        0.0342
     37 C          -9.3356    9.3574    1.2466 C.ar    1  LIG1       -0.0485
     38 C          -9.9673   10.5790    1.3813 C.ar    1  LIG1       -0.0429
     39 C         -10.9408   10.9210    0.4490 C.ar    1  LIG1        0.0290
     40 N         -11.2760   10.1436   -0.5713 N.ar    1  LIG1       -0.2460
     41 H          -8.5609    9.0403    1.9344 H       1  LIG1        0.0625
     42 H         -11.4704   11.8680    0.5215 H       1  LIG1        0.0830
     43 C         -11.0506    8.2175   -1.8743 C.1     1  LIG1       -0.0491
     44 C         -11.3945    7.6391   -2.8717 C.1     1  LIG1       -0.1124
     45 H         -11.6944    7.1335   -3.7608 H       1  LIG1        0.1232
     46 H          -9.7159   11.2556    2.1902 H       1  LIG1        0.0633
@<TRIPOS>BOND
     1    45    44    1
     2    44    43    3
     3     7     3    1
     4    12     4    1
     5    43    35    1
     6    22    21    1
     7    21    20    3
     8     3     4   ar
     9     3     2   ar
    10     4     5   ar
    11    20    13    1
    12    30    26    1
    13    35    40   ar
    14    35    36   ar
    15    34    27    1
    16    40    39   ar
    17    13    18   ar
    18    13    14   ar
    19    18    17   ar
    20    26    27   ar
    21    26    25   ar
    22     2     8    1
    23     2     1   ar
    24    27    28   ar
    25     5    14    1
    26     5     6   ar
    27    14    15   ar
    28    17    25    1
    29    17    16   ar
    30    25    24   ar
    31    28    36    1
    32    28    29   ar
    33    36    37   ar
    34    15    16   ar
    35    15    19    1
    36    39    42    1
    37    39    38   ar
    38    16    23    1
    39    24    29   ar
    40    24    31    1
    41     1     6   ar
    42     1     9    1
    43    31    32    3
    44    37    38   ar
    45    37    41    1
    46    38    46    1
    47    32    33    1
    48     9    10    3
    49    10    11    1
