@<TRIPOS>MOLECULE
mol_data/opt/cam/geoms/mol2/6ea6ea6ea-6ea-.out
 46 49 0 0 0
SMALL
GASTEIGER

@<TRIPOS>ATOM
      1 C          -4.5497   -2.3515   -0.2851 C.ar    1  LIG1        0.1138
      2 C          -3.1600   -2.4012   -0.1411 C.ar    1  LIG1       -0.0278
      3 C          -2.4738   -1.2102    0.0298 C.ar    1  LIG1       -0.0571
      4 C          -3.1866   -0.0210    0.0509 C.ar    1  LIG1       -0.0355
      5 C          -4.5747   -0.0664   -0.1038 C.ar    1  LIG1        0.0750
      6 N          -5.2426   -1.2083   -0.2695 N.ar    1  LIG1       -0.2383
      7 H          -1.3958   -1.2088    0.1526 H       1  LIG1        0.0619
      8 H          -2.6489   -3.3560   -0.1631 H       1  LIG1        0.0645
      9 C          -5.2931   -3.5692   -0.4649 C.1     1  LIG1       -0.0498
     10 C          -5.8854   -4.6052   -0.6142 C.1     1  LIG1       -0.1124
     11 H          -6.4252   -5.5145   -0.7478 H       1  LIG1        0.1232
     12 H          -2.6864    0.9286    0.2023 H       1  LIG1        0.0639
     13 C          -6.5459    1.3594    0.6351 C.ar    1  LIG1        0.1230
     14 C          -5.3680    1.1889   -0.1167 C.ar    1  LIG1        0.0342
     15 C          -4.9630    2.2645   -0.9011 C.ar    1  LIG1       -0.0479
     16 C          -5.7014    3.4345   -0.9300 C.ar    1  LIG1       -0.0349
     17 C          -6.8545    3.5129   -0.1481 C.ar    1  LIG1        0.0751
     18 N          -7.2581    2.4890    0.6079 N.ar    1  LIG1       -0.2377
     19 H          -4.0742    2.1701   -1.5169 H       1  LIG1        0.0626
     20 C          -7.0377    0.3415    1.5233 C.1     1  LIG1       -0.0491
     21 C          -7.4639   -0.4716    2.2994 C.1     1  LIG1       -0.1124
     22 H          -7.8406   -1.2055    2.9740 H       1  LIG1        0.1232
     23 H          -5.3984    4.2626   -1.5548 H       1  LIG1        0.0639
     24 C          -7.3402    6.0335   -0.2925 C.ar    1  LIG1        0.1230
     25 C          -7.7540    4.6971   -0.1374 C.ar    1  LIG1        0.0342
     26 C          -9.1192    4.4845    0.0614 C.ar    1  LIG1       -0.0479
     27 C          -9.9989    5.5481    0.0595 C.ar    1  LIG1       -0.0349
     28 C          -9.4938    6.8360   -0.1396 C.ar    1  LIG1        0.0751
     29 N          -8.1945    7.0645   -0.3006 N.ar    1  LIG1       -0.2377
     30 H          -9.4623    3.4703    0.2277 H       1  LIG1        0.0626
     31 C          -5.9570    6.4165   -0.4122 C.1     1  LIG1       -0.0491
     32 C          -4.8143    6.7822   -0.5013 C.1     1  LIG1       -0.1124
     33 H          -3.8040    7.1139   -0.5739 H       1  LIG1        0.1232
     34 H         -11.0589    5.3935    0.2251 H       1  LIG1        0.0639
     35 C         -10.1668    9.1991    0.5120 C.ar    1  LIG1        0.1222
     36 C         -10.4051    8.0069   -0.2001 C.ar    1  LIG1        0.0342
     37 C         -11.5545    7.9485   -0.9841 C.ar    1  LIG1       -0.0485
     38 C         -12.3988    9.0442   -1.0591 C.ar    1  LIG1       -0.0429
     39 C         -12.0605   10.1783   -0.3324 C.ar    1  LIG1        0.0290
     40 N         -10.9828   10.2593    0.4395 N.ar    1  LIG1       -0.2460
     41 H         -11.7686    7.0474   -1.5501 H       1  LIG1        0.0625
     42 H         -12.6883   11.0655   -0.3684 H       1  LIG1        0.0830
     43 C          -9.0528    9.3376    1.4099 C.1     1  LIG1       -0.0491
     44 C          -8.1537    9.4799    2.1951 C.1     1  LIG1       -0.1124
     45 H          -7.3450    9.6011    2.8782 H       1  LIG1        0.1232
     46 H         -13.2932    9.0258   -1.6713 H       1  LIG1        0.0633
@<TRIPOS>BOND
     1    46    38    1
     2    23    16    1
     3    41    37    1
     4    19    15    1
     5    38    37   ar
     6    38    39   ar
     7    37    36   ar
     8    16    15   ar
     9    16    17   ar
    10    15    14   ar
    11    11    10    1
    12    10     9    3
    13    33    32    1
    14    32    31    3
    15     9     1    1
    16    31    24    1
    17    42    39    1
    18    39    40   ar
    19    29    24   ar
    20    29    28   ar
    21    24    25   ar
    22     1     6   ar
    23     1     2   ar
    24     6     5   ar
    25    36    28    1
    26    36    35   ar
    27     8     2    1
    28    17    25    1
    29    17    18   ar
    30     2     3   ar
    31    28    27   ar
    32    25    26   ar
    33    14     5    1
    34    14    13   ar
    35     5     4   ar
    36     3     4   ar
    37     3     7    1
    38     4    12    1
    39    27    26   ar
    40    27    34    1
    41    26    30    1
    42    40    35   ar
    43    35    43    1
    44    18    13   ar
    45    13    20    1
    46    43    44    3
    47    20    21    3
    48    44    45    1
    49    21    22    1
