@<TRIPOS>MOLECULE
mol_data/opt/cam/geoms/mol2/6ea6ea-6ea.out
 35 37 0 0 0
SMALL
GASTEIGER

@<TRIPOS>ATOM
      1 C          -4.4453   -2.2000    0.0001 C.ar    1  LIG1        0.1138
      2 C          -3.0515   -2.2985   -0.0006 C.ar    1  LIG1       -0.0278
      3 C          -2.3246   -1.1218   -0.0013 C.ar    1  LIG1       -0.0571
      4 C          -2.9878    0.0972   -0.0012 C.ar    1  LIG1       -0.0355
      5 C          -4.3855    0.1098   -0.0005 C.ar    1  LIG1        0.0750
      6 N          -5.0859   -1.0313    0.0002 N.ar    1  LIG1       -0.2383
      7 H          -1.2399   -1.1467   -0.0019 H       1  LIG1        0.0619
      8 H          -2.5742   -3.2707   -0.0006 H       1  LIG1        0.0645
      9 C          -5.2506   -3.3920    0.0008 C.1     1  LIG1       -0.0498
     10 C          -5.8978   -4.4057    0.0014 C.1     1  LIG1       -0.1124
     11 H          -6.4827   -5.2968    0.0019 H       1  LIG1        0.1232
     12 H          -2.4277    1.0184   -0.0018 H       1  LIG1        0.0639
     13 C          -4.7703    2.6847    0.0000 C.ar    1  LIG1        0.1230
     14 C          -5.2227    1.3486   -0.0004 C.ar    1  LIG1        0.0342
     15 C          -6.6114    1.1927   -0.0007 C.ar    1  LIG1       -0.0479
     16 C          -7.4666    2.2757   -0.0006 C.ar    1  LIG1       -0.0349
     17 C          -6.9256    3.5635   -0.0003 C.ar    1  LIG1        0.0751
     18 N          -5.6027    3.7300    0.0001 N.ar    1  LIG1       -0.2377
     19 H          -7.0042    0.1843   -0.0010 H       1  LIG1        0.0626
     20 C          -3.3884    3.0964    0.0006 C.1     1  LIG1       -0.0491
     21 C          -2.2671    3.5337    0.0011 C.1     1  LIG1       -0.1124
     22 H          -1.2727    3.9180    0.0016 H       1  LIG1        0.1232
     23 H          -8.5330    2.1180   -0.0009 H       1  LIG1        0.0639
     24 C          -9.1222    4.9528   -0.0002 C.ar    1  LIG1        0.1222
     25 C          -7.7157    4.8336   -0.0002 C.ar    1  LIG1        0.0342
     26 C          -6.9955    6.0347   -0.0001 C.ar    1  LIG1       -0.0485
     27 C          -7.6466    7.2514   -0.0001 C.ar    1  LIG1       -0.0429
     28 C          -9.0363    7.2506   -0.0001 C.ar    1  LIG1        0.0290
     29 N          -9.7548    6.1388   -0.0002 N.ar    1  LIG1       -0.2460
     30 H          -5.9150    5.9734   -0.0001 H       1  LIG1        0.0625
     31 H          -9.5965    8.1827   -0.0001 H       1  LIG1        0.0830
     32 C         -10.0475    3.8486   -0.0003 C.1     1  LIG1       -0.0491
     33 C         -10.8940    2.9931   -0.0003 C.1     1  LIG1       -0.1124
     34 H         -11.6415    2.2331   -0.0003 H       1  LIG1        0.1232
     35 H          -7.0926    8.1833   -0.0000 H       1  LIG1        0.0633
@<TRIPOS>BOND
     1     7     3    1
     2    12     4    1
     3     3     4   ar
     4     3     2   ar
     5     4     5   ar
     6    19    15    1
     7    23    16    1
     8    15    16   ar
     9    15    14   ar
    10    16    17   ar
    11     8     2    1
    12     2     1   ar
    13     5    14    1
    14     5     6   ar
    15    14    13   ar
    16    34    33    1
    17    33    32    3
    18    17    25    1
    19    17    18   ar
    20    32    24    1
    21    24    25   ar
    22    24    29   ar
    23    25    26   ar
    24    29    28   ar
    25    26    30    1
    26    26    27   ar
    27    28    31    1
    28    28    27   ar
    29    27    35    1
    30    13    18   ar
    31    13    20    1
    32     1     6   ar
    33     1     9    1
    34    20    21    3
    35     9    10    3
    36    21    22    1
    37    10    11    1
