@<TRIPOS>MOLECULE
mol_data/opt/cam/geoms/mol2/6ea6ea-.out
 24 25 0 0 0
SMALL
GASTEIGER

@<TRIPOS>ATOM
      1 C          -4.5349   -2.0644    0.1280 C.ar    1  LIG1        0.1138
      2 C          -3.2038   -2.1637   -0.2835 C.ar    1  LIG1       -0.0278
      3 C          -2.5506   -1.0033   -0.6648 C.ar    1  LIG1       -0.0571
      4 C          -3.2261    0.2063   -0.6117 C.ar    1  LIG1       -0.0355
      5 C          -4.5506    0.2175   -0.1667 C.ar    1  LIG1        0.0750
      6 N          -5.1919   -0.9018    0.1816 N.ar    1  LIG1       -0.2383
      7 H          -1.5222   -1.0399   -1.0087 H       1  LIG1        0.0619
      8 H          -2.7148   -3.1300   -0.3066 H       1  LIG1        0.0645
      9 C          -5.2571   -3.2466    0.5142 C.1     1  LIG1       -0.0498
     10 C          -5.8361   -4.2524    0.8301 C.1     1  LIG1       -0.1124
     11 H          -6.3602   -5.1357    1.1147 H       1  LIG1        0.1232
     12 H          -2.7417    1.1245   -0.9128 H       1  LIG1        0.0639
     13 C          -4.8821    2.7348    0.2214 C.ar    1  LIG1        0.1222
     14 C          -5.3722    1.4575   -0.1100 C.ar    1  LIG1        0.0342
     15 C          -6.7370    1.3548   -0.3854 C.ar    1  LIG1       -0.0485
     16 C          -7.5362    2.4821   -0.3637 C.ar    1  LIG1       -0.0429
     17 C          -6.9431    3.7011   -0.0537 C.ar    1  LIG1        0.0290
     18 N          -5.6571    3.8304    0.2417 N.ar    1  LIG1       -0.2460
     19 H          -7.1442    0.3759   -0.6087 H       1  LIG1        0.0625
     20 H          -7.5314    4.6154   -0.0340 H       1  LIG1        0.0830
     21 C          -3.5169    2.9690    0.6152 C.1     1  LIG1       -0.0491
     22 C          -2.3896    3.2052    0.9629 C.1     1  LIG1       -0.1124
     23 H          -1.3938    3.4172    1.2785 H       1  LIG1        0.1232
     24 H          -8.5964    2.4240   -0.5827 H       1  LIG1        0.0633
@<TRIPOS>BOND
     1     7     3    1
     2    12     4    1
     3     3     4   ar
     4     3     2   ar
     5     4     5   ar
     6    19    15    1
     7    24    16    1
     8    15    16   ar
     9    15    14   ar
    10    16    17   ar
    11     8     2    1
    12     2     1   ar
    13     5    14    1
    14     5     6   ar
    15    14    13   ar
    16    17    20    1
    17    17    18   ar
    18     1     6   ar
    19     1     9    1
    20    13    18   ar
    21    13    21    1
    22     9    10    3
    23    21    22    3
    24    10    11    1
    25    22    23    1
