@<TRIPOS>MOLECULE
mol_data/opt/cam/geoms/mol2/6ea6ea6ea.out
 35 37 0 0 0
SMALL
GASTEIGER

@<TRIPOS>ATOM
      1 C          -4.0951   -2.0260   -0.6136 C.ar    1  LIG1        0.1138
      2 C          -3.0870   -2.1899    0.3411 C.ar    1  LIG1       -0.0278
      3 C          -2.8969   -1.1852    1.2754 C.ar    1  LIG1       -0.0571
      4 C          -3.7081   -0.0615    1.2282 C.ar    1  LIG1       -0.0355
      5 C          -4.6889    0.0184    0.2362 C.ar    1  LIG1        0.0750
      6 N          -4.8780   -0.9436   -0.6671 N.ar    1  LIG1       -0.2383
      7 H          -2.1297   -1.2795    2.0368 H       1  LIG1        0.0619
      8 H          -2.4805   -3.0874    0.3371 H       1  LIG1        0.0645
      9 C          -4.3190   -3.0494   -1.5986 C.1     1  LIG1       -0.0498
     10 C          -4.4807   -3.9231   -2.4091 C.1     1  LIG1       -0.1124
     11 H          -4.6374   -4.6879   -3.1348 H       1  LIG1        0.1232
     12 H          -3.6022    0.7358    1.9549 H       1  LIG1        0.0639
     13 C          -6.9587    1.1423    0.0197 C.ar    1  LIG1        0.1230
     14 C          -5.5569    1.2198    0.1347 C.ar    1  LIG1        0.0342
     15 C          -4.9929    2.4916    0.1560 C.ar    1  LIG1       -0.0479
     16 C          -5.7978    3.6121    0.0446 C.ar    1  LIG1       -0.0349
     17 C          -7.1752    3.4323   -0.0866 C.ar    1  LIG1        0.0751
     18 N          -7.7356    2.2243   -0.0906 N.ar    1  LIG1       -0.2377
     19 H          -3.9165    2.5977    0.2459 H       1  LIG1        0.0626
     20 C          -7.6528   -0.1159    0.0594 C.1     1  LIG1       -0.0491
     21 C          -8.2663   -1.1477    0.1206 C.1     1  LIG1       -0.1124
     22 H          -8.8038   -2.0671    0.1588 H       1  LIG1        0.1232
     23 H          -5.3733    4.6091    0.0679 H       1  LIG1        0.0639
     24 C          -9.2479    4.7748    0.5108 C.ar    1  LIG1        0.1222
     25 C          -8.0769    4.6011   -0.2526 C.ar    1  LIG1        0.0342
     26 C          -7.7726    5.5836   -1.1912 C.ar    1  LIG1       -0.0485
     27 C          -8.6197    6.6668   -1.3593 C.ar    1  LIG1       -0.0429
     28 C          -9.7584    6.7329   -0.5668 C.ar    1  LIG1        0.0290
     29 N         -10.0671    5.8225    0.3497 N.ar    1  LIG1       -0.2460
     30 H          -6.8811    5.4798   -1.8018 H       1  LIG1        0.0625
     31 H         -10.4563    7.5603   -0.6701 H       1  LIG1        0.0830
     32 C          -9.6143    3.8567    1.5544 C.1     1  LIG1       -0.0491
     33 C          -9.9341    3.1280    2.4555 C.1     1  LIG1       -0.1124
     34 H         -10.2205    2.4666    3.2403 H       1  LIG1        0.1232
     35 H          -8.4102    7.4381   -2.0916 H       1  LIG1        0.0633
@<TRIPOS>BOND
     1    11    10    1
     2    10     9    3
     3    35    27    1
     4    30    26    1
     5     9     1    1
     6    27    26   ar
     7    27    28   ar
     8    26    25   ar
     9    31    28    1
    10     6     1   ar
    11     6     5   ar
    12     1     2   ar
    13    28    29   ar
    14    25    17    1
    15    25    24   ar
    16    18    17   ar
    17    18    13   ar
    18    17    16   ar
    19    13    20    1
    20    13    14   ar
    21    16    23    1
    22    16    15   ar
    23    20    21    3
    24    21    22    1
    25    14    15   ar
    26    14     5    1
    27    15    19    1
    28     5     4   ar
    29     8     2    1
    30     2     3   ar
    31    29    24   ar
    32    24    32    1
    33     4     3   ar
    34     4    12    1
    35     3     7    1
    36    32    33    3
    37    33    34    1
