@<TRIPOS>MOLECULE
mol_data/opt/cam/geoms/mol2/6ea6ea-6ea-6ea-.out
 46 49 0 0 0
SMALL
GASTEIGER

@<TRIPOS>ATOM
      1 C          -4.2866   -2.0884    0.6983 C.ar    1  LIG1        0.1138
      2 C          -3.4507   -2.5471   -0.3229 C.ar    1  LIG1       -0.0278
      3 C          -3.2085   -1.7048   -1.3953 C.ar    1  LIG1       -0.0571
      4 C          -3.7833   -0.4430   -1.4131 C.ar    1  LIG1       -0.0355
      5 C          -4.5890   -0.0566   -0.3391 C.ar    1  LIG1        0.0750
      6 N          -4.8437   -0.8739    0.6872 N.ar    1  LIG1       -0.2383
      7 H          -2.5804   -2.0301   -2.2179 H       1  LIG1        0.0619
      8 H          -3.0207   -3.5396   -0.2659 H       1  LIG1        0.0645
      9 C          -4.5812   -2.9373    1.8209 C.1     1  LIG1       -0.0498
     10 C          -4.8105   -3.6699    2.7469 C.1     1  LIG1       -0.1124
     11 H          -5.0202   -4.3081    3.5744 H       1  LIG1        0.1232
     12 H          -3.6169    0.2289   -2.2432 H       1  LIG1        0.0639
     13 C          -4.7679    2.4684   -0.7874 C.ar    1  LIG1        0.1230
     14 C          -5.2805    1.2595   -0.2800 C.ar    1  LIG1        0.0342
     15 C          -6.5268    1.3219    0.3448 C.ar    1  LIG1       -0.0479
     16 C          -7.2165    2.5159    0.4100 C.ar    1  LIG1       -0.0349
     17 C          -6.6380    3.6554   -0.1557 C.ar    1  LIG1        0.0751
     18 N          -5.4394    3.6253   -0.7294 N.ar    1  LIG1       -0.2377
     19 H          -6.9273    0.4162    0.7844 H       1  LIG1        0.0626
     20 C          -3.4575    2.5772   -1.3746 C.1     1  LIG1       -0.0491
     21 C          -2.3651    2.7145   -1.8592 C.1     1  LIG1       -0.1124
     22 H          -1.3954    2.8431   -2.2828 H       1  LIG1        0.1232
     23 H          -8.1792    2.5762    0.9044 H       1  LIG1        0.0639
     24 C          -6.7561    6.1662    0.2311 C.ar    1  LIG1        0.1230
     25 C          -7.3596    4.9526   -0.1539 C.ar    1  LIG1        0.0342
     26 C          -8.6960    5.0047   -0.5389 C.ar    1  LIG1       -0.0479
     27 C          -9.3699    6.2134   -0.5552 C.ar    1  LIG1       -0.0349
     28 C          -8.6794    7.3657   -0.1779 C.ar    1  LIG1        0.0751
     29 N          -7.4064    7.3338    0.2116 N.ar    1  LIG1       -0.2377
     30 H          -9.2015    4.0927   -0.8401 H       1  LIG1        0.0626
     31 C          -5.4050    6.2213    0.7187 C.1     1  LIG1       -0.0491
     32 C          -4.2906    6.3018    1.1618 C.1     1  LIG1       -0.1124
     33 H          -3.2964    6.3665    1.5398 H       1  LIG1        0.1232
     34 H         -10.4131    6.2670   -0.8444 H       1  LIG1        0.0639
     35 C          -9.2982    9.6043    0.8527 C.ar    1  LIG1        0.1222
     36 C          -9.3449    8.6930   -0.2206 C.ar    1  LIG1        0.0342
     37 C         -10.0560    9.0755   -1.3549 C.ar    1  LIG1       -0.0485
     38 C         -10.6648   10.3190   -1.4042 C.ar    1  LIG1       -0.0429
     39 C         -10.5425   11.1488   -0.2973 C.ar    1  LIG1        0.0290
     40 N          -9.8874   10.8066    0.8062 N.ar    1  LIG1       -0.2460
     41 H         -10.1084    8.4012   -2.2039 H       1  LIG1        0.0625
     42 H         -10.9964   12.1370   -0.2946 H       1  LIG1        0.0830
     43 C          -8.6524    9.2787    2.0949 C.1     1  LIG1       -0.0491
     44 C          -8.1501    9.0280    3.1580 C.1     1  LIG1       -0.1124
     45 H          -7.6861    8.8039    4.0907 H       1  LIG1        0.1232
     46 H         -11.2139   10.6434   -2.2807 H       1  LIG1        0.0633
@<TRIPOS>BOND
     1    22    21    1
     2    46    38    1
     3    12     4    1
     4     7     3    1
     5    41    37    1
     6    21    20    3
     7     4     3   ar
     8     4     5   ar
     9    38    37   ar
    10    38    39   ar
    11     3     2   ar
    12    20    13    1
    13    37    36   ar
    14    34    27    1
    15    30    26    1
    16    13    18   ar
    17    13    14   ar
    18    18    17   ar
    19    27    26   ar
    20    27    28   ar
    21    26    25   ar
    22     5    14    1
    23     5     6   ar
    24     2     8    1
    25     2     1   ar
    26    39    42    1
    27    39    40   ar
    28    14    15   ar
    29    36    28    1
    30    36    35   ar
    31    28    29   ar
    32    17    25    1
    33    17    16   ar
    34    25    24   ar
    35    29    24   ar
    36    24    31    1
    37    15    16   ar
    38    15    19    1
    39    16    23    1
    40     6     1   ar
    41     1     9    1
    42    31    32    3
    43    40    35   ar
    44    35    43    1
    45    32    33    1
    46     9    10    3
    47    43    44    3
    48    10    11    1
    49    44    45    1
