@<TRIPOS>MOLECULE
mol_data/opt/cam/geoms/mol2/6ea6ea-6ea6ea-.out
 46 49 0 0 0
SMALL
GASTEIGER

@<TRIPOS>ATOM
      1 C          -4.3864   -2.2364   -0.2057 C.ar    1  LIG1        0.1138
      2 C          -2.9910   -2.2931   -0.2427 C.ar    1  LIG1       -0.0278
      3 C          -2.2887   -1.0998   -0.2127 C.ar    1  LIG1       -0.0571
      4 C          -2.9840    0.0971   -0.1319 C.ar    1  LIG1       -0.0355
      5 C          -4.3796    0.0612   -0.0766 C.ar    1  LIG1        0.0750
      6 N          -5.0625   -1.0866   -0.1274 N.ar    1  LIG1       -0.2383
      7 H          -1.2047   -1.0995   -0.2591 H       1  LIG1        0.0619
      8 H          -2.4894   -3.2513   -0.3031 H       1  LIG1        0.0645
      9 C          -5.1558   -3.4503   -0.2554 C.1     1  LIG1       -0.0498
     10 C          -5.7725   -4.4819   -0.2997 C.1     1  LIG1       -0.1124
     11 H          -6.3312   -5.3888   -0.3366 H       1  LIG1        0.1232
     12 H          -2.4587    1.0417   -0.1176 H       1  LIG1        0.0639
     13 C          -4.8744    2.4814    0.6352 C.ar    1  LIG1        0.1230
     14 C          -5.2195    1.2878   -0.0245 C.ar    1  LIG1        0.0342
     15 C          -6.4586    1.2686   -0.6658 C.ar    1  LIG1       -0.0479
     16 C          -7.2755    2.3813   -0.6579 C.ar    1  LIG1       -0.0349
     17 C          -6.8427    3.5251    0.0182 C.ar    1  LIG1        0.0751
     18 N          -5.6656    3.5605    0.6425 N.ar    1  LIG1       -0.2377
     19 H          -6.7615    0.3594   -1.1712 H       1  LIG1        0.0626
     20 C          -3.6633    2.6341    1.3996 C.1     1  LIG1       -0.0491
     21 C          -2.6708    2.8011    2.0587 C.1     1  LIG1       -0.1124
     22 H          -1.7968    2.9479    2.6510 H       1  LIG1        0.1232
     23 H          -8.2266    2.3695   -1.1713 H       1  LIG1        0.0639
     24 C          -9.0182    4.8883    0.0722 C.ar    1  LIG1        0.1230
     25 C          -7.6145    4.7947    0.0493 C.ar    1  LIG1        0.0342
     26 C          -6.9110    5.9991    0.0887 C.ar    1  LIG1       -0.0479
     27 C          -7.5793    7.2070    0.0910 C.ar    1  LIG1       -0.0349
     28 C          -8.9761    7.1993    0.0570 C.ar    1  LIG1        0.0751
     29 N          -9.6659    6.0592    0.0738 N.ar    1  LIG1       -0.2377
     30 H          -5.8290    5.9601    0.1280 H       1  LIG1        0.0626
     31 C          -9.8777    3.7356    0.1495 C.1     1  LIG1       -0.0491
     32 C         -10.6280    2.7988    0.2308 C.1     1  LIG1       -0.1124
     33 H         -11.2909    1.9675    0.3078 H       1  LIG1        0.1232
     34 H          -7.0328    8.1391    0.1224 H       1  LIG1        0.0639
     35 C          -9.4465    9.6479   -0.5503 C.ar    1  LIG1        0.1222
     36 C          -9.7988    8.4382    0.0775 C.ar    1  LIG1        0.0342
     37 C         -11.0220    8.4058    0.7500 C.ar    1  LIG1       -0.0485
     38 C         -11.8102    9.5393    0.8107 C.ar    1  LIG1       -0.0429
     39 C         -11.3527   10.6914    0.1803 C.ar    1  LIG1        0.0290
     40 N         -10.2110   10.7494   -0.4913 N.ar    1  LIG1       -0.2460
     41 H         -11.3296    7.4755    1.2124 H       1  LIG1        0.0625
     42 H         -11.9356   11.6089    0.2104 H       1  LIG1        0.0830
     43 C          -8.2590    9.7929   -1.3516 C.1     1  LIG1       -0.0491
     44 C          -7.2854    9.9510   -2.0405 C.1     1  LIG1       -0.1124
     45 H          -6.4265   10.0918   -2.6557 H       1  LIG1        0.1232
     46 H         -12.7590    9.5369    1.3352 H       1  LIG1        0.0633
@<TRIPOS>BOND
     1    45    44    1
     2    44    43    3
     3    43    35    1
     4    23    16    1
     5    19    15    1
     6    15    16   ar
     7    15    14   ar
     8    16    17   ar
     9    35    40   ar
    10    35    36   ar
    11    40    39   ar
    12    11    10    1
    13     8     2    1
    14    10     9    3
    15     7     3    1
    16     9     1    1
    17     2     3   ar
    18     2     1   ar
    19     3     4   ar
    20     1     6   ar
    21     4    12    1
    22     4     5   ar
    23     6     5   ar
    24     5    14    1
    25    14    13   ar
    26    17    25    1
    27    17    18   ar
    28    25    24   ar
    29    25    26   ar
    30    28    29   ar
    31    28    36    1
    32    28    27   ar
    33    24    29   ar
    34    24    31    1
    35    36    37   ar
    36    26    27   ar
    37    26    30    1
    38    27    34    1
    39    31    32    3
    40    39    42    1
    41    39    38   ar
    42    32    33    1
    43    13    18   ar
    44    13    20    1
    45    37    38   ar
    46    37    41    1
    47    38    46    1
    48    20    21    3
    49    21    22    1
