@<TRIPOS>MOLECULE
mol_data/opt/cam/geoms/mol2/6ea6ea-4ea6ea.out
 47 50 0 0 0
SMALL
GASTEIGER

@<TRIPOS>ATOM
      1 C          -4.4687   -2.2434   -0.1638 C.ar    1  LIG1        0.1138
      2 C          -3.1119   -2.3699    0.1433 C.ar    1  LIG1       -0.0278
      3 C          -2.3992   -1.2185    0.4344 C.ar    1  LIG1       -0.0571
      4 C          -3.0436    0.0085    0.3967 C.ar    1  LIG1       -0.0355
      5 C          -4.3988    0.0460    0.0582 C.ar    1  LIG1        0.0750
      6 N          -5.0960   -1.0641   -0.2022 N.ar    1  LIG1       -0.2383
      7 H          -1.3479   -1.2752    0.6966 H       1  LIG1        0.0619
      8 H          -2.6490   -3.3490    0.1583 H       1  LIG1        0.0645
      9 C          -5.2514   -3.4147   -0.4531 C.1     1  LIG1       -0.0498
     10 C          -5.8808   -4.4119   -0.6899 C.1     1  LIG1       -0.1124
     11 H          -6.4498   -5.2875   -0.9033 H       1  LIG1        0.1232
     12 H          -2.5119    0.9203    0.6296 H       1  LIG1        0.0639
     13 C          -4.6952    2.5622   -0.3744 C.ar    1  LIG1        0.1230
     14 C          -5.1886    1.3061    0.0247 C.ar    1  LIG1        0.0342
     15 C          -6.5326    1.2525    0.3974 C.ar    1  LIG1       -0.0479
     16 C          -7.3028    2.3977    0.3992 C.ar    1  LIG1       -0.0350
     17 C          -6.7140    3.6047    0.0105 C.ar    1  LIG1        0.0736
     18 N          -5.4432    3.6726   -0.3754 N.ar    1  LIG1       -0.2377
     19 H          -6.9493    0.2947    0.6853 H       1  LIG1        0.0626
     20 C          -3.3562    2.7535   -0.8693 C.1     1  LIG1       -0.0491
     21 C          -2.2512    2.9518   -1.3018 C.1     1  LIG1       -0.1124
     22 H          -1.2762    3.1310   -1.6935 H       1  LIG1        0.1232
     23 H          -8.3391    2.3702    0.7149 H       1  LIG1        0.0639
     24 C          -7.0067    6.0737    0.4982 C.ar    1  LIG1        0.0344
     25 C          -7.8001    7.2228    0.4276 C.ar    1  LIG1       -0.0379
     26 C          -7.5041    4.8621   -0.0169 C.ar    1  LIG1        0.0158
     27 C          -9.0737    7.2053   -0.1361 C.ar    1  LIG1       -0.0140
     28 H          -7.4100    8.1429    0.8483 H       1  LIG1        0.0636
     29 C          -8.7838    4.8511   -0.5713 C.ar    1  LIG1       -0.0508
     30 C          -9.5606    5.9965   -0.6358 C.ar    1  LIG1       -0.0533
     31 H          -9.1660    3.9260   -0.9901 H       1  LIG1        0.0625
     32 C          -5.7335    6.1792    1.1476 C.1     1  LIG1       -0.0690
     33 C          -4.6951    6.3414    1.7336 C.1     1  LIG1       -0.1139
     34 H          -3.7614    6.4590    2.2329 H       1  LIG1        0.1232
     35 H         -10.5432    5.9560   -1.0901 H       1  LIG1        0.0624
     36 C         -11.2012    8.5753    0.1620 C.ar    1  LIG1        0.1208
     37 C          -9.8531    8.4642   -0.2325 C.ar    1  LIG1        0.0160
     38 C          -9.2450    9.6183   -0.7275 C.ar    1  LIG1       -0.0499
     39 C          -9.9638   10.7974   -0.8245 C.ar    1  LIG1       -0.0429
     40 C         -11.2932   10.7898   -0.4199 C.ar    1  LIG1        0.0290
     41 N         -11.9012    9.7142    0.0644 N.ar    1  LIG1       -0.2461
     42 H          -8.2101    9.5743   -1.0507 H       1  LIG1        0.0625
     43 H         -11.8978   11.6910   -0.4863 H       1  LIG1        0.0830
     44 C         -11.9151    7.4645    0.7347 C.1     1  LIG1       -0.0492
     45 C         -12.5307    6.5548    1.2250 C.1     1  LIG1       -0.1124
     46 H         -13.0780    5.7522    1.6635 H       1  LIG1        0.1232
     47 H          -9.5099   11.7021   -1.2128 H       1  LIG1        0.0633
@<TRIPOS>BOND
     1    22    21    1
     2    21    20    3
     3    47    39    1
     4    35    30    1
     5    42    38    1
     6    31    29    1
     7    11    10    1
     8    20    13    1
     9    39    38   ar
    10    39    40   ar
    11    38    37   ar
    12    10     9    3
    13    30    29   ar
    14    30    27   ar
    15    29    26   ar
    16    43    40    1
    17     9     1    1
    18    40    41   ar
    19    18    13   ar
    20    18    17   ar
    21    13    14   ar
    22    37    27    1
    23    37    36   ar
    24     6     1   ar
    25     6     5   ar
    26     1     2   ar
    27    27    25   ar
    28    26    17    1
    29    26    24   ar
    30    17    16   ar
    31    14     5    1
    32    14    15   ar
    33     5     4   ar
    34    41    36   ar
    35     2     8    1
    36     2     3   ar
    37    36    44    1
    38     4     3   ar
    39     4    12    1
    40    15    16   ar
    41    15    19    1
    42    16    23    1
    43    25    24   ar
    44    25    28    1
    45     3     7    1
    46    24    32    1
    47    44    45    3
    48    32    33    3
    49    45    46    1
    50    33    34    1
