@<TRIPOS>MOLECULE
mol_data/opt/cam/geoms/mol2/6ea6ea6ea-6ea.out
 46 49 0 0 0
SMALL
GASTEIGER

@<TRIPOS>ATOM
      1 C          -4.4352   -2.3037   -0.3193 C.ar    1  LIG1        0.1138
      2 C          -3.0479   -2.3164   -0.1470 C.ar    1  LIG1       -0.0278
      3 C          -2.4034   -1.1126    0.0859 C.ar    1  LIG1       -0.0571
      4 C          -3.1538    0.0523    0.1386 C.ar    1  LIG1       -0.0355
      5 C          -4.5363   -0.0296   -0.0481 C.ar    1  LIG1        0.0750
      6 N          -5.1641   -1.1839   -0.2736 N.ar    1  LIG1       -0.2383
      7 H          -1.3287   -1.0829    0.2321 H       1  LIG1        0.0619
      8 H          -2.5064   -3.2533   -0.1957 H       1  LIG1        0.0645
      9 C          -5.1357   -3.5354   -0.5637 C.1     1  LIG1       -0.0498
     10 C          -5.6916   -4.5823   -0.7672 C.1     1  LIG1       -0.1124
     11 H          -6.1994   -5.5016   -0.9490 H       1  LIG1        0.1232
     12 H          -2.6870    1.0099    0.3383 H       1  LIG1        0.0639
     13 C          -6.5679    1.3025    0.7019 C.ar    1  LIG1        0.1230
     14 C          -5.3688    1.2001   -0.0285 C.ar    1  LIG1        0.0342
     15 C          -4.9808    2.3193   -0.7586 C.ar    1  LIG1       -0.0479
     16 C          -5.7556    3.4659   -0.7572 C.ar    1  LIG1       -0.0349
     17 C          -6.9280    3.4753   -0.0006 C.ar    1  LIG1        0.0751
     18 N          -7.3156    2.4094    0.7039 N.ar    1  LIG1       -0.2377
     19 H          -4.0760    2.2780   -1.3566 H       1  LIG1        0.0626
     20 C          -7.0462    0.2342    1.5367 C.1     1  LIG1       -0.0491
     21 C          -7.4631   -0.6225    2.2697 C.1     1  LIG1       -0.1124
     22 H          -7.8312   -1.3948    2.9051 H       1  LIG1        0.1232
     23 H          -5.4660    4.3282   -1.3408 H       1  LIG1        0.0639
     24 C          -7.4843    5.9826   -0.0398 C.ar    1  LIG1        0.1230
     25 C          -7.8632    4.6301    0.0356 C.ar    1  LIG1        0.0342
     26 C          -9.2271    4.3745    0.1842 C.ar    1  LIG1       -0.0479
     27 C         -10.1412    5.4088    0.1956 C.ar    1  LIG1       -0.0349
     28 C          -9.6730    6.7182    0.0590 C.ar    1  LIG1        0.0751
     29 N          -8.3704    6.9852   -0.0293 N.ar    1  LIG1       -0.2377
     30 H          -9.5463    3.3457    0.3005 H       1  LIG1        0.0626
     31 C          -6.1097    6.4105   -0.0823 C.1     1  LIG1       -0.0491
     32 C          -4.9757    6.8121   -0.1033 C.1     1  LIG1       -0.1124
     33 H          -3.9722    7.1711   -0.1169 H       1  LIG1        0.1232
     34 H         -11.1973    5.2092    0.3115 H       1  LIG1        0.0639
     35 C         -11.8621    7.9493   -0.4669 C.ar    1  LIG1        0.1222
     36 C         -10.5645    7.9086    0.0776 C.ar    1  LIG1        0.0342
     37 C         -10.0830    9.0838    0.6574 C.ar    1  LIG1       -0.0485
     38 C         -10.8843   10.2085    0.7130 C.ar    1  LIG1       -0.0429
     39 C         -12.1627   10.1308    0.1709 C.ar    1  LIG1        0.0290
     40 N         -12.6411    9.0408   -0.4129 N.ar    1  LIG1       -0.2460
     41 H          -9.0743    9.0859    1.0531 H       1  LIG1        0.0625
     42 H         -12.8308   10.9883    0.2008 H       1  LIG1        0.0830
     43 C         -12.4458    6.8381   -1.1723 C.1     1  LIG1       -0.0491
     44 C         -12.9626    5.9380   -1.7807 C.1     1  LIG1       -0.1124
     45 H         -13.4198    5.1432   -2.3242 H       1  LIG1        0.1232
     46 H         -10.5322   11.1279    1.1668 H       1  LIG1        0.0633
@<TRIPOS>BOND
     1    45    44    1
     2    44    43    3
     3    19    15    1
     4    23    16    1
     5    43    35    1
     6    11    10    1
     7    10     9    3
     8    15    16   ar
     9    15    14   ar
    10    16    17   ar
    11     9     1    1
    12    35    40   ar
    13    35    36   ar
    14    40    39   ar
    15     1     6   ar
    16     1     2   ar
    17     6     5   ar
    18     8     2    1
    19     2     3   ar
    20    33    32    1
    21    32    31    3
    22    31    24    1
    23     5    14    1
    24     5     4   ar
    25    24    29   ar
    26    24    25   ar
    27    29    28   ar
    28    14    13   ar
    29    17    25    1
    30    17    18   ar
    31    25    26   ar
    32    28    36    1
    33    28    27   ar
    34    36    37   ar
    35     3     4   ar
    36     3     7    1
    37     4    12    1
    38    39    42    1
    39    39    38   ar
    40    26    27   ar
    41    26    30    1
    42    27    34    1
    43    37    38   ar
    44    37    41    1
    45    13    18   ar
    46    13    20    1
    47    38    46    1
    48    20    21    3
    49    21    22    1
