@<TRIPOS>MOLECULE
mol_data/opt/cam/geoms/mol2/6ea6ea.out
 24 25 0 0 0
SMALL
GASTEIGER

@<TRIPOS>ATOM
      1 C          -4.4069   -2.0663   -0.3590 C.ar    1  LIG1        0.1138
      2 C          -3.1396   -2.0889    0.2305 C.ar    1  LIG1       -0.0278
      3 C          -2.6365   -0.9087    0.7528 C.ar    1  LIG1       -0.0571
      4 C          -3.4042    0.2432    0.6709 C.ar    1  LIG1       -0.0355
      5 C          -4.6596    0.1729    0.0613 C.ar    1  LIG1        0.0750
      6 N          -5.1506   -0.9585   -0.4446 N.ar    1  LIG1       -0.2383
      7 H          -1.6598   -0.8879    1.2249 H       1  LIG1        0.0619
      8 H          -2.5795   -3.0152    0.2710 H       1  LIG1        0.0645
      9 C          -4.9588   -3.2736   -0.9120 C.1     1  LIG1       -0.0498
     10 C          -5.3919   -4.2996   -1.3659 C.1     1  LIG1       -0.1124
     11 H          -5.7908   -5.2000   -1.7736 H       1  LIG1        0.1232
     12 H          -3.0524    1.1810    1.0854 H       1  LIG1        0.0639
     13 C          -6.8558    1.4278    0.3008 C.ar    1  LIG1        0.1222
     14 C          -5.4978    1.3932   -0.0712 C.ar    1  LIG1        0.0342
     15 C          -4.9421    2.5656   -0.5764 C.ar    1  LIG1       -0.0485
     16 C          -5.7260    3.6995   -0.7159 C.ar    1  LIG1       -0.0429
     17 C          -7.0594    3.6209   -0.3351 C.ar    1  LIG1        0.0290
     18 N          -7.6145    2.5239    0.1670 N.ar    1  LIG1       -0.2460
     19 H          -3.8994    2.5747   -0.8781 H       1  LIG1        0.0625
     20 H          -7.7141    4.4834   -0.4345 H       1  LIG1        0.0830
     21 C          -7.5057    0.2935    0.8985 C.1     1  LIG1       -0.0491
     22 C          -8.0715   -0.6245    1.4301 C.1     1  LIG1       -0.1124
     23 H          -8.5709   -1.4483    1.8854 H       1  LIG1        0.1232
     24 H          -5.3189    4.6205   -1.1172 H       1  LIG1        0.0633
@<TRIPOS>BOND
     1    11    10    1
     2    10     9    3
     3    24    16    1
     4     9     1    1
     5    19    15    1
     6    16    15   ar
     7    16    17   ar
     8    15    14   ar
     9     6     1   ar
    10     6     5   ar
    11    20    17    1
    12     1     2   ar
    13    17    18   ar
    14    14     5    1
    15    14    13   ar
    16     5     4   ar
    17    18    13   ar
    18     2     8    1
    19     2     3   ar
    20    13    21    1
    21     4     3   ar
    22     4    12    1
    23     3     7    1
    24    21    22    3
    25    22    23    1
