@<TRIPOS>MOLECULE
mol_data/opt/cam/geoms/mol2/6ea6ea6ea6ea-.out
 46 49 0 0 0
SMALL
GASTEIGER

@<TRIPOS>ATOM
      1 C          -4.0483   -2.0840   -0.7652 C.ar    1  LIG1        0.1138
      2 C          -3.0287   -2.3001    0.1666 C.ar    1  LIG1       -0.0278
      3 C          -2.8300   -1.3510    1.1557 C.ar    1  LIG1       -0.0571
      4 C          -3.6446   -0.2291    1.1837 C.ar    1  LIG1       -0.0355
      5 C          -4.6372   -0.0947    0.2096 C.ar    1  LIG1        0.0750
      6 N          -4.8345   -1.0029   -0.7462 N.ar    1  LIG1       -0.2383
      7 H          -2.0537   -1.4873    1.9014 H       1  LIG1        0.0619
      8 H          -2.4201   -3.1939    0.1031 H       1  LIG1        0.0645
      9 C          -4.2813   -3.0489   -1.8056 C.1     1  LIG1       -0.0498
     10 C          -4.4505   -3.8744   -2.6636 C.1     1  LIG1       -0.1124
     11 H          -4.6137   -4.5959   -3.4311 H       1  LIG1        0.1232
     12 H          -3.5319    0.5249    1.9543 H       1  LIG1        0.0639
     13 C          -6.9122    1.0323    0.0801 C.ar    1  LIG1        0.1230
     14 C          -5.5097    1.1075    0.1890 C.ar    1  LIG1        0.0342
     15 C          -4.9496    2.3777    0.2854 C.ar    1  LIG1       -0.0479
     16 C          -5.7585    3.5002    0.2507 C.ar    1  LIG1       -0.0349
     17 C          -7.1365    3.3239    0.1191 C.ar    1  LIG1        0.0751
     18 N          -7.6930    2.1163    0.0434 N.ar    1  LIG1       -0.2377
     19 H          -3.8729    2.4818    0.3736 H       1  LIG1        0.0626
     20 C          -7.6029   -0.2279    0.0463 C.1     1  LIG1       -0.0491
     21 C          -8.2142   -1.2629    0.0475 C.1     1  LIG1       -0.1124
     22 H          -8.7487   -2.1846    0.0320 H       1  LIG1        0.1232
     23 H          -5.3367    4.4951    0.3338 H       1  LIG1        0.0639
     24 C          -9.2275    4.6068    0.7862 C.ar    1  LIG1        0.1230
     25 C          -8.0422    4.4968    0.0348 C.ar    1  LIG1        0.0342
     26 C          -7.7399    5.5528   -0.8197 C.ar    1  LIG1       -0.0479
     27 C          -8.5822    6.6466   -0.9143 C.ar    1  LIG1       -0.0349
     28 C          -9.7338    6.6696   -0.1269 C.ar    1  LIG1        0.0751
     29 N         -10.0397    5.6637    0.6958 N.ar    1  LIG1       -0.2377
     30 H          -6.8493    5.4997   -1.4378 H       1  LIG1        0.0626
     31 C          -9.6211    3.6071    1.7414 C.1     1  LIG1       -0.0491
     32 C          -9.9690    2.8101    2.5714 C.1     1  LIG1       -0.1124
     33 H         -10.2755    2.0877    3.2923 H       1  LIG1        0.1232
     34 H          -8.3594    7.4575   -1.5932 H       1  LIG1        0.0639
     35 C         -10.4379    9.1247   -0.4030 C.ar    1  LIG1        0.1222
     36 C         -10.7369    7.7671   -0.1815 C.ar    1  LIG1        0.0342
     37 C         -12.0792    7.4391    0.0197 C.ar    1  LIG1       -0.0485
     38 C         -13.0499    8.4209   -0.0398 C.ar    1  LIG1       -0.0429
     39 C         -12.6474    9.7275   -0.2941 C.ar    1  LIG1        0.0290
     40 N         -11.3800   10.0789   -0.4616 N.ar    1  LIG1       -0.2460
     41 H         -12.3300    6.4054    0.2259 H       1  LIG1        0.0625
     42 H         -13.3777   10.5307   -0.3586 H       1  LIG1        0.0830
     43 C          -9.0912    9.6169   -0.5370 C.1     1  LIG1       -0.0491
     44 C          -7.9825   10.0730   -0.6402 C.1     1  LIG1       -0.1124
     45 H          -7.0025   10.4831   -0.7256 H       1  LIG1        0.1232
     46 H         -14.0979    8.1846    0.1057 H       1  LIG1        0.0633
@<TRIPOS>BOND
     1    11    10    1
     2    10     9    3
     3     9     1    1
     4    34    27    1
     5    30    26    1
     6    27    26   ar
     7    27    28   ar
     8    26    25   ar
     9     1     6   ar
    10     1     2   ar
    11     6     5   ar
    12    45    44    1
    13    44    43    3
    14    43    35    1
    15    40    35   ar
    16    40    39   ar
    17    35    36   ar
    18    42    39    1
    19    39    38   ar
    20    36    28    1
    21    36    37   ar
    22    28    29   ar
    23    38    37   ar
    24    38    46    1
    25    37    41    1
    26    22    21    1
    27    25    17    1
    28    25    24   ar
    29    18    13   ar
    30    18    17   ar
    31    20    21    3
    32    20    13    1
    33    13    14   ar
    34     8     2    1
    35    17    16   ar
    36     2     3   ar
    37    14     5    1
    38    14    15   ar
    39     5     4   ar
    40    16    15   ar
    41    16    23    1
    42    15    19    1
    43    29    24   ar
    44    24    31    1
    45     3     4   ar
    46     3     7    1
    47     4    12    1
    48    31    32    3
    49    32    33    1
