@<TRIPOS>MOLECULE
mol_data/opt/cam/geoms/mol2/6ed13ie-13dd-6ie-.out
 51 54 0 0 0
SMALL
GASTEIGER

@<TRIPOS>ATOM
      1 C          -4.6611   -2.0411   -0.8249 C.ar    1  LIG1        0.1139
      2 C          -3.3018   -2.1786   -1.1270 C.ar    1  LIG1       -0.0266
      3 C          -2.5451   -1.0304   -1.2314 C.ar    1  LIG1       -0.0396
      4 C          -3.1350    0.2149   -0.9961 C.ar    1  LIG1        0.0792
      5 C          -4.4874    0.2564   -0.5979 C.ar    1  LIG1        0.1061
      6 N          -5.2257   -0.8619   -0.5607 N.ar    1  LIG1       -0.2357
      7 H          -1.5018   -1.0764   -1.5227 H       1  LIG1        0.0632
      8 H          -2.8777   -3.1582   -1.3058 H       1  LIG1        0.0646
      9 C          -5.5099   -3.1981   -0.7867 C.1     1  LIG1       -0.0498
     10 C          -6.1988   -4.1836   -0.7635 C.1     1  LIG1       -0.1124
     11 H          -6.8155   -5.0534   -0.7402 H       1  LIG1        0.1232
     12 N          -1.7116    2.2977   -1.5647 N.1     1  LIG1       -0.1908
     13 C          -2.3664    1.3875   -1.2802 C.1     1  LIG1        0.1014
     14 C          -5.2248    1.4687   -0.2483 C.ar    1  LIG1        0.0709
     15 C          -4.9057    2.6823    0.3445 C.ar    1  LIG1       -0.0076
     16 C          -6.1279    3.4093    0.4595 C.ar    1  LIG1        0.0549
     17 C          -7.1482    2.6143   -0.0513 C.ar    1  LIG1        0.0805
     18 N          -6.5847    1.4435   -0.4520 N.ar    1  LIG1       -0.3506
     19 H          -7.0423    0.6601   -0.8928 H       1  LIG1        0.1660
     20 C          -3.6052    3.1679    0.8978 C.3     1  LIG1       -0.0365
     21 H          -3.7972    3.8204    1.7522 H       1  LIG1        0.0279
     22 H          -3.0349    3.7394    0.1616 H       1  LIG1        0.0279
     23 H          -2.9719    2.3435    1.2311 H       1  LIG1        0.0279
     24 C          -6.2800    4.6831    1.0682 C.1     1  LIG1       -0.0672
     25 C          -6.3959    5.7600    1.5934 C.1     1  LIG1       -0.1138
     26 H          -6.5108    6.7254    2.0301 H       1  LIG1        0.1232
     27 C          -8.5795    2.8303   -0.1244 C.ar    1  LIG1        0.0834
     28 C          -9.3346    3.9200   -0.5155 C.ar    1  LIG1        0.0964
     29 C         -10.7124    3.5484   -0.3915 C.ar    1  LIG1        0.0950
     30 C         -10.7608    2.2434    0.0674 C.ar    1  LIG1        0.0676
     31 N          -9.4631    1.8368    0.2133 N.ar    1  LIG1       -0.3509
     32 H          -9.1871    0.9459    0.5959 H       1  LIG1        0.1660
     33 N          -8.4789    6.1714   -1.4315 N.1     1  LIG1       -0.1908
     34 C          -8.8498    5.1599   -1.0106 C.1     1  LIG1        0.1026
     35 N         -12.7519    5.0321   -0.9242 N.1     1  LIG1       -0.1908
     36 C         -11.8332    4.3719   -0.6815 C.1     1  LIG1        0.1026
     37 C         -11.9992    0.5529    1.4819 C.ar    1  LIG1        0.0474
     38 C         -11.9143    1.3749    0.3413 C.ar    1  LIG1        0.0218
     39 C         -12.9799    1.3698   -0.5569 C.ar    1  LIG1       -0.0340
     40 C         -14.0825    0.5523   -0.3228 C.ar    1  LIG1        0.0434
     41 C         -14.0540   -0.2441    0.8259 C.ar    1  LIG1        0.0433
     42 N         -13.0532   -0.2385    1.6953 N.ar    1  LIG1       -0.2583
     43 H         -12.9547    1.9964   -1.4407 H       1  LIG1        0.0637
     44 H         -14.8877   -0.9060    1.0444 H       1  LIG1        0.0842
     45 C         -10.9398    0.5101    2.5516 C.3     1  LIG1       -0.0217
     46 H         -10.4729    1.4834    2.7152 H       1  LIG1        0.0293
     47 H         -10.1516   -0.2140    2.3109 H       1  LIG1        0.0293
     48 H         -11.4006    0.1720    3.4792 H       1  LIG1        0.0293
     49 C         -15.1945    0.5129   -1.2193 C.1     1  LIG1       -0.0681
     50 C         -16.1323    0.4752   -1.9718 C.1     1  LIG1       -0.1139
     51 H         -16.9640    0.4491   -2.6382 H       1  LIG1        0.1232
@<TRIPOS>BOND
     1    51    50    1
     2    50    49    3
     3    12    13    3
     4     7     3    1
     5    43    39    1
     6    33    34    3
     7     8     2    1
     8    13     4    1
     9     3     2   ar
    10     3     4   ar
    11    49    40    1
    12     2     1   ar
    13    34    28    1
    14     4     5   ar
    15    35    36    3
    16    19    18    1
    17     1     9    1
    18     1     6   ar
    19     9    10    3
    20    10    11    1
    21    36    29    1
    22     5     6   ar
    23     5    14    1
    24    39    40   ar
    25    39    38   ar
    26    28    29   ar
    27    28    27   ar
    28    18    14   ar
    29    18    17   ar
    30    29    30   ar
    31    40    41   ar
    32    14    15   ar
    33    27    17    1
    34    27    31   ar
    35    17    16   ar
    36    30    31   ar
    37    30    38    1
    38    22    20    1
    39    31    32    1
    40    38    37   ar
    41    15    16   ar
    42    15    20    1
    43    16    24    1
    44    41    44    1
    45    41    42   ar
    46    20    23    1
    47    20    21    1
    48    24    25    3
    49    37    42   ar
    50    37    45    1
    51    25    26    1
    52    47    45    1
    53    45    46    1
    54    45    48    1
