@<TRIPOS>MOLECULE
mol_data/opt/cam/geoms/mol2/6ed12id12ai-6fh-.out
 47 50 0 0 0
SMALL
GASTEIGER

@<TRIPOS>ATOM
      1 C          -4.0332   -1.9615    0.5562 C.ar    1  LIG1        0.1140
      2 C          -2.8104   -2.0168   -0.1260 C.ar    1  LIG1       -0.0266
      3 C          -2.4146   -0.9120   -0.8494 C.ar    1  LIG1       -0.0395
      4 C          -3.2305    0.2229   -0.8656 C.ar    1  LIG1        0.0808
      5 C          -4.4149    0.2091   -0.1039 C.ar    1  LIG1        0.1249
      6 N          -4.8039   -0.8721    0.5724 N.ar    1  LIG1       -0.2340
      7 H          -1.4941   -0.9188   -1.4220 H       1  LIG1        0.0632
      8 H          -2.2102   -2.9172   -0.0928 H       1  LIG1        0.0646
      9 C          -4.5000   -3.1061    1.2838 C.1     1  LIG1       -0.0498
     10 C          -4.8720   -4.0794    1.8837 C.1     1  LIG1       -0.1124
     11 H          -5.2222   -4.9333    2.4181 H       1  LIG1        0.1232
     12 N          -2.5718    2.1970   -2.4038 N.1     1  LIG1       -0.1908
     13 C          -2.8762    1.3264   -1.7053 C.1     1  LIG1        0.1014
     14 C          -5.3082    1.3664   -0.0124 C.ar    1  LIG1        0.1594
     15 C          -5.1234    2.7046    0.1811 C.ar    1  LIG1        0.0150
     16 C          -6.4470    3.2558    0.2648 C.ar    1  LIG1        0.1040
     17 C          -7.3288    2.2098    0.1256 C.ar    1  LIG1        0.1882
     18 O          -6.6468    1.0679   -0.0345 O.2     1  LIG1       -0.4485
     19 C          -3.8618    3.4852    0.3477 C.3     1  LIG1       -0.0348
     20 H          -4.0109    4.2860    1.0754 H       1  LIG1        0.0279
     21 H          -3.5473    3.9374   -0.5964 H       1  LIG1        0.0279
     22 H          -3.0442    2.8528    0.6973 H       1  LIG1        0.0279
     23 N          -7.0984    5.7159    0.6628 N.1     1  LIG1       -0.1907
     24 C          -6.7953    4.6129    0.4812 C.1     1  LIG1        0.1034
     25 C          -8.7610    2.1436    0.1294 C.ar    1  LIG1        0.1721
     26 C          -9.7409    3.0732    0.3030 C.ar    1  LIG1       -0.0092
     27 C         -10.9876    2.3865    0.2325 C.ar    1  LIG1       -0.0038
     28 C         -10.6834    1.0677    0.0039 C.ar    1  LIG1        0.1439
     29 O          -9.3238    0.9184   -0.0585 O.2     1  LIG1       -0.4513
     30 H          -9.5928    4.1288    0.4794 H       1  LIG1        0.0659
     31 C         -12.3322    3.0162    0.4210 C.3     1  LIG1       -0.0361
     32 H         -13.0257    2.3368    0.9213 H       1  LIG1        0.0279
     33 H         -12.7831    3.3125   -0.5320 H       1  LIG1        0.0279
     34 H         -12.2448    3.9176    1.0311 H       1  LIG1        0.0279
     35 C         -10.9926   -1.4310    0.1709 C.ar    1  LIG1        0.2233
     36 C         -11.4794   -0.1427   -0.1583 C.ar    1  LIG1        0.0805
     37 C         -12.7919   -0.0563   -0.6255 C.ar    1  LIG1       -0.0238
     38 C         -13.5910   -1.1900   -0.7224 C.ar    1  LIG1        0.0438
     39 C         -13.0061   -2.3949   -0.3322 C.ar    1  LIG1        0.0520
     40 N         -11.7534   -2.5082    0.0886 N.ar    1  LIG1       -0.2190
     41 H         -13.1897    0.9061   -0.9274 H       1  LIG1        0.0645
     42 H         -13.5860   -3.3163   -0.3726 H       1  LIG1        0.0849
     43 O          -9.7378   -1.6679    0.6009 O.3     1  LIG1       -0.4919
     44 H          -9.1904   -0.8770    0.4993 H       1  LIG1        0.2937
     45 N         -14.9250   -1.1240   -1.1350 N.pl3   1  LIG1       -0.3568
     46 H         -15.1288   -0.3694   -1.7748 H       1  LIG1        0.1424
     47 H         -15.2934   -1.9990   -1.4804 H       1  LIG1        0.1424
@<TRIPOS>BOND
     1    12    13    3
     2    46    45    1
     3    13     4    1
     4    47    45    1
     5     7     3    1
     6    45    38    1
     7    41    37    1
     8     4     3   ar
     9     4     5   ar
    10     3     2   ar
    11    38    37   ar
    12    38    39   ar
    13    37    36   ar
    14    21    19    1
    15    33    31    1
    16    42    39    1
    17    39    40   ar
    18    36    28    1
    19    36    35   ar
    20     2     8    1
    21     2     1   ar
    22     5    14    1
    23     5     6   ar
    24    29    28   ar
    25    29    25   ar
    26    18    14   ar
    27    18    17   ar
    28    14    15   ar
    29    28    27   ar
    30    40    35   ar
    31    17    25    1
    32    17    16   ar
    33    25    26   ar
    34    35    43    1
    35    15    16   ar
    36    15    19    1
    37    27    26   ar
    38    27    31    1
    39    16    24    1
    40    26    30    1
    41    19    22    1
    42    19    20    1
    43    31    32    1
    44    31    34    1
    45    24    23    3
    46    44    43    1
    47     1     6   ar
    48     1     9    1
    49     9    10    3
    50    10    11    1
