@<TRIPOS>MOLECULE
mol_data/opt/cam/geoms/mol2/6ed6ed6ed6ed.out
 50 53 0 0 0
SMALL
GASTEIGER

@<TRIPOS>ATOM
      1 C          -3.7171   -1.7006   -1.3663 C.ar    1  LIG1        0.1139
      2 C          -3.0669   -2.3244   -0.2954 C.ar    1  LIG1       -0.0266
      3 C          -3.2408   -1.8072    0.9720 C.ar    1  LIG1       -0.0396
      4 C          -4.0524   -0.6832    1.1406 C.ar    1  LIG1        0.0778
      5 C          -4.6597   -0.1168    0.0057 C.ar    1  LIG1        0.0924
      6 N          -4.4920   -0.6213   -1.2115 N.ar    1  LIG1       -0.2370
      7 H          -2.7642   -2.2621    1.8327 H       1  LIG1        0.0632
      8 H          -2.4463   -3.1942   -0.4703 H       1  LIG1        0.0646
      9 C          -3.5624   -2.2135   -2.6964 C.1     1  LIG1       -0.0498
     10 C          -3.4134   -2.6656   -3.8006 C.1     1  LIG1       -0.1124
     11 H          -3.2894   -3.0546   -4.7859 H       1  LIG1        0.1232
     12 N          -4.4212    0.2746    3.5180 N.1     1  LIG1       -0.1908
     13 C          -4.2639   -0.1472    2.4526 C.1     1  LIG1        0.1013
     14 C          -6.8422    1.1041   -0.3762 C.ar    1  LIG1        0.1231
     15 C          -5.5158    1.0964    0.0985 C.ar    1  LIG1        0.0367
     16 C          -5.0213    2.2736    0.6356 C.ar    1  LIG1       -0.0304
     17 C          -5.8224    3.4139    0.6675 C.ar    1  LIG1        0.0785
     18 C          -7.1251    3.3303    0.1493 C.ar    1  LIG1        0.0924
     19 N          -7.6090    2.1976   -0.3455 N.ar    1  LIG1       -0.2364
     20 H          -4.0119    2.3201    1.0281 H       1  LIG1        0.0638
     21 C          -7.4603   -0.0826   -0.8908 C.1     1  LIG1       -0.0491
     22 C          -8.0048   -1.0720   -1.3025 C.1     1  LIG1       -0.1124
     23 H          -8.4876   -1.9455   -1.6782 H       1  LIG1        0.1232
     24 N          -4.8789    5.6055    1.6728 N.1     1  LIG1       -0.1908
     25 C          -5.3092    4.6289    1.2274 C.1     1  LIG1        0.1013
     26 C          -9.3097    4.4735    0.7105 C.ar    1  LIG1        0.1231
     27 C          -8.0354    4.5052    0.1103 C.ar    1  LIG1        0.0367
     28 C          -7.6652    5.6674   -0.5459 C.ar    1  LIG1       -0.0304
     29 C          -8.5541    6.7388   -0.6166 C.ar    1  LIG1        0.0785
     30 C          -9.8134    6.6050   -0.0085 C.ar    1  LIG1        0.0924
     31 N         -10.1608    5.5005    0.6409 N.ar    1  LIG1       -0.2364
     32 H          -6.6905    5.7516   -1.0128 H       1  LIG1        0.0638
     33 C          -9.7508    3.3399    1.4691 C.1     1  LIG1       -0.0491
     34 C         -10.1249    2.4095    2.1318 C.1     1  LIG1       -0.1124
     35 H         -10.4612    1.5820    2.7142 H       1  LIG1        0.1232
     36 N          -7.8416    8.8969   -1.8569 N.1     1  LIG1       -0.1908
     37 C          -8.1661    7.9396   -1.2952 C.1     1  LIG1        0.1013
     38 C         -11.4001    8.2270    1.1040 C.ar    1  LIG1        0.1224
     39 C         -10.8356    7.6835   -0.0672 C.ar    1  LIG1        0.0367
     40 C         -11.2820    8.1655   -1.2890 C.ar    1  LIG1       -0.0310
     41 C         -12.2769    9.1398   -1.3157 C.ar    1  LIG1        0.0705
     42 C         -12.7846    9.6005   -0.0981 C.ar    1  LIG1        0.0464
     43 N         -12.3557    9.1652    1.0753 N.ar    1  LIG1       -0.2448
     44 H         -10.8735    7.7830   -2.2174 H       1  LIG1        0.0638
     45 H         -13.5671   10.3541   -0.0849 H       1  LIG1        0.0843
     46 C         -10.9447    7.8301    2.4043 C.1     1  LIG1       -0.0491
     47 C         -10.5544    7.5307    3.5011 C.1     1  LIG1       -0.1124
     48 H         -10.2126    7.2604    4.4743 H       1  LIG1        0.1232
     49 N         -13.2005   10.0650   -3.5501 N.1     1  LIG1       -0.1908
     50 C         -12.7827    9.6521   -2.5540 C.1     1  LIG1        0.1007
@<TRIPOS>BOND
     1    11    10    1
     2    10     9    3
     3    49    50    3
     4     9     1    1
     5    50    41    1
     6    44    40    1
     7    36    37    3
     8    23    22    1
     9     1     6   ar
    10     1     2   ar
    11    41    40   ar
    12    41    42   ar
    13    22    21    3
    14    37    29    1
    15    40    39   ar
    16     6     5   ar
    17    32    28    1
    18    21    14    1
    19    29    28   ar
    20    29    30   ar
    21    28    27   ar
    22     8     2    1
    23    14    19   ar
    24    14    15   ar
    25    19    18   ar
    26     2     3   ar
    27    42    45    1
    28    42    43   ar
    29    39    30    1
    30    39    38   ar
    31    30    31   ar
    32     5    15    1
    33     5     4   ar
    34    15    16   ar
    35    27    18    1
    36    27    26   ar
    37    18    17   ar
    38    16    17   ar
    39    16    20    1
    40    31    26   ar
    41    17    25    1
    42    26    33    1
    43     3     4   ar
    44     3     7    1
    45    43    38   ar
    46    38    46    1
    47     4    13    1
    48    25    24    3
    49    33    34    3
    50    34    35    1
    51    46    47    3
    52    13    12    3
    53    47    48    1
