@<TRIPOS>MOLECULE
mol_data/opt/cam/geoms/mol2/6ed6lf4ee13ee-6ff-13el-13li-4ai.out
 107 114 0 0 0
SMALL
GASTEIGER

@<TRIPOS>ATOM
      1 C          -4.7874   -2.6471    1.3393 C.ar    1  LIG1        0.1139
      2 C          -3.4508   -2.7686    1.7356 C.ar    1  LIG1       -0.0266
      3 C          -2.7164   -1.6155    1.9199 C.ar    1  LIG1       -0.0396
      4 C          -3.3294   -0.3793    1.7056 C.ar    1  LIG1        0.0779
      5 C          -4.6773   -0.3507    1.2999 C.ar    1  LIG1        0.0949
      6 N          -5.3790   -1.4679    1.1263 N.ar    1  LIG1       -0.2370
      7 H          -1.6794   -1.6560    2.2334 H       1  LIG1        0.0632
      8 H          -3.0168   -3.7481    1.8920 H       1  LIG1        0.0646
      9 C          -5.5815   -3.8264    1.1389 C.1     1  LIG1       -0.0498
     10 C          -6.2201   -4.8326    0.9784 C.1     1  LIG1       -0.1124
     11 H          -6.7993   -5.7157    0.8320 H       1  LIG1        0.1232
     12 N          -1.9438    1.7721    2.1044 N.1     1  LIG1       -0.1908
     13 C          -2.5794    0.8231    1.9216 C.1     1  LIG1        0.1013
     14 C          -6.5747    1.2770    1.6853 C.ar    1  LIG1        0.2247
     15 C          -5.3775    0.9284    1.0233 C.ar    1  LIG1        0.0666
     16 C          -4.9044    1.8296    0.0930 C.ar    1  LIG1       -0.0037
     17 C          -5.5947    3.0132   -0.1833 C.ar    1  LIG1        0.1436
     18 C          -6.7777    3.2575    0.5145 C.ar    1  LIG1        0.1173
     19 N          -7.2360    2.3817    1.4303 N.ar    1  LIG1       -0.2086
     20 H          -3.9951    1.6360   -0.4651 H       1  LIG1        0.0663
     21 O          -7.0227    0.4371    2.6338 O.3     1  LIG1       -0.4792
     22 C          -8.2342    0.7870    3.2884 C.3     1  LIG1        0.0804
     23 H          -8.4065   -0.0005    4.0211 H       1  LIG1        0.0660
     24 H          -8.1496    1.7574    3.7831 H       1  LIG1        0.0660
     25 H          -9.0653    0.8303    2.5801 H       1  LIG1        0.0660
     26 O          -5.1059    3.7943   -1.1850 O.3     1  LIG1       -0.5046
     27 H          -5.0625    4.7183   -0.8932 H       1  LIG1        0.2922
     28 C          -7.2552    5.7573    0.1744 C.ar    1  LIG1        0.0347
     29 C          -8.1858    6.7717   -0.0556 C.ar    1  LIG1       -0.0354
     30 C          -7.6750    4.4175    0.2662 C.ar    1  LIG1        0.0206
     31 C          -9.5473    6.5162   -0.2046 C.ar    1  LIG1        0.0161
     32 H          -7.8296    7.7912   -0.1087 H       1  LIG1        0.0637
     33 C          -9.0380    4.1655    0.1574 C.ar    1  LIG1       -0.0352
     34 C          -9.9748    5.1718   -0.0776 C.ar    1  LIG1        0.0345
     35 H          -9.3830    3.1445    0.2608 H       1  LIG1        0.0637
     36 C          -5.8883    6.1357    0.3731 C.1     1  LIG1       -0.0690
     37 C          -4.7362    6.4562    0.5257 C.1     1  LIG1       -0.1139
     38 H          -3.7206    6.7375    0.6915 H       1  LIG1        0.1232
     39 C         -11.3471    4.7709   -0.1840 C.1     1  LIG1       -0.0690
     40 C         -12.4914    4.3964   -0.2478 C.1     1  LIG1       -0.1139
     41 H         -13.5144    4.1001   -0.3093 H       1  LIG1        0.1232
     42 C         -10.4548    7.6366   -0.4640 C.ar    1  LIG1        0.0649
     43 C         -10.2154    8.8902   -1.0195 C.ar    1  LIG1        0.0659
     44 C         -11.4573    9.6047   -1.0249 C.ar    1  LIG1        0.0660
     45 C         -12.4183    8.7692   -0.4775 C.ar    1  LIG1        0.0689
     46 N         -11.7905    7.5936   -0.1589 N.ar    1  LIG1       -0.3520
     47 H         -12.2284    6.8219    0.3242 H       1  LIG1        0.1660
     48 C          -9.0006    9.4010   -1.5475 C.1     1  LIG1       -0.0663
     49 C          -7.9863    9.8625   -2.0041 C.1     1  LIG1       -0.1138
     50 H          -7.0927   10.2703   -2.4173 H       1  LIG1        0.1232
     51 C         -11.6604   10.9133   -1.5358 C.1     1  LIG1       -0.0663
     52 C         -11.8267   12.0250   -1.9667 C.1     1  LIG1       -0.1138
     53 H         -11.9733   13.0074   -2.3526 H       1  LIG1        0.1232
     54 C         -14.7971    7.9488   -0.4238 C.ar    1  LIG1        0.2225
     55 C         -13.8459    8.9742   -0.2350 C.ar    1  LIG1        0.0644
     56 C         -14.3430   10.1958    0.1922 C.ar    1  LIG1       -0.0037
     57 C         -15.6998   10.3820    0.4534 C.ar    1  LIG1        0.1451
     58 C         -16.5517    9.2783    0.2968 C.ar    1  LIG1        0.1335
     59 N         -16.0668    8.1034   -0.1560 N.ar    1  LIG1       -0.2072
     60 H         -13.6793   11.0395    0.3366 H       1  LIG1        0.0663
     61 O         -14.4555    6.7125   -0.8888 O.3     1  LIG1       -0.4919
     62 H         -13.6036    6.7568   -1.3431 H       1  LIG1        0.2937
     63 O         -16.0599   11.6294    0.8165 O.3     1  LIG1       -0.5045
     64 H         -16.9652   11.6851    1.1665 H       1  LIG1        0.2922
     65 C         -18.0005    9.2404    0.5271 C.ar    1  LIG1        0.0884
     66 C         -18.9638   10.0462    1.1402 C.ar    1  LIG1        0.0938
     67 C         -20.2091    9.3585    1.0396 C.ar    1  LIG1        0.1628
     68 C         -19.9913    8.1590    0.3847 C.ar    1  LIG1        0.1104
     69 N         -18.6529    8.1300    0.0808 N.ar    1  LIG1       -0.3477
     70 H         -18.1152    7.3525   -0.2792 H       1  LIG1        0.1661
     71 C         -18.8158   11.2955    1.7940 C.1     1  LIG1       -0.0638
     72 C         -18.7149   12.3589    2.3555 C.1     1  LIG1       -0.1137
     73 H         -18.6257   13.2915    2.8639 H       1  LIG1        0.1232
     74 O         -21.3671    9.8319    1.5658 O.3     1  LIG1       -0.4917
     75 C         -22.3866   10.1450    0.6225 C.3     1  LIG1        0.0789
     76 H         -23.2149   10.5622    1.1954 H       1  LIG1        0.0660
     77 H         -22.0303   10.8884   -0.0989 H       1  LIG1        0.0660
     78 H         -22.7301    9.2512    0.0965 H       1  LIG1        0.0660
     79 C         -20.8785    7.0876   -0.0090 C.ar    1  LIG1        0.1095
     80 C         -22.0745    6.6193    0.5051 C.ar    1  LIG1        0.1503
     81 C         -22.5354    5.5434   -0.3012 C.ar    1  LIG1        0.0171
     82 C         -21.5969    5.3689   -1.3014 C.ar    1  LIG1        0.0535
     83 N         -20.5867    6.2820   -1.0916 N.ar    1  LIG1       -0.3498
     84 H         -19.9277    6.5383   -1.8096 H       1  LIG1        0.1661
     85 O         -22.7595    7.0724    1.5932 O.3     1  LIG1       -0.4927
     86 C         -22.0764    6.9751    2.8370 C.3     1  LIG1        0.0789
     87 H         -22.7938    7.2671    3.6049 H       1  LIG1        0.0660
     88 H         -21.7457    5.9463    3.0190 H       1  LIG1        0.0660
     89 H         -21.2193    7.6506    2.8783 H       1  LIG1        0.0660
     90 C         -23.7730    4.7529   -0.0191 C.3     1  LIG1       -0.0342
     91 H         -23.6515    3.7022   -0.2932 H       1  LIG1        0.0279
     92 H         -24.6422    5.1387   -0.5632 H       1  LIG1        0.0279
     93 H         -24.0149    4.8113    1.0442 H       1  LIG1        0.0279
     94 C         -22.6761    3.9453   -3.0397 C.ar    1  LIG1       -0.0526
     95 C         -22.5790    3.0465   -4.0939 C.ar    1  LIG1       -0.0609
     96 C         -21.5209    4.4164   -2.4101 C.ar    1  LIG1       -0.0011
     97 C         -21.3386    2.6160   -4.5432 C.ar    1  LIG1       -0.0588
     98 H         -23.4823    2.6874   -4.5769 H       1  LIG1        0.0618
     99 C         -20.2773    3.9652   -2.8733 C.ar    1  LIG1       -0.0497
    100 C         -20.1680    3.0759   -3.9365 C.ar    1  LIG1       -0.0498
    101 H         -19.3728    4.2957   -2.3701 H       1  LIG1        0.0627
    102 H         -21.2743    1.9154   -5.3709 H       1  LIG1        0.0620
    103 H         -23.6475    4.3009   -2.7176 H       1  LIG1        0.0624
    104 C         -18.8205    2.6091   -4.4220 C.3     1  LIG1       -0.0397
    105 H         -18.0143    2.9915   -3.7924 H       1  LIG1        0.0278
    106 H         -18.6317    2.9452   -5.4464 H       1  LIG1        0.0278
    107 H         -18.7559    1.5171   -4.4238 H       1  LIG1        0.0278
@<TRIPOS>BOND
     1   106   104    1
     2   102    97    1
     3    98    95    1
     4    97    95   ar
     5    97   100   ar
     6   107   104    1
     7   104   100    1
     8   104   105    1
     9    95    94   ar
    10   100    99   ar
    11    94   103    1
    12    94    96   ar
    13    99    96   ar
    14    99   101    1
    15    50    49    1
    16    96    82    1
    17    53    52    1
    18    49    48    3
    19    52    51    3
    20    84    83    1
    21    48    43    1
    22    51    44    1
    23    62    61    1
    24    82    83   ar
    25    82    81   ar
    26    26    27    1
    27    26    17    1
    28    83    79   ar
    29    44    43   ar
    30    44    45   ar
    31    43    42   ar
    32    61    54    1
    33    92    90    1
    34    45    55    1
    35    45    46   ar
    36    20    16    1
    37    42    31    1
    38    42    46   ar
    39    54    55   ar
    40    54    59   ar
    41    41    40    1
    42    81    90    1
    43    81    80   ar
    44    91    90    1
    45    70    69    1
    46    40    39    3
    47    55    56   ar
    48    31    34   ar
    49    31    29   ar
    50    39    34    1
    51    17    16   ar
    52    17    18   ar
    53    46    47    1
    54    59    58   ar
    55    32    29    1
    56    77    75    1
    57    34    33   ar
    58    29    28   ar
    59    90    93    1
    60    79    68    1
    61    79    80   ar
    62    69    68   ar
    63    69    65   ar
    64    16    15   ar
    65    78    75    1
    66    33    35    1
    67    33    30   ar
    68    28    30   ar
    69    28    36    1
    70    56    60    1
    71    56    57   ar
    72    30    18    1
    73    58    57   ar
    74    58    65    1
    75    36    37    3
    76    68    67   ar
    77    57    63    1
    78    80    85    1
    79    18    19   ar
    80    37    38    1
    81    65    66   ar
    82    75    76    1
    83    75    74    1
    84    63    64    1
    85    11    10    1
    86    10     9    3
    87    15     5    1
    88    15    14   ar
    89    67    66   ar
    90    67    74    1
    91     6     5   ar
    92     6     1   ar
    93     9     1    1
    94    66    71    1
    95     5     4   ar
    96     1     2   ar
    97    19    14   ar
    98    85    86    1
    99    14    21    1
   100     4     3   ar
   101     4    13    1
   102     2     8    1
   103     2     3   ar
   104    71    72    3
   105     3     7    1
   106    13    12    3
   107    72    73    1
   108    25    22    1
   109    21    22    1
   110    86    89    1
   111    86    88    1
   112    86    87    1
   113    22    24    1
   114    22    23    1
