@<TRIPOS>MOLECULE
mol_data/opt/cam/geoms/mol2/6ed6ed.out
 26 27 0 0 0
SMALL
GASTEIGER

@<TRIPOS>ATOM
      1 C          -4.4413   -2.0347   -0.5542 C.ar    1  LIG1        0.1139
      2 C          -3.1642   -2.1332    0.0090 C.ar    1  LIG1       -0.0266
      3 C          -2.6231   -1.0155    0.6105 C.ar    1  LIG1       -0.0396
      4 C          -3.3636    0.1682    0.6339 C.ar    1  LIG1        0.0778
      5 C          -4.6370    0.1777    0.0364 C.ar    1  LIG1        0.0924
      6 N          -5.1534   -0.9027   -0.5390 N.ar    1  LIG1       -0.2370
      7 H          -1.6404   -1.0456    1.0672 H       1  LIG1        0.0632
      8 H          -2.6243   -3.0709   -0.0311 H       1  LIG1        0.0646
      9 C          -5.0365   -3.1772   -1.1850 C.1     1  LIG1       -0.0498
     10 C          -5.5091   -4.1516   -1.7075 C.1     1  LIG1       -0.1124
     11 H          -5.9413   -5.0068   -2.1755 H       1  LIG1        0.1232
     12 N          -2.3649    2.2567    1.7942 N.1     1  LIG1       -0.1908
     13 C          -2.8231    1.3302    1.2753 C.1     1  LIG1        0.1013
     14 C          -6.7811    1.4241    0.5262 C.ar    1  LIG1        0.1224
     15 C          -5.4750    1.4066   -0.0016 C.ar    1  LIG1        0.0367
     16 C          -4.9958    2.5691   -0.5878 C.ar    1  LIG1       -0.0310
     17 C          -5.8189    3.6907   -0.6528 C.ar    1  LIG1        0.0705
     18 C          -7.1049    3.5998   -0.1139 C.ar    1  LIG1        0.0464
     19 N          -7.5704    2.5047    0.4643 N.ar    1  LIG1       -0.2448
     20 H          -3.9955    2.6069   -1.0037 H       1  LIG1        0.0638
     21 H          -7.7744    4.4545   -0.1554 H       1  LIG1        0.0843
     22 C          -7.3284    0.2840    1.2028 C.1     1  LIG1       -0.0491
     23 C          -7.7963   -0.6504    1.7970 C.1     1  LIG1       -0.1124
     24 H          -8.2178   -1.4808    2.3160 H       1  LIG1        0.1232
     25 N          -5.0207    5.8877   -1.7651 N.1     1  LIG1       -0.1908
     26 C          -5.3724    4.9058   -1.2659 C.1     1  LIG1        0.1007
@<TRIPOS>BOND
     1    11    10    1
     2    25    26    3
     3    10     9    3
     4    26    17    1
     5     9     1    1
     6    20    16    1
     7    17    16   ar
     8    17    18   ar
     9    16    15   ar
    10     1     6   ar
    11     1     2   ar
    12     6     5   ar
    13    21    18    1
    14    18    19   ar
    15     8     2    1
    16    15     5    1
    17    15    14   ar
    18     2     3   ar
    19     5     4   ar
    20    19    14   ar
    21    14    22    1
    22     3     4   ar
    23     3     7    1
    24     4    13    1
    25    22    23    3
    26    13    12    3
    27    23    24    1
