@<TRIPOS>MOLECULE
mol_data/opt/cam/geoms/mol2/6ed6ed6ed.out
 38 40 0 0 0
SMALL
GASTEIGER

@<TRIPOS>ATOM
      1 C          -4.1395   -1.9172   -1.0476 C.ar    1  LIG1        0.1139
      2 C          -3.1303   -2.2408   -0.1337 C.ar    1  LIG1       -0.0266
      3 C          -2.8895   -1.3760    0.9142 C.ar    1  LIG1       -0.0396
      4 C          -3.6549   -0.2130    1.0240 C.ar    1  LIG1        0.0778
      5 C          -4.6430    0.0354    0.0545 C.ar    1  LIG1        0.0924
      6 N          -4.8727   -0.8028   -0.9501 N.ar    1  LIG1       -0.2370
      7 H          -2.1239   -1.5890    1.6514 H       1  LIG1        0.0632
      8 H          -2.5601   -3.1531   -0.2559 H       1  LIG1        0.0646
      9 C          -4.4199   -2.7945   -2.1469 C.1     1  LIG1       -0.0498
     10 C          -4.6316   -3.5487   -3.0591 C.1     1  LIG1       -0.1124
     11 H          -4.8296   -4.2074   -3.8742 H       1  LIG1        0.1232
     12 N          -3.2376    1.3949    3.0104 N.1     1  LIG1       -0.1908
     13 C          -3.4336    0.6828    2.1203 C.1     1  LIG1        0.1013
     14 C          -6.8884    1.1998    0.1022 C.ar    1  LIG1        0.1231
     15 C          -5.4813    1.2640    0.0856 C.ar    1  LIG1        0.0367
     16 C          -4.8988    2.5207    0.0708 C.ar    1  LIG1       -0.0304
     17 C          -5.7021    3.6595    0.0466 C.ar    1  LIG1        0.0785
     18 C          -7.0972    3.4947    0.0404 C.ar    1  LIG1        0.0924
     19 N          -7.6573    2.2917    0.0776 N.ar    1  LIG1       -0.2364
     20 H          -3.8202    2.6292    0.0716 H       1  LIG1        0.0638
     21 C          -7.5801   -0.0537    0.1834 C.1     1  LIG1       -0.0491
     22 C          -8.1784   -1.0920    0.2774 C.1     1  LIG1       -0.1124
     23 H          -8.7118   -2.0124    0.3499 H       1  LIG1        0.1232
     24 N          -4.5858    5.9955    0.0118 N.1     1  LIG1       -0.1908
     25 C          -5.0935    4.9567    0.0337 C.1     1  LIG1        0.1013
     26 C          -9.0275    4.8499    0.9493 C.ar    1  LIG1        0.1224
     27 C          -8.0275    4.6531   -0.0238 C.ar    1  LIG1        0.0367
     28 C          -7.9496    5.5616   -1.0693 C.ar    1  LIG1       -0.0310
     29 C          -8.8653    6.6090   -1.1330 C.ar    1  LIG1        0.0705
     30 C          -9.8305    6.7059   -0.1273 C.ar    1  LIG1        0.0464
     31 N          -9.9059    5.8592    0.8864 N.ar    1  LIG1       -0.2448
     32 H          -7.1935    5.4558   -1.8389 H       1  LIG1        0.0638
     33 H         -10.5645    7.5066   -0.1526 H       1  LIG1        0.0843
     34 C          -9.1315    3.9949    2.0957 C.1     1  LIG1       -0.0491
     35 C          -9.2156    3.3074    3.0782 C.1     1  LIG1       -0.1124
     36 H          -9.2958    2.6939    3.9465 H       1  LIG1        0.1232
     37 N          -8.8215    8.3248   -3.0709 N.1     1  LIG1       -0.1908
     38 C          -8.8353    7.5587   -2.2049 C.1     1  LIG1        0.1007
@<TRIPOS>BOND
     1    11    10    1
     2    37    38    3
     3    10     9    3
     4    38    29    1
     5     9     1    1
     6    32    28    1
     7    29    28   ar
     8    29    30   ar
     9    28    27   ar
    10     1     6   ar
    11     1     2   ar
    12     6     5   ar
    13     8     2    1
    14    33    30    1
    15     2     3   ar
    16    30    31   ar
    17    27    18    1
    18    27    26   ar
    19    24    25    3
    20    25    17    1
    21    18    17   ar
    22    18    19   ar
    23    17    16   ar
    24     5    15    1
    25     5     4   ar
    26    16    20    1
    27    16    15   ar
    28    19    14   ar
    29    15    14   ar
    30    14    21    1
    31    21    22    3
    32    22    23    1
    33    31    26   ar
    34     3     4   ar
    35     3     7    1
    36    26    34    1
    37     4    13    1
    38    34    35    3
    39    13    12    3
    40    35    36    1
