@<TRIPOS>MOLECULE
mol_data/opt/cam/geoms/mol2/6ee4ih13fa-4ld-.out
 54 57 0 0 0
SMALL
GASTEIGER

@<TRIPOS>ATOM
      1 C          -4.2793   -1.9831    1.1897 C.ar    1  LIG1        0.1139
      2 C          -3.0729   -2.2866    0.5550 C.ar    1  LIG1       -0.0266
      3 C          -2.5502   -1.3632   -0.3287 C.ar    1  LIG1       -0.0416
      4 C          -3.2204   -0.1568   -0.5477 C.ar    1  LIG1        0.0507
      5 C          -4.4113    0.0813    0.1721 C.ar    1  LIG1        0.0880
      6 N          -4.9265   -0.8272    0.9996 N.ar    1  LIG1       -0.2372
      7 H          -1.6314   -1.5665   -0.8674 H       1  LIG1        0.0631
      8 H          -2.5787   -3.2310    0.7473 H       1  LIG1        0.0646
      9 C          -4.8759   -2.9313    2.0891 C.1     1  LIG1       -0.0498
     10 C          -5.3518   -3.7454    2.8359 C.1     1  LIG1       -0.1124
     11 H          -5.7854   -4.4562    3.5014 H       1  LIG1        0.1232
     12 C          -2.7159    0.7636   -1.5182 C.1     1  LIG1       -0.0675
     13 C          -2.2649    1.5010   -2.3562 C.1     1  LIG1       -0.1138
     14 H          -1.8817    2.1650   -3.0967 H       1  LIG1        0.1232
     15 C          -4.7111    2.5965    0.3821 C.ar    1  LIG1       -0.0405
     16 C          -5.5490    3.6946    0.2203 C.ar    1  LIG1       -0.0472
     17 C          -5.2000    1.3361    0.0134 C.ar    1  LIG1        0.0063
     18 C          -6.8469    3.6016   -0.2930 C.ar    1  LIG1        0.0228
     19 H          -5.1933    4.6706    0.5281 H       1  LIG1        0.0627
     20 C          -6.4909    1.2242   -0.4960 C.ar    1  LIG1       -0.0309
     21 C          -7.3131    2.3275   -0.6738 C.ar    1  LIG1        0.0345
     22 H          -6.8597    0.2398   -0.7701 H       1  LIG1        0.0643
     23 C          -3.3463    2.7919    0.9915 C.3     1  LIG1       -0.0391
     24 H          -3.3015    3.7429    1.5261 H       1  LIG1        0.0278
     25 H          -2.5635    2.8001    0.2280 H       1  LIG1        0.0278
     26 H          -3.1029    1.9970    1.7011 H       1  LIG1        0.0278
     27 N          -8.6256    2.1649   -1.2051 N.pl3   1  LIG1       -0.3574
     28 H          -8.7326    2.6658   -2.0832 H       1  LIG1        0.1423
     29 H          -8.8332    1.1870   -1.3705 H       1  LIG1        0.1423
     30 C          -7.6835    4.7982   -0.3668 C.ar    1  LIG1        0.0907
     31 C          -7.3634    6.1483   -0.3105 C.ar    1  LIG1        0.1427
     32 C          -8.5551    6.8974   -0.3139 C.ar    1  LIG1        0.0059
     33 C          -9.6056    5.9930   -0.3790 C.ar    1  LIG1        0.0540
     34 N          -9.0599    4.7432   -0.4189 N.ar    1  LIG1       -0.3511
     35 H          -9.5423    3.8534   -0.3875 H       1  LIG1        0.1660
     36 O          -6.0872    6.6291   -0.2591 O.3     1  LIG1       -0.5046
     37 H          -6.1222    7.5914   -0.2815 H       1  LIG1        0.2922
     38 H          -8.6541    7.9719   -0.3090 H       1  LIG1        0.0675
     39 C         -11.6776    7.3723   -0.0346 C.ar    1  LIG1        0.1292
     40 C         -13.0516    7.5438   -0.1519 C.ar    1  LIG1       -0.0181
     41 C         -11.0494    6.1936   -0.4784 C.ar    1  LIG1        0.0413
     42 C         -13.8467    6.5528   -0.7030 C.ar    1  LIG1       -0.0409
     43 H         -13.4805    8.4769    0.1957 H       1  LIG1        0.0655
     44 C         -11.8646    5.2062   -1.0381 C.ar    1  LIG1       -0.0317
     45 C         -13.2449    5.3728   -1.1436 C.ar    1  LIG1        0.0526
     46 H         -11.4210    4.2960   -1.4252 H       1  LIG1        0.0638
     47 H         -14.9178    6.6860   -0.7971 H       1  LIG1        0.0631
     48 O         -10.9431    8.3984    0.5007 O.3     1  LIG1       -0.4945
     49 C         -10.7163    8.2848    1.9025 C.3     1  LIG1        0.0788
     50 H         -10.1498    9.1681    2.1984 H       1  LIG1        0.0660
     51 H         -11.6653    8.2628    2.4497 H       1  LIG1        0.0660
     52 H         -10.1371    7.3867    2.1378 H       1  LIG1        0.0660
     53 N         -14.6801    3.4895   -2.1985 N.1     1  LIG1       -0.1909
     54 C         -14.0409    4.3311   -1.7280 C.1     1  LIG1        0.0992
@<TRIPOS>BOND
     1    14    13    1
     2    13    12    3
     3    53    54    3
     4    28    27    1
     5    54    45    1
     6    12     4    1
     7    46    44    1
     8    29    27    1
     9    27    21    1
    10    45    44   ar
    11    45    42   ar
    12    44    41   ar
    13     7     3    1
    14    47    42    1
    15    22    20    1
    16    42    40   ar
    17    21    20   ar
    18    21    18   ar
    19     4     3   ar
    20     4     5   ar
    21    20    17   ar
    22    41    33    1
    23    41    39   ar
    24    34    35    1
    25    34    33   ar
    26    34    30   ar
    27    33    32   ar
    28    30    31   ar
    29    30    18    1
    30     3     2   ar
    31    32    31   ar
    32    32    38    1
    33    31    36    1
    34    18    16   ar
    35    37    36    1
    36    40    39   ar
    37    40    43    1
    38    39    48    1
    39    17     5    1
    40    17    15   ar
    41     5     6   ar
    42    16    15   ar
    43    16    19    1
    44    25    23    1
    45    15    23    1
    46    48    49    1
    47     2     8    1
    48     2     1   ar
    49    23    24    1
    50    23    26    1
    51     6     1   ar
    52     1     9    1
    53    49    52    1
    54    49    50    1
    55    49    51    1
    56     9    10    3
    57    10    11    1
