@<TRIPOS>MOLECULE
mol_data/opt/cam/geoms/mol2/6ee4fe-12dd13dh-.out
 48 51 0 0 0
SMALL
GASTEIGER

@<TRIPOS>ATOM
      1 C          -3.9991   -1.9679   -0.6895 C.ar    1  LIG1        0.1139
      2 C          -2.9291   -2.0900    0.1999 C.ar    1  LIG1       -0.0266
      3 C          -2.6590   -1.0354    1.0497 C.ar    1  LIG1       -0.0416
      4 C          -3.4352    0.1248    0.9873 C.ar    1  LIG1        0.0508
      5 C          -4.4624    0.1718    0.0224 C.ar    1  LIG1        0.0912
      6 N          -4.7430   -0.8588   -0.7709 N.ar    1  LIG1       -0.2371
      7 H          -1.8583   -1.0990    1.7778 H       1  LIG1        0.0631
      8 H          -2.3440   -3.0010    0.2244 H       1  LIG1        0.0646
      9 C          -4.3397   -3.0560   -1.5622 C.1     1  LIG1       -0.0498
     10 C          -4.6021   -3.9844   -2.2805 C.1     1  LIG1       -0.1124
     11 H          -4.8442   -4.7986   -2.9245 H       1  LIG1        0.1232
     12 C          -3.2084    1.1780    1.9257 C.1     1  LIG1       -0.0675
     13 C          -3.0053    2.0245    2.7567 C.1     1  LIG1       -0.1138
     14 H          -2.8296    2.7818    3.4859 H       1  LIG1        0.1232
     15 C          -4.8522    2.6404   -0.3912 C.ar    1  LIG1        0.1268
     16 C          -5.7269    3.7119   -0.5249 C.ar    1  LIG1       -0.0076
     17 C          -5.3500    1.3548   -0.1392 C.ar    1  LIG1        0.0442
     18 C          -7.1074    3.5331   -0.4613 C.ar    1  LIG1        0.0374
     19 H          -5.3199    4.7036   -0.6893 H       1  LIG1        0.0662
     20 C          -6.7253    1.1788   -0.1110 C.ar    1  LIG1       -0.0329
     21 C          -7.6278    2.2354   -0.2659 C.ar    1  LIG1        0.0362
     22 H          -7.1125    0.1760    0.0235 H       1  LIG1        0.0638
     23 O          -3.5168    2.7901   -0.5144 O.3     1  LIG1       -0.5061
     24 H          -3.2994    3.7116   -0.7015 H       1  LIG1        0.2922
     25 C          -9.0236    1.9089   -0.2751 C.1     1  LIG1       -0.0689
     26 C         -10.1678    1.5294   -0.2962 C.1     1  LIG1       -0.1139
     27 H         -11.1630    1.1513   -0.3581 H       1  LIG1        0.1232
     28 C          -7.9698    4.6988   -0.6092 C.ar    1  LIG1        0.1556
     29 C          -7.8395    5.9096   -1.2378 C.ar    1  LIG1        0.1155
     30 C          -9.0728    6.6276   -1.0250 C.ar    1  LIG1        0.1169
     31 C          -9.8611    5.8041   -0.2641 C.ar    1  LIG1        0.1717
     32 O          -9.1838    4.6541   -0.0162 O.2     1  LIG1       -0.4506
     33 N          -5.7938    6.7244   -2.5756 N.1     1  LIG1       -0.1907
     34 C          -6.7219    6.3652   -1.9856 C.1     1  LIG1        0.1043
     35 N          -9.6338    8.8977   -2.1024 N.1     1  LIG1       -0.1907
     36 C          -9.3980    7.8853   -1.5957 C.1     1  LIG1        0.1043
     37 C         -11.1923    5.8159    0.2777 C.ar    1  LIG1        0.1028
     38 C         -12.1087    6.8236    0.5822 C.ar    1  LIG1        0.1006
     39 C         -13.2751    6.1959    1.1120 C.ar    1  LIG1        0.0604
     40 C         -13.0296    4.8391    1.1152 C.ar    1  LIG1        0.0244
     41 N         -11.7723    4.6331    0.6114 N.ar    1  LIG1       -0.3556
     42 H         -11.3090    3.7401    0.5033 H       1  LIG1        0.1655
     43 H         -13.6467    4.0195    1.4467 H       1  LIG1        0.0826
     44 N         -11.9196    9.3867    0.4597 N.1     1  LIG1       -0.1907
     45 C         -11.9583    8.2293    0.4868 C.1     1  LIG1        0.1032
     46 N         -14.3876    6.8665    1.5940 N.pl3   1  LIG1       -0.3558
     47 H         -14.4731    7.8185    1.2653 H       1  LIG1        0.1424
     48 H         -15.2585    6.3621    1.5233 H       1  LIG1        0.1424
@<TRIPOS>BOND
     1    11    10    1
     2    33    34    3
     3    10     9    3
     4    35    36    3
     5    34    29    1
     6    36    30    1
     7     9     1    1
     8    29    30   ar
     9    29    28   ar
    10    30    31   ar
    11     6     1   ar
    12     6     5   ar
    13    24    23    1
    14     1     2   ar
    15    19    16    1
    16    28    18    1
    17    28    32   ar
    18    16    18   ar
    19    16    15   ar
    20    23    15    1
    21    18    21   ar
    22    15    17   ar
    23    27    26    1
    24    26    25    3
    25    25    21    1
    26    21    20   ar
    27    31    32   ar
    28    31    37    1
    29    17    20   ar
    30    17     5    1
    31    20    22    1
    32     5     4   ar
    33     2     8    1
    34     2     3   ar
    35    37    38   ar
    36    37    41   ar
    37    44    45    3
    38    45    38    1
    39    42    41    1
    40    38    39   ar
    41    41    40   ar
    42     4     3   ar
    43     4    12    1
    44     3     7    1
    45    39    40   ar
    46    39    46    1
    47    40    43    1
    48    47    46    1
    49    48    46    1
    50    12    13    3
    51    13    14    1
