@<TRIPOS>MOLECULE
mol_data/opt/cam/geoms/mol2/6ee6ee6ee6ee.out
 54 57 0 0 0
SMALL
GASTEIGER

@<TRIPOS>ATOM
      1 C          -3.6509   -1.4943   -1.7424 C.ar    1  LIG1        0.1139
      2 C          -2.9486   -2.1518   -0.7281 C.ar    1  LIG1       -0.0266
      3 C          -3.0643   -1.6801    0.5639 C.ar    1  LIG1       -0.0416
      4 C          -3.8697   -0.5677    0.8259 C.ar    1  LIG1        0.0508
      5 C          -4.5330    0.0297   -0.2649 C.ar    1  LIG1        0.0904
      6 N          -4.4218   -0.4277   -1.5082 N.ar    1  LIG1       -0.2371
      7 H          -2.5434   -2.1640    1.3822 H       1  LIG1        0.0631
      8 H          -2.3331   -3.0114   -0.9635 H       1  LIG1        0.0646
      9 C          -3.5574   -1.9567   -3.0985 C.1     1  LIG1       -0.0498
     10 C          -3.4582   -2.3676   -4.2245 C.1     1  LIG1       -0.1124
     11 H          -3.3808   -2.7191   -5.2279 H       1  LIG1        0.1232
     12 C          -4.0117   -0.0886    2.1653 C.1     1  LIG1       -0.0675
     13 C          -4.1117    0.2880    3.3041 C.1     1  LIG1       -0.1138
     14 H          -4.2120    0.6303    4.3087 H       1  LIG1        0.1232
     15 C          -6.7408    1.2453   -0.4934 C.ar    1  LIG1        0.1231
     16 C          -5.3929    1.2318   -0.0918 C.ar    1  LIG1        0.0366
     17 C          -4.8777    2.3981    0.4501 C.ar    1  LIG1       -0.0324
     18 C          -5.6717    3.5397    0.5656 C.ar    1  LIG1        0.0514
     19 C          -7.0026    3.4537    0.1148 C.ar    1  LIG1        0.0904
     20 N          -7.5086    2.3334   -0.3877 N.ar    1  LIG1       -0.2364
     21 H          -3.8487    2.4331    0.7884 H       1  LIG1        0.0638
     22 C          -7.3821    0.0695   -1.0105 C.1     1  LIG1       -0.0491
     23 C          -7.9420   -0.9115   -1.4219 C.1     1  LIG1       -0.1124
     24 H          -8.4363   -1.7775   -1.7984 H       1  LIG1        0.1232
     25 C          -5.1280    4.7308    1.1394 C.1     1  LIG1       -0.0675
     26 C          -4.6430    5.7177    1.6289 C.1     1  LIG1       -0.1138
     27 H          -4.2267    6.5984    2.0617 H       1  LIG1        0.1232
     28 C          -9.1637    4.5657    0.8215 C.ar    1  LIG1        0.1231
     29 C          -7.9235    4.6207    0.1599 C.ar    1  LIG1        0.0366
     30 C          -7.5956    5.8044   -0.4813 C.ar    1  LIG1       -0.0324
     31 C          -8.4817    6.8822   -0.4806 C.ar    1  LIG1        0.0514
     32 C          -9.7064    6.7169    0.1936 C.ar    1  LIG1        0.0904
     33 N         -10.0189    5.5923    0.8269 N.ar    1  LIG1       -0.2364
     34 H          -6.6452    5.9011   -0.9927 H       1  LIG1        0.0638
     35 C          -9.5680    3.4062    1.5653 C.1     1  LIG1       -0.0491
     36 C          -9.9127    2.4542    2.2135 C.1     1  LIG1       -0.1124
     37 H         -10.2239    1.6042    2.7759 H       1  LIG1        0.1232
     38 C          -8.1216    8.1005   -1.1363 C.1     1  LIG1       -0.0675
     39 C          -7.7886    9.1134   -1.6948 C.1     1  LIG1       -0.1138
     40 H          -7.5049   10.0164   -2.1850 H       1  LIG1        0.1232
     41 C         -11.2342    8.3046    1.4354 C.ar    1  LIG1        0.1224
     42 C         -10.7355    7.7911    0.2243 C.ar    1  LIG1        0.0366
     43 C         -11.2561    8.2989   -0.9578 C.ar    1  LIG1       -0.0330
     44 C         -12.2540    9.2716   -0.9181 C.ar    1  LIG1        0.0435
     45 C         -12.6857    9.6996    0.3429 C.ar    1  LIG1        0.0444
     46 N         -12.1918    9.2415    1.4816 N.ar    1  LIG1       -0.2448
     47 H         -10.8952    7.9355   -1.9129 H       1  LIG1        0.0638
     48 H         -13.4666   10.4517    0.4174 H       1  LIG1        0.0842
     49 C         -10.7102    7.8777    2.7023 C.1     1  LIG1       -0.0491
     50 C         -10.2673    7.5533    3.7720 C.1     1  LIG1       -0.1124
     51 H          -9.8831    7.2529    4.7194 H       1  LIG1        0.1232
     52 C         -12.8238    9.8131   -2.1111 C.1     1  LIG1       -0.0681
     53 C         -13.3065   10.2728   -3.1132 C.1     1  LIG1       -0.1139
     54 H         -13.7360   10.6780   -4.0005 H       1  LIG1        0.1232
@<TRIPOS>BOND
     1    11    10    1
     2    10     9    3
     3    54    53    1
     4    53    52    3
     5     9     1    1
     6    40    39    1
     7    52    44    1
     8    47    43    1
     9    24    23    1
    10     1     6   ar
    11     1     2   ar
    12    39    38    3
    13     6     5   ar
    14    23    22    3
    15    38    31    1
    16    22    15    1
    17    34    30    1
    18     8     2    1
    19    43    44   ar
    20    43    42   ar
    21    44    45   ar
    22     2     3   ar
    23    15    20   ar
    24    15    16   ar
    25    30    31   ar
    26    30    29   ar
    27    31    32   ar
    28    20    19   ar
    29     5    16    1
    30     5     4   ar
    31    16    17   ar
    32    19    29    1
    33    19    18   ar
    34    29    28   ar
    35    32    42    1
    36    32    33   ar
    37    42    41   ar
    38    45    48    1
    39    45    46   ar
    40    17    18   ar
    41    17    21    1
    42     3     4   ar
    43     3     7    1
    44    18    25    1
    45    28    33   ar
    46    28    35    1
    47     4    12    1
    48    25    26    3
    49    41    46   ar
    50    41    49    1
    51    35    36    3
    52    26    27    1
    53    12    13    3
    54    36    37    1
    55    49    50    3
    56    13    14    1
    57    50    51    1
