@<TRIPOS>MOLECULE
mol_data/opt/cam/geoms/mol2/6ee6ee.out
 28 29 0 0 0
SMALL
GASTEIGER

@<TRIPOS>ATOM
      1 C          -4.4765   -1.9857   -0.7038 C.ar    1  LIG1        0.1139
      2 C          -3.1647   -2.1070   -0.2365 C.ar    1  LIG1       -0.0266
      3 C          -2.5791   -1.0132    0.3685 C.ar    1  LIG1       -0.0416
      4 C          -3.3016    0.1768    0.4969 C.ar    1  LIG1        0.0508
      5 C          -4.6162    0.2017   -0.0111 C.ar    1  LIG1        0.0904
      6 N          -5.1786   -0.8538   -0.5918 N.ar    1  LIG1       -0.2371
      7 H          -1.5665   -1.0646    0.7522 H       1  LIG1        0.0631
      8 H          -2.6320   -3.0430   -0.3510 H       1  LIG1        0.0646
      9 C          -5.1203   -3.1022   -1.3372 C.1     1  LIG1       -0.0498
     10 C          -5.6318   -4.0550   -1.8636 C.1     1  LIG1       -0.1124
     11 H          -6.1000   -4.8897   -2.3329 H       1  LIG1        0.1232
     12 C          -2.7081    1.3055    1.1430 C.1     1  LIG1       -0.0675
     13 C          -2.1795    2.2357    1.6943 C.1     1  LIG1       -0.1138
     14 H          -1.7248    3.0666    2.1834 H       1  LIG1        0.1232
     15 C          -6.7081    1.4335    0.6966 C.ar    1  LIG1        0.1224
     16 C          -5.4548    1.4296    0.0577 C.ar    1  LIG1        0.0366
     17 C          -5.0282    2.6072   -0.5397 C.ar    1  LIG1       -0.0330
     18 C          -5.8432    3.7380   -0.5099 C.ar    1  LIG1        0.0435
     19 C          -7.0773    3.6246    0.1412 C.ar    1  LIG1        0.0444
     20 N          -7.4963    2.5170    0.7310 N.ar    1  LIG1       -0.2448
     21 H          -4.0660    2.6495   -1.0367 H       1  LIG1        0.0638
     22 H          -7.7451    4.4811    0.1811 H       1  LIG1        0.0842
     23 C          -7.1983    0.2748    1.3885 C.1     1  LIG1       -0.0491
     24 C          -7.6138   -0.6767    1.9948 C.1     1  LIG1       -0.1124
     25 H          -7.9874   -1.5244    2.5216 H       1  LIG1        0.1232
     26 C          -5.4463    4.9669   -1.1208 C.1     1  LIG1       -0.0681
     27 C          -5.1166    6.0047   -1.6336 C.1     1  LIG1       -0.1139
     28 H          -4.8266    6.9234   -2.0893 H       1  LIG1        0.1232
@<TRIPOS>BOND
     1    11    10    1
     2    28    27    1
     3    10     9    3
     4    27    26    3
     5     9     1    1
     6    26    18    1
     7    21    17    1
     8     1     6   ar
     9     1     2   ar
    10     6     5   ar
    11    17    18   ar
    12    17    16   ar
    13    18    19   ar
    14     8     2    1
    15     2     3   ar
    16     5    16    1
    17     5     4   ar
    18    16    15   ar
    19    19    22    1
    20    19    20   ar
    21     3     4   ar
    22     3     7    1
    23     4    12    1
    24    15    20   ar
    25    15    23    1
    26    12    13    3
    27    23    24    3
    28    13    14    1
    29    24    25    1
