@<TRIPOS>MOLECULE
mol_data/opt/cam/geoms/mol2/6ee6fh12da-13id4fa13de-6lh13aa.out
 92 99 0 0 0
SMALL
GASTEIGER

@<TRIPOS>ATOM
      1 C          -4.5803   -1.6803    2.1107 C.ar    1  LIG1        0.1139
      2 C          -3.2183   -1.7161    2.4006 C.ar    1  LIG1       -0.0266
      3 C          -2.4880   -0.5616    2.2013 C.ar    1  LIG1       -0.0416
      4 C          -3.1045    0.6105    1.7522 C.ar    1  LIG1        0.0509
      5 C          -4.5063    0.5846    1.5401 C.ar    1  LIG1        0.0928
      6 N          -5.1836   -0.5607    1.7007 N.ar    1  LIG1       -0.2370
      7 H          -1.4180   -0.5509    2.3753 H       1  LIG1        0.0631
      8 H          -2.7553   -2.6313    2.7466 H       1  LIG1        0.0646
      9 C          -5.3924   -2.8547    2.2409 C.1     1  LIG1       -0.0498
     10 C          -6.0577   -3.8500    2.3546 C.1     1  LIG1       -0.1124
     11 H          -6.6567   -4.7266    2.4544 H       1  LIG1        0.1232
     12 C          -2.2522    1.7273    1.4839 C.1     1  LIG1       -0.0675
     13 C          -1.4522    2.6007    1.2670 C.1     1  LIG1       -0.1138
     14 H          -0.7605    3.3849    1.0578 H       1  LIG1        0.1232
     15 C          -6.5785    1.5782    0.4653 C.ar    1  LIG1        0.2225
     16 C          -5.3233    1.7455    1.1212 C.ar    1  LIG1        0.0647
     17 C          -4.9262    3.0540    1.3576 C.ar    1  LIG1       -0.0245
     18 C          -5.6708    4.1564    0.9328 C.ar    1  LIG1        0.0549
     19 C          -6.8433    3.8603    0.2163 C.ar    1  LIG1        0.1316
     20 N          -7.2656    2.6060    0.0157 N.ar    1  LIG1       -0.2074
     21 H          -4.0117    3.2426    1.9041 H       1  LIG1        0.0645
     22 O          -7.1346    0.3822    0.2579 O.3     1  LIG1       -0.4919
     23 H          -6.6188   -0.2682    0.7910 H       1  LIG1        0.2937
     24 N          -5.2918    5.4437    1.3153 N.pl3   1  LIG1       -0.3562
     25 H          -4.4216    5.4590    1.8286 H       1  LIG1        0.1424
     26 H          -5.2789    6.1483    0.5908 H       1  LIG1        0.1424
     27 C          -7.7612    4.8742   -0.3124 C.ar    1  LIG1        0.1731
     28 C          -7.6558    6.1234   -0.8794 C.ar    1  LIG1        0.0996
     29 C          -8.9781    6.5522   -1.2266 C.ar    1  LIG1        0.0038
     30 C          -9.8018    5.5361   -0.8556 C.ar    1  LIG1        0.1534
     31 O          -9.0690    4.5283   -0.3052 O.2     1  LIG1       -0.4504
     32 N          -5.4661    7.3890   -1.3715 N.1     1  LIG1       -0.1907
     33 C          -6.4575    6.8276   -1.1615 C.1     1  LIG1        0.1030
     34 H          -9.2495    7.4799   -1.7030 H       1  LIG1        0.0669
     35 C         -11.2183    5.2915   -0.9200 C.ar    1  LIG1        0.0868
     36 C         -12.2691    6.0852   -1.3293 C.ar    1  LIG1       -0.0042
     37 C         -13.4464    5.3010   -1.1522 C.ar    1  LIG1        0.0807
     38 C         -13.0802    4.0565   -0.6446 C.ar    1  LIG1        0.0683
     39 N         -11.7267    4.0773   -0.5206 N.ar    1  LIG1       -0.3504
     40 H         -11.1645    3.3375   -0.1259 H       1  LIG1        0.1660
     41 C         -12.2025    7.4807   -1.8584 C.3     1  LIG1       -0.0364
     42 H         -13.2058    7.8696   -2.0405 H       1  LIG1        0.0279
     43 H         -11.6516    7.5274   -2.8035 H       1  LIG1        0.0279
     44 H         -11.7047    8.1524   -1.1518 H       1  LIG1        0.0279
     45 N         -15.7890    6.1108   -1.8607 N.1     1  LIG1       -0.1908
     46 C         -14.7518    5.7240   -1.5215 C.1     1  LIG1        0.1016
     47 C         -15.0680    2.9090    0.3642 C.ar    1  LIG1        0.1266
     48 C         -15.7796    1.7491    0.6436 C.ar    1  LIG1       -0.0104
     49 C         -13.8464    2.8497   -0.3271 C.ar    1  LIG1        0.0410
     50 C         -15.2810    0.4978    0.2778 C.ar    1  LIG1        0.0031
     51 H         -16.7264    1.8270    1.1668 H       1  LIG1        0.0661
     52 C         -13.3582    1.5900   -0.6817 C.ar    1  LIG1       -0.0485
     53 C         -14.0499    0.4289   -0.3829 C.ar    1  LIG1       -0.0517
     54 H         -12.4185    1.5245   -1.2209 H       1  LIG1        0.0625
     55 O         -15.5051    4.1272    0.7518 O.3     1  LIG1       -0.5061
     56 H         -16.3856    4.0603    1.1406 H       1  LIG1        0.2922
     57 H         -13.6176   -0.5303   -0.6457 H       1  LIG1        0.0624
     58 C         -16.0323   -0.7225    0.5739 C.ar    1  LIG1        0.0658
     59 C         -16.9738   -1.0202    1.5488 C.ar    1  LIG1        0.0929
     60 C         -17.3628   -2.3885    1.3883 C.ar    1  LIG1        0.0680
     61 C         -16.6434   -2.8889    0.3049 C.ar    1  LIG1        0.0690
     62 N         -15.8579   -1.8617   -0.1477 N.ar    1  LIG1       -0.3520
     63 H         -15.2770   -1.9701   -0.9678 H       1  LIG1        0.1660
     64 N         -17.8589    0.5840    3.3609 N.1     1  LIG1       -0.1908
     65 C         -17.4586   -0.1445    2.5544 C.1     1  LIG1        0.1025
     66 C         -18.3027   -3.0397    2.2285 C.1     1  LIG1       -0.0662
     67 C         -19.1062   -3.5394    2.9742 C.1     1  LIG1       -0.1138
     68 H         -19.8128   -3.9695    3.6462 H       1  LIG1        0.1232
     69 C         -15.8123   -4.5437   -1.4281 C.ar    1  LIG1        0.2246
     70 C         -16.6377   -4.2047   -0.3326 C.ar    1  LIG1        0.0628
     71 C         -17.4841   -5.2211    0.1025 C.ar    1  LIG1       -0.0246
     72 C         -17.4893   -6.4848   -0.4822 C.ar    1  LIG1        0.0532
     73 C         -16.5877   -6.7158   -1.5322 C.ar    1  LIG1        0.1115
     74 N         -15.7964   -5.7271   -1.9874 N.ar    1  LIG1       -0.2090
     75 H         -18.1659   -5.0220    0.9202 H       1  LIG1        0.0645
     76 O         -14.9800   -3.5847   -1.9337 O.3     1  LIG1       -0.4792
     77 C         -14.1517   -3.9496   -3.0306 C.3     1  LIG1        0.0804
     78 H         -13.5574   -3.0648   -3.2572 H       1  LIG1        0.0660
     79 H         -13.5009   -4.7860   -2.7674 H       1  LIG1        0.0660
     80 H         -14.7538   -4.2277   -3.8988 H       1  LIG1        0.0660
     81 N         -18.3439   -7.4840   -0.0176 N.pl3   1  LIG1       -0.3563
     82 H         -19.1029   -7.1343    0.5508 H       1  LIG1        0.1424
     83 H         -18.6811   -8.1014   -0.7450 H       1  LIG1        0.1424
     84 C         -16.4569   -7.9934   -2.2213 C.ar    1  LIG1        0.0669
     85 C         -16.8396   -9.2941   -1.9292 C.ar    1  LIG1       -0.0349
     86 C         -16.3874  -10.1193   -2.9866 C.ar    1  LIG1       -0.0438
     87 C         -15.7447   -9.3093   -3.8925 C.ar    1  LIG1        0.0022
     88 N         -15.7924   -8.0334   -3.4203 N.ar    1  LIG1       -0.3594
     89 H         -15.3816   -7.2080   -3.8266 H       1  LIG1        0.1654
     90 H         -15.2644   -9.5432   -4.8303 H       1  LIG1        0.0807
     91 H         -17.3254   -9.6240   -1.0245 H       1  LIG1        0.0639
     92 H         -16.5154  -11.1883   -3.0705 H       1  LIG1        0.0633
@<TRIPOS>BOND
     1    90    87    1
     2    80    77    1
     3    87    88   ar
     4    87    86   ar
     5    89    88    1
     6    88    84   ar
     7    78    77    1
     8    92    86    1
     9    77    79    1
    10    77    76    1
    11    86    85   ar
    12    43    41    1
    13    84    85   ar
    14    84    73    1
    15    42    41    1
    16    74    73   ar
    17    74    69   ar
    18    76    69    1
    19    85    91    1
    20    45    46    3
    21    41    36    1
    22    41    44    1
    23    34    29    1
    24    73    72   ar
    25    46    37    1
    26    69    70   ar
    27    32    33    3
    28    36    37   ar
    29    36    35   ar
    30    29    28   ar
    31    29    30   ar
    32    54    52    1
    33    33    28    1
    34    37    38   ar
    35    63    62    1
    36    35    30    1
    37    35    39   ar
    38    28    27   ar
    39    30    31   ar
    40    83    81    1
    41    52    53   ar
    42    52    49   ar
    43    57    53    1
    44    38    39   ar
    45    38    49    1
    46    39    40    1
    47    72    81    1
    48    72    71   ar
    49    53    50   ar
    50    70    71   ar
    51    70    61    1
    52    49    47   ar
    53    27    31   ar
    54    27    19    1
    55    62    61   ar
    56    62    58   ar
    57    81    82    1
    58    20    19   ar
    59    20    15   ar
    60    71    75    1
    61    19    18   ar
    62    22    15    1
    63    22    23    1
    64    50    58    1
    65    50    48   ar
    66    61    60   ar
    67    47    48   ar
    68    47    55    1
    69    15    16   ar
    70    58    59   ar
    71    26    24    1
    72    48    51    1
    73    55    56    1
    74    18    24    1
    75    18    17   ar
    76    14    13    1
    77    16    17   ar
    78    16     5    1
    79    13    12    3
    80    24    25    1
    81    17    21    1
    82    60    59   ar
    83    60    66    1
    84    12     4    1
    85     5     6   ar
    86     5     4   ar
    87    59    65    1
    88     6     1   ar
    89     4     3   ar
    90     1     9    1
    91     1     2   ar
    92     3     7    1
    93     3     2   ar
    94    66    67    3
    95     9    10    3
    96    10    11    1
    97     2     8    1
    98    65    64    3
    99    67    68    1
