@<TRIPOS>MOLECULE
mol_data/opt/cam/geoms/mol2/6ee6ee6ee.out
 41 43 0 0 0
SMALL
GASTEIGER

@<TRIPOS>ATOM
      1 C          -4.1677   -1.8135   -1.3227 C.ar    1  LIG1        0.1139
      2 C          -3.1078   -2.1689   -0.4834 C.ar    1  LIG1       -0.0266
      3 C          -2.8001   -1.3376    0.5747 C.ar    1  LIG1       -0.0416
      4 C          -3.5448   -0.1723    0.7797 C.ar    1  LIG1        0.0508
      5 C          -4.5906    0.1023   -0.1248 C.ar    1  LIG1        0.0904
      6 N          -4.8863   -0.7010   -1.1421 N.ar    1  LIG1       -0.2371
      7 H          -1.9912   -1.5782    1.2551 H       1  LIG1        0.0631
      8 H          -2.5504   -3.0789   -0.6686 H       1  LIG1        0.0646
      9 C          -4.5192   -2.6539   -2.4326 C.1     1  LIG1       -0.0498
     10 C          -4.7891   -3.3782   -3.3541 C.1     1  LIG1       -0.1124
     11 H          -5.0418   -4.0091   -4.1754 H       1  LIG1        0.1232
     12 C          -3.2460    0.6803    1.8875 C.1     1  LIG1       -0.0675
     13 C          -2.9704    1.3753    2.8308 C.1     1  LIG1       -0.1138
     14 H          -2.7394    1.9986    3.6642 H       1  LIG1        0.1232
     15 C          -6.8245    1.2673    0.1123 C.ar    1  LIG1        0.1231
     16 C          -5.4241    1.3289   -0.0045 C.ar    1  LIG1        0.0366
     17 C          -4.8421    2.5857   -0.0330 C.ar    1  LIG1       -0.0324
     18 C          -5.6300    3.7355    0.0310 C.ar    1  LIG1        0.0514
     19 C          -7.0241    3.5642    0.1265 C.ar    1  LIG1        0.0904
     20 N          -7.5873    2.3625    0.1730 N.ar    1  LIG1       -0.2364
     21 H          -3.7656    2.6858   -0.1071 H       1  LIG1        0.0638
     22 C          -7.5153    0.0125    0.2102 C.1     1  LIG1       -0.0491
     23 C          -8.1079   -1.0278    0.3188 C.1     1  LIG1       -0.1124
     24 H          -8.6353   -1.9501    0.4027 H       1  LIG1        0.1232
     25 C          -5.0116    5.0244    0.0140 C.1     1  LIG1       -0.0675
     26 C          -4.4613    6.0947    0.0001 C.1     1  LIG1       -0.1138
     27 H          -3.9867    7.0491   -0.0102 H       1  LIG1        0.1232
     28 C          -8.8639    4.9073    1.2250 C.ar    1  LIG1        0.1224
     29 C          -7.9551    4.7242    0.1668 C.ar    1  LIG1        0.0366
     30 C          -7.9684    5.6506   -0.8664 C.ar    1  LIG1       -0.0330
     31 C          -8.8766    6.7081   -0.8419 C.ar    1  LIG1        0.0435
     32 C          -9.7450    6.7851    0.2534 C.ar    1  LIG1        0.0444
     33 N          -9.7381    5.9229    1.2569 N.ar    1  LIG1       -0.2448
     34 H          -7.2802    5.5502   -1.6976 H       1  LIG1        0.0638
     35 H         -10.4723    7.5908    0.3076 H       1  LIG1        0.0842
     36 C          -8.8773    4.0290    2.3608 C.1     1  LIG1       -0.0491
     37 C          -8.8869    3.3204    3.3321 C.1     1  LIG1       -0.1124
     38 H          -8.9031    2.6816    4.1849 H       1  LIG1        0.1232
     39 C          -8.9302    7.6773   -1.8900 C.1     1  LIG1       -0.0681
     40 C          -8.9790    8.4967   -2.7703 C.1     1  LIG1       -0.1139
     41 H          -9.0241    9.2209   -3.5509 H       1  LIG1        0.1232
@<TRIPOS>BOND
     1    11    10    1
     2    41    40    1
     3    10     9    3
     4    40    39    3
     5     9     1    1
     6    39    31    1
     7    34    30    1
     8     1     6   ar
     9     1     2   ar
    10     6     5   ar
    11    30    31   ar
    12    30    29   ar
    13    31    32   ar
    14     8     2    1
    15     2     3   ar
    16     5    16    1
    17     5     4   ar
    18    21    17    1
    19    17    16   ar
    20    17    18   ar
    21    27    26    1
    22    16    15   ar
    23    26    25    3
    24    25    18    1
    25    18    19   ar
    26    15    20   ar
    27    15    22    1
    28    19    29    1
    29    19    20   ar
    30    29    28   ar
    31    22    23    3
    32    32    35    1
    33    32    33   ar
    34    23    24    1
    35     3     4   ar
    36     3     7    1
    37     4    12    1
    38    28    33   ar
    39    28    36    1
    40    12    13    3
    41    36    37    3
    42    13    14    1
    43    37    38    1
