@<TRIPOS>MOLECULE
mol_data/opt/cam/geoms/mol2/6ef13al4fi-6fe-.out
 52 55 0 0 0
SMALL
GASTEIGER

@<TRIPOS>ATOM
      1 C          -4.5930   -1.9797    1.1334 C.ar    1  LIG1        0.1141
      2 C          -3.2116   -2.0312    1.3398 C.ar    1  LIG1       -0.0243
      3 C          -2.4636   -0.8844    1.1368 C.ar    1  LIG1       -0.0154
      4 C          -3.1021    0.2705    0.7093 C.ar    1  LIG1        0.1442
      5 C          -4.4862    0.2232    0.4624 C.ar    1  LIG1        0.1298
      6 N          -5.2076   -0.8743    0.7019 N.ar    1  LIG1       -0.2333
      7 H          -1.3953   -0.8574    1.3192 H       1  LIG1        0.0655
      8 H          -2.7486   -2.9519    1.6729 H       1  LIG1        0.0646
      9 C          -5.4060   -3.1388    1.3786 C.1     1  LIG1       -0.0498
     10 C          -6.0632   -4.1232    1.5942 C.1     1  LIG1       -0.1124
     11 H          -6.6539   -4.9905    1.7802 H       1  LIG1        0.1232
     12 O          -2.3739    1.4026    0.5574 O.3     1  LIG1       -0.5046
     13 H          -2.9771    2.1610    0.5615 H       1  LIG1        0.2922
     14 C          -5.2255    1.3861   -0.0212 C.ar    1  LIG1        0.0726
     15 C          -4.8454    2.5558   -0.6741 C.ar    1  LIG1        0.0077
     16 C          -6.0261    3.3097   -0.8792 C.ar    1  LIG1        0.1460
     17 C          -7.0945    2.6023   -0.3490 C.ar    1  LIG1        0.0927
     18 N          -6.5707    1.4340    0.1499 N.ar    1  LIG1       -0.3498
     19 H          -7.0770    0.6938    0.6130 H       1  LIG1        0.1661
     20 H          -3.8662    2.7805   -1.0686 H       1  LIG1        0.0676
     21 O          -6.1723    4.4889   -1.5271 O.3     1  LIG1       -0.4930
     22 C          -4.9866    5.0786   -2.0097 C.3     1  LIG1        0.0789
     23 H          -5.2750    6.0219   -2.4734 H       1  LIG1        0.0660
     24 H          -4.2778    5.2793   -1.1968 H       1  LIG1        0.0660
     25 H          -4.4968    4.4458   -2.7603 H       1  LIG1        0.0660
     26 C          -9.0531    4.1123    0.0528 C.ar    1  LIG1        0.1266
     27 C         -10.4270    4.3178    0.0482 C.ar    1  LIG1       -0.0114
     28 C          -8.5332    2.8669   -0.3314 C.ar    1  LIG1        0.0436
     29 C         -11.3182    3.3018   -0.3010 C.ar    1  LIG1       -0.0064
     30 H         -10.8223    5.2899    0.3329 H       1  LIG1        0.0660
     31 C          -9.4400    1.8599   -0.6667 C.ar    1  LIG1       -0.0455
     32 C         -10.8221    2.0353   -0.6544 C.ar    1  LIG1       -0.0417
     33 H          -9.0425    0.8940   -0.9654 H       1  LIG1        0.0628
     34 O          -8.1835    5.0763    0.4429 O.3     1  LIG1       -0.5061
     35 H          -8.6707    5.8829    0.6478 H       1  LIG1        0.2922
     36 C         -11.7392    0.8850   -0.9885 C.3     1  LIG1       -0.0391
     37 H         -11.1667   -0.0315   -1.1423 H       1  LIG1        0.0278
     38 H         -12.3206    1.0714   -1.8961 H       1  LIG1        0.0278
     39 H         -12.4564    0.7036   -0.1830 H       1  LIG1        0.0278
     40 C         -13.5372    3.6277   -1.4630 C.ar    1  LIG1        0.2203
     41 C         -12.7792    3.5884   -0.2738 C.ar    1  LIG1        0.0450
     42 C         -13.4518    3.8642    0.9040 C.ar    1  LIG1       -0.0321
     43 C         -14.8247    4.1390    0.8875 C.ar    1  LIG1        0.0436
     44 C         -15.4597    4.1213   -0.3553 C.ar    1  LIG1        0.0468
     45 N         -14.8343    3.8779   -1.5014 N.ar    1  LIG1       -0.2197
     46 H         -12.9133    3.8546    1.8458 H       1  LIG1        0.0638
     47 H         -16.5265    4.3192   -0.4181 H       1  LIG1        0.0843
     48 O         -12.9658    3.4091   -2.6647 O.3     1  LIG1       -0.4920
     49 H         -12.0095    3.3194   -2.5431 H       1  LIG1        0.2937
     50 C         -15.5509    4.4194    2.0856 C.1     1  LIG1       -0.0681
     51 C         -16.1640    4.6562    3.0944 C.1     1  LIG1       -0.1139
     52 H         -16.7093    4.8648    3.9857 H       1  LIG1        0.1232
@<TRIPOS>BOND
     1    25    22    1
     2    48    49    1
     3    48    40    1
     4    23    22    1
     5    22    21    1
     6    22    24    1
     7    38    36    1
     8    21    16    1
     9    45    40   ar
    10    45    44   ar
    11    40    41   ar
    12    37    36    1
    13    20    15    1
    14    36    32    1
    15    36    39    1
    16    33    31    1
    17    16    15   ar
    18    16    17   ar
    19    15    14   ar
    20    31    32   ar
    21    31    28   ar
    22    32    29   ar
    23    47    44    1
    24    44    43   ar
    25    17    28    1
    26    17    18   ar
    27    28    26   ar
    28    29    41    1
    29    29    27   ar
    30    41    42   ar
    31    14    18   ar
    32    14     5    1
    33    27    26   ar
    34    27    30    1
    35    26    34    1
    36    18    19    1
    37    34    35    1
    38     5     6   ar
    39     5     4   ar
    40    12    13    1
    41    12     4    1
    42     6     1   ar
    43     4     3   ar
    44    43    42   ar
    45    43    50    1
    46    42    46    1
    47     1     2   ar
    48     1     9    1
    49     3     7    1
    50     3     2   ar
    51     2     8    1
    52     9    10    3
    53    10    11    1
    54    50    51    3
    55    51    52    1
