@<TRIPOS>MOLECULE
mol_data/opt/cam/geoms/mol2/6ef6dl13hl13de-.out
 53 56 0 0 0
SMALL
GASTEIGER

@<TRIPOS>ATOM
      1 C          -4.5479   -2.2011   -0.6755 C.ar    1  LIG1        0.1141
      2 C          -3.3620   -2.4601    0.0225 C.ar    1  LIG1       -0.0243
      3 C          -2.8262   -1.4717    0.8240 C.ar    1  LIG1       -0.0154
      4 C          -3.4777   -0.2464    0.9055 C.ar    1  LIG1        0.1429
      5 C          -4.6487   -0.0584    0.1545 C.ar    1  LIG1        0.1164
      6 N          -5.1669   -1.0207   -0.6049 N.ar    1  LIG1       -0.2347
      7 H          -1.9214   -1.6269    1.4005 H       1  LIG1        0.0655
      8 H          -2.8853   -3.4289   -0.0660 H       1  LIG1        0.0646
      9 C          -5.1323   -3.2140   -1.5087 C.1     1  LIG1       -0.0498
     10 C          -5.5952   -4.0827   -2.1996 C.1     1  LIG1       -0.1124
     11 H          -6.0231   -4.8430   -2.8119 H       1  LIG1        0.1232
     12 O          -2.9448    0.7071    1.7102 O.3     1  LIG1       -0.5046
     13 H          -3.5834    1.4226    1.8299 H       1  LIG1        0.2922
     14 C          -6.7375    1.3460    0.3991 C.ar    1  LIG1        0.1503
     15 C          -5.3656    1.2420    0.1724 C.ar    1  LIG1        0.0433
     16 C          -4.6911    2.4397   -0.1016 C.ar    1  LIG1       -0.0057
     17 C          -5.3702    3.6442   -0.1313 C.ar    1  LIG1        0.1481
     18 C          -6.7548    3.6622    0.1830 C.ar    1  LIG1        0.1320
     19 N          -7.3909    2.5081    0.4081 N.ar    1  LIG1       -0.2305
     20 H          -3.6364    2.3987   -0.3437 H       1  LIG1        0.0662
     21 N          -8.2442   -0.6924    0.9735 N.1     1  LIG1       -0.1893
     22 C          -7.5533    0.1907    0.6945 C.1     1  LIG1        0.1198
     23 O          -4.7934    4.8162   -0.4929 O.3     1  LIG1       -0.4929
     24 C          -3.4493    4.8005   -0.9477 C.3     1  LIG1        0.0789
     25 H          -3.2214    5.8225   -1.2476 H       1  LIG1        0.0660
     26 H          -2.7611    4.4955   -0.1526 H       1  LIG1        0.0660
     27 H          -3.3340    4.1361   -1.8097 H       1  LIG1        0.0660
     28 C          -7.5985    4.8392    0.2351 C.ar    1  LIG1        0.0937
     29 C          -7.4140    6.2198    0.3483 C.ar    1  LIG1        0.0948
     30 C          -8.7085    6.8085    0.3367 C.ar    1  LIG1        0.1679
     31 C          -9.6500    5.7956    0.2679 C.ar    1  LIG1        0.1088
     32 N          -8.9655    4.6170    0.2312 N.ar    1  LIG1       -0.3473
     33 H          -9.3403    3.7012    0.0381 H       1  LIG1        0.1662
     34 N          -6.2672    6.9387    0.6084 N.pl3   1  LIG1       -0.3534
     35 H          -5.4202    6.5817    0.1971 H       1  LIG1        0.1425
     36 H          -6.3836    7.9388    0.5838 H       1  LIG1        0.1425
     37 O          -8.9538    8.1391    0.4998 O.3     1  LIG1       -0.4911
     38 C          -8.6696    8.9431   -0.6466 C.3     1  LIG1        0.0790
     39 H          -8.8959    9.9710   -0.3636 H       1  LIG1        0.0660
     40 H          -7.6143    8.8688   -0.9343 H       1  LIG1        0.0660
     41 H          -9.2976    8.6606   -1.4928 H       1  LIG1        0.0660
     42 C         -11.0950    5.8027    0.3755 C.ar    1  LIG1        0.0854
     43 C         -12.0838    6.6341   -0.1243 C.ar    1  LIG1        0.0938
     44 C         -13.3532    6.1231    0.3152 C.ar    1  LIG1        0.0600
     45 C         -13.0868    5.0006    1.0601 C.ar    1  LIG1        0.0190
     46 N         -11.7341    4.8171    1.0816 N.ar    1  LIG1       -0.3573
     47 H         -11.2505    4.1268    1.6348 H       1  LIG1        0.1655
     48 H         -13.7619    4.3326    1.5705 H       1  LIG1        0.0820
     49 N         -11.7723    8.6602   -1.6834 N.1     1  LIG1       -0.1908
     50 C         -11.9016    7.7543   -0.9740 C.1     1  LIG1        0.1026
     51 C         -14.6326    6.6664    0.0239 C.1     1  LIG1       -0.0669
     52 C         -15.7129    7.1327   -0.2272 C.1     1  LIG1       -0.1138
     53 H         -16.6662    7.5516   -0.4538 H       1  LIG1        0.1232
@<TRIPOS>BOND
     1    11    10    1
     2    10     9    3
     3    27    24    1
     4    49    50    3
     5     9     1    1
     6    41    38    1
     7    25    24    1
     8    50    43    1
     9    24    23    1
    10    24    26    1
    11    40    38    1
    12     1     6   ar
    13     1     2   ar
    14    38    39    1
    15    38    37    1
    16     6     5   ar
    17    23    17    1
    18    53    52    1
    19    20    16    1
    20    52    51    3
    21    17    16   ar
    22    17    18   ar
    23    43    44   ar
    24    43    42   ar
    25    16    15   ar
    26     8     2    1
    27     2     3   ar
    28    51    44    1
    29    33    32    1
    30     5    15    1
    31     5     4   ar
    32    15    14   ar
    33    18    28    1
    34    18    19   ar
    35    35    34    1
    36    32    28   ar
    37    32    31   ar
    38    28    29   ar
    39    31    30   ar
    40    31    42    1
    41    44    45   ar
    42    30    29   ar
    43    30    37    1
    44    29    34    1
    45    42    46   ar
    46    14    19   ar
    47    14    22    1
    48    36    34    1
    49    22    21    3
    50     3     4   ar
    51     3     7    1
    52     4    12    1
    53    45    46   ar
    54    45    48    1
    55    46    47    1
    56    12    13    1
