@<TRIPOS>MOLECULE
mol_data/opt/cam/geoms/mol2/6ef6ef6ef6ef.out
 50 53 0 0 0
SMALL
GASTEIGER

@<TRIPOS>ATOM
      1 C          -3.5964   -1.6961   -1.2702 C.ar    1  LIG1        0.1141
      2 C          -3.0237   -2.2801   -0.1343 C.ar    1  LIG1       -0.0243
      3 C          -3.3148   -1.7543    1.1088 C.ar    1  LIG1       -0.0154
      4 C          -4.1652   -0.6570    1.1900 C.ar    1  LIG1        0.1429
      5 C          -4.6904   -0.1265    0.0012 C.ar    1  LIG1        0.1164
      6 N          -4.4121   -0.6416   -1.1922 N.ar    1  LIG1       -0.2347
      7 H          -2.9058   -2.1738    2.0208 H       1  LIG1        0.0655
      8 H          -2.3655   -3.1342   -0.2407 H       1  LIG1        0.0646
      9 C          -3.3118   -2.2252   -2.5752 C.1     1  LIG1       -0.0498
     10 C          -3.0525   -2.6918   -3.6533 C.1     1  LIG1       -0.1124
     11 H          -2.8329   -3.0929   -4.6158 H       1  LIG1        0.1232
     12 O          -4.4473   -0.1586    2.4165 O.3     1  LIG1       -0.5046
     13 H          -5.1052    0.5456    2.3357 H       1  LIG1        0.2922
     14 C          -6.9134    1.0157   -0.4381 C.ar    1  LIG1        0.1233
     15 C          -5.5883    1.0616    0.0414 C.ar    1  LIG1        0.0413
     16 C          -5.1298    2.2650    0.5624 C.ar    1  LIG1       -0.0061
     17 C          -5.9641    3.3767    0.5753 C.ar    1  LIG1        0.1435
     18 C          -7.2592    3.2415    0.0565 C.ar    1  LIG1        0.1164
     19 N          -7.7084    2.0872   -0.4238 N.ar    1  LIG1       -0.2340
     20 H          -4.1173    2.3648    0.9402 H       1  LIG1        0.0662
     21 C          -7.4823   -0.2014   -0.9441 C.1     1  LIG1       -0.0491
     22 C          -7.9740   -1.2210   -1.3489 C.1     1  LIG1       -0.1124
     23 H          -8.4043   -2.1220   -1.7214 H       1  LIG1        0.1232
     24 O          -5.4802    4.5293    1.0908 O.3     1  LIG1       -0.5046
     25 H          -6.1764    5.2008    1.0911 H       1  LIG1        0.2922
     26 C          -9.4104    4.4082    0.7209 C.ar    1  LIG1        0.1233
     27 C          -8.1841    4.4079    0.0260 C.ar    1  LIG1        0.0413
     28 C          -7.8494    5.5439   -0.7001 C.ar    1  LIG1       -0.0061
     29 C          -8.7272    6.6210   -0.7419 C.ar    1  LIG1        0.1435
     30 C          -9.9345    6.5223   -0.0362 C.ar    1  LIG1        0.1164
     31 N         -10.2481    5.4457    0.6758 N.ar    1  LIG1       -0.2340
     32 H          -6.9229    5.6001   -1.2626 H       1  LIG1        0.0662
     33 C          -9.8060    3.2949    1.5367 C.1     1  LIG1       -0.0491
     34 C         -10.1349    2.3763    2.2391 C.1     1  LIG1       -0.1124
     35 H         -10.4378    1.5563    2.8488 H       1  LIG1        0.1232
     36 O          -8.3664    7.7076   -1.4603 O.3     1  LIG1       -0.5046
     37 H          -9.0377    8.3971   -1.3630 H       1  LIG1        0.2922
     38 C         -11.3050    8.3239    1.1030 C.ar    1  LIG1        0.1226
     39 C         -10.9190    7.6396   -0.0674 C.ar    1  LIG1        0.0412
     40 C         -11.4852    8.0322   -1.2753 C.ar    1  LIG1       -0.0067
     41 C         -12.4198    9.0614   -1.2874 C.ar    1  LIG1        0.1356
     42 C         -12.7467    9.6655   -0.0749 C.ar    1  LIG1        0.0704
     43 N         -12.2051    9.3124    1.0810 N.ar    1  LIG1       -0.2424
     44 H         -11.2370    7.5277   -2.2037 H       1  LIG1        0.0662
     45 H         -13.4792   10.4724   -0.0456 H       1  LIG1        0.0867
     46 C         -10.7241    8.0088    2.3775 C.1     1  LIG1       -0.0491
     47 C         -10.2273    7.7686    3.4457 C.1     1  LIG1       -0.1124
     48 H          -9.8016    7.5466    4.3972 H       1  LIG1        0.1232
     49 O         -12.9660    9.4240   -2.4703 O.3     1  LIG1       -0.5052
     50 H         -13.6140   10.1259   -2.3313 H       1  LIG1        0.2922
@<TRIPOS>BOND
     1    11    10    1
     2    10     9    3
     3     9     1    1
     4    49    50    1
     5    49    41    1
     6    44    40    1
     7    23    22    1
     8    36    37    1
     9    36    29    1
    10    22    21    3
    11    41    40   ar
    12    41    42   ar
    13    40    39   ar
    14     1     6   ar
    15     1     2   ar
    16    32    28    1
    17     6     5   ar
    18    21    14    1
    19    29    28   ar
    20    29    30   ar
    21    28    27   ar
    22    14    19   ar
    23    14    15   ar
    24    19    18   ar
    25     8     2    1
    26     2     3   ar
    27    42    45    1
    28    42    43   ar
    29    39    30    1
    30    39    38   ar
    31    30    31   ar
    32     5    15    1
    33     5     4   ar
    34    27    18    1
    35    27    26   ar
    36    15    16   ar
    37    18    17   ar
    38    16    17   ar
    39    16    20    1
    40    17    24    1
    41    31    26   ar
    42    26    33    1
    43    43    38   ar
    44    24    25    1
    45    38    46    1
    46     3     4   ar
    47     3     7    1
    48     4    12    1
    49    33    34    3
    50    34    35    1
    51    13    12    1
    52    46    47    3
    53    47    48    1
