@<TRIPOS>MOLECULE
mol_data/opt/cam/geoms/mol2/6ef6ef6ef.out
 38 40 0 0 0
SMALL
GASTEIGER

@<TRIPOS>ATOM
      1 C          -4.0612   -1.9470   -0.9227 C.ar    1  LIG1        0.1141
      2 C          -3.1544   -2.2365    0.1035 C.ar    1  LIG1       -0.0243
      3 C          -3.0451   -1.3633    1.1675 C.ar    1  LIG1       -0.0154
      4 C          -3.8379   -0.2209    1.1814 C.ar    1  LIG1        0.1429
      5 C          -4.7158   -0.0012    0.1082 C.ar    1  LIG1        0.1164
      6 N          -4.8216   -0.8492   -0.9099 N.ar    1  LIG1       -0.2347
      7 H          -2.3657   -1.5442    1.9926 H       1  LIG1        0.0655
      8 H          -2.5544   -3.1374    0.0547 H       1  LIG1        0.0646
      9 C          -4.1963   -2.8401   -2.0400 C.1     1  LIG1       -0.0498
     10 C          -4.2847   -3.6081   -2.9617 C.1     1  LIG1       -0.1124
     11 H          -4.3751   -4.2783   -3.7852 H       1  LIG1        0.1232
     12 O          -3.7246    0.6208    2.2355 O.3     1  LIG1       -0.5046
     13 H          -4.3816    1.3260    2.1585 H       1  LIG1        0.2922
     14 C          -6.9751    1.1530    0.0482 C.ar    1  LIG1        0.1233
     15 C          -5.5670    1.2209    0.0723 C.ar    1  LIG1        0.0413
     16 C          -4.9796    2.4798    0.0607 C.ar    1  LIG1       -0.0061
     17 C          -5.7779    3.6161    0.0030 C.ar    1  LIG1        0.1435
     18 C          -7.1689    3.4494   -0.0389 C.ar    1  LIG1        0.1164
     19 N          -7.7352    2.2482   -0.0080 N.ar    1  LIG1       -0.2340
     20 H          -3.9007    2.5970    0.0703 H       1  LIG1        0.0662
     21 C          -7.6633   -0.1055    0.1103 C.1     1  LIG1       -0.0491
     22 C          -8.2483   -1.1531    0.1842 C.1     1  LIG1       -0.1124
     23 H          -8.7661   -2.0831    0.2347 H       1  LIG1        0.1232
     24 O          -5.1675    4.8228   -0.0072 O.3     1  LIG1       -0.5046
     25 H          -5.8351    5.5224    0.0081 H       1  LIG1        0.2922
     26 C          -9.0140    4.9233    0.8810 C.ar    1  LIG1        0.1226
     27 C          -8.0681    4.6340   -0.1234 C.ar    1  LIG1        0.0412
     28 C          -7.9882    5.4897   -1.2166 C.ar    1  LIG1       -0.0067
     29 C          -8.8483    6.5792   -1.2941 C.ar    1  LIG1        0.1356
     30 C          -9.7591    6.7715   -0.2572 C.ar    1  LIG1        0.0704
     31 N          -9.8373    5.9737    0.7971 N.ar    1  LIG1       -0.2424
     32 H          -7.2903    5.3037   -2.0267 H       1  LIG1        0.0662
     33 H         -10.4522    7.6125   -0.2866 H       1  LIG1        0.0867
     34 C          -9.1183    4.1149    2.0628 C.1     1  LIG1       -0.0491
     35 C          -9.1983    3.4579    3.0666 C.1     1  LIG1       -0.1124
     36 H          -9.2830    2.8666    3.9492 H       1  LIG1        0.1232
     37 O          -8.7618    7.3956   -2.3692 O.3     1  LIG1       -0.5052
     38 H          -9.4309    8.0888   -2.3092 H       1  LIG1        0.2922
@<TRIPOS>BOND
     1    11    10    1
     2    10     9    3
     3    37    38    1
     4    37    29    1
     5     9     1    1
     6    32    28    1
     7    29    28   ar
     8    29    30   ar
     9    28    27   ar
    10     1     6   ar
    11     1     2   ar
    12     6     5   ar
    13    33    30    1
    14    30    31   ar
    15    27    18    1
    16    27    26   ar
    17    18    19   ar
    18    18    17   ar
    19    19    14   ar
    20    24    17    1
    21    24    25    1
    22    17    16   ar
    23    14    15   ar
    24    14    21    1
    25     8     2    1
    26    16    20    1
    27    16    15   ar
    28    15     5    1
    29     2     3   ar
    30     5     4   ar
    31    21    22    3
    32    22    23    1
    33    31    26   ar
    34    26    34    1
    35     3     4   ar
    36     3     7    1
    37     4    12    1
    38    34    35    3
    39    13    12    1
    40    35    36    1
