@<TRIPOS>MOLECULE
mol_data/opt/cam/geoms/mol2/6ef6ef-6ef6ef-.out
 50 53 0 0 0
SMALL
GASTEIGER

@<TRIPOS>ATOM
      1 C          -4.0548   -1.9475    0.9629 C.ar    1  LIG1        0.1141
      2 C          -3.4025   -2.5214   -0.1335 C.ar    1  LIG1       -0.0243
      3 C          -3.3433   -1.8037   -1.3084 C.ar    1  LIG1       -0.0154
      4 C          -3.9160   -0.5342   -1.3815 C.ar    1  LIG1        0.1429
      5 C          -4.5503   -0.0258   -0.2305 C.ar    1  LIG1        0.1164
      6 N          -4.6133   -0.7397    0.8980 N.ar    1  LIG1       -0.2347
      7 H          -2.8634   -2.1972   -2.1972 H       1  LIG1        0.0655
      8 H          -2.9620   -3.5077   -0.0502 H       1  LIG1        0.0646
      9 C          -4.1544   -2.6623    2.2057 C.1     1  LIG1       -0.0498
     10 C          -4.2221   -3.2854    3.2325 C.1     1  LIG1       -0.1124
     11 H          -4.2854   -3.8267    4.1484 H       1  LIG1        0.1232
     12 O          -3.8821    0.0740   -2.5869 O.3     1  LIG1       -0.5046
     13 H          -3.7735    1.0339   -2.4903 H       1  LIG1        0.2922
     14 C          -4.8735    2.4979   -0.6755 C.ar    1  LIG1        0.1233
     15 C          -5.3036    1.2602   -0.1720 C.ar    1  LIG1        0.0413
     16 C          -6.5258    1.2520    0.4978 C.ar    1  LIG1       -0.0061
     17 C          -7.2805    2.4059    0.5999 C.ar    1  LIG1        0.1435
     18 C          -6.8006    3.5818   -0.0077 C.ar    1  LIG1        0.1164
     19 N          -5.6137    3.6119   -0.5928 N.ar    1  LIG1       -0.2340
     20 H          -6.8568    0.3282    0.9616 H       1  LIG1        0.0662
     21 C          -3.5824    2.6647   -1.2843 C.1     1  LIG1       -0.0491
     22 C          -2.5060    2.7864   -1.8122 C.1     1  LIG1       -0.1124
     23 H          -1.5460    2.9090   -2.2603 H       1  LIG1        0.1232
     24 O          -8.4430    2.4709    1.2816 O.3     1  LIG1       -0.5046
     25 H          -8.6805    1.5965    1.6134 H       1  LIG1        0.2922
     26 C          -8.8750    4.9943   -0.4382 C.ar    1  LIG1        0.1233
     27 C          -7.5588    4.8582    0.0410 C.ar    1  LIG1        0.0413
     28 C          -6.9425    5.9954    0.5312 C.ar    1  LIG1       -0.0061
     29 C          -7.6232    7.2072    0.5954 C.ar    1  LIG1        0.1435
     30 C          -8.9525    7.2430    0.1326 C.ar    1  LIG1        0.1164
     31 N          -9.5256    6.1547   -0.3868 N.ar    1  LIG1       -0.2340
     32 H          -5.9143    5.9612    0.8717 H       1  LIG1        0.0662
     33 C          -9.5634    3.9082   -1.0812 C.1     1  LIG1       -0.0491
     34 C         -10.1317    3.0138   -1.6506 C.1     1  LIG1       -0.1124
     35 H         -10.6427    2.2254   -2.1534 H       1  LIG1        0.1232
     36 O          -6.9193    8.2753    1.0298 O.3     1  LIG1       -0.5046
     37 H          -7.4808    8.8697    1.5531 H       1  LIG1        0.2922
     38 C          -9.9523    9.4395    1.0456 C.ar    1  LIG1        0.1226
     39 C          -9.7938    8.4712    0.0411 C.ar    1  LIG1        0.0412
     40 C         -10.5250    8.6514   -1.1339 C.ar    1  LIG1       -0.0067
     41 C         -11.3320    9.7642   -1.2813 C.ar    1  LIG1        0.1356
     42 C         -11.3944   10.6864   -0.2306 C.ar    1  LIG1        0.0704
     43 N         -10.7329   10.5230    0.8977 N.ar    1  LIG1       -0.2424
     44 H         -10.4542    7.8972   -1.9111 H       1  LIG1        0.0662
     45 H         -12.0170   11.5712   -0.3323 H       1  LIG1        0.0867
     46 C          -9.3150    9.3147    2.3276 C.1     1  LIG1       -0.0491
     47 C          -8.7568    9.2102    3.3905 C.1     1  LIG1       -0.1124
     48 H          -8.2850    9.1133    4.3419 H       1  LIG1        0.1232
     49 O         -12.0674   10.0223   -2.3871 O.3     1  LIG1       -0.5052
     50 H         -11.9561    9.3081   -3.0265 H       1  LIG1        0.2922
@<TRIPOS>BOND
     1    50    49    1
     2    12    13    1
     3    12     4    1
     4    49    41    1
     5    23    22    1
     6     7     3    1
     7    35    34    1
     8    44    40    1
     9    22    21    3
    10    34    33    3
    11     4     3   ar
    12     4     5   ar
    13     3     2   ar
    14    21    14    1
    15    41    40   ar
    16    41    42   ar
    17    40    39   ar
    18    33    26    1
    19    14    19   ar
    20    14    15   ar
    21    19    18   ar
    22    26    31   ar
    23    26    27   ar
    24    31    30   ar
    25    45    42    1
    26    42    43   ar
    27     5    15    1
    28     5     6   ar
    29    15    16   ar
    30     2     8    1
    31     2     1   ar
    32    18    27    1
    33    18    17   ar
    34    27    28   ar
    35    39    30    1
    36    39    38   ar
    37    30    29   ar
    38    16    17   ar
    39    16    20    1
    40    28    29   ar
    41    28    32    1
    42    29    36    1
    43    17    24    1
    44    43    38   ar
    45     6     1   ar
    46     1     9    1
    47    36    37    1
    48    38    46    1
    49    24    25    1
    50     9    10    3
    51    46    47    3
    52    10    11    1
    53    47    48    1
