@<TRIPOS>MOLECULE
mol_data/opt/cam/geoms/mol2/6ef6ef-12ai-12ea-.out
 45 48 0 0 0
SMALL
GASTEIGER

@<TRIPOS>ATOM
      1 C          -4.2153   -2.1740    0.3444 C.ar    1  LIG1        0.1141
      2 C          -2.9361   -2.1318   -0.2225 C.ar    1  LIG1       -0.0243
      3 C          -2.4760   -0.9416   -0.7498 C.ar    1  LIG1       -0.0154
      4 C          -3.2985    0.1783   -0.6955 C.ar    1  LIG1        0.1429
      5 C          -4.5649    0.0526   -0.1021 C.ar    1  LIG1        0.1164
      6 N          -5.0045   -1.0982    0.3977 N.ar    1  LIG1       -0.2347
      7 H          -1.4977   -0.8559   -1.2088 H       1  LIG1        0.0655
      8 H          -2.3262   -3.0270   -0.2446 H       1  LIG1        0.0646
      9 C          -4.7191   -3.4002    0.8984 C.1     1  LIG1       -0.0498
     10 C          -5.1108   -4.4423    1.3541 C.1     1  LIG1       -0.1124
     11 H          -5.4728   -5.3576    1.7625 H       1  LIG1        0.1232
     12 O          -2.8351    1.3350   -1.2247 O.3     1  LIG1       -0.5046
     13 H          -3.5308    2.0056   -1.1926 H       1  LIG1        0.2922
     14 C          -6.7546    1.2449   -0.5839 C.ar    1  LIG1        0.1234
     15 C          -5.4687    1.2320   -0.0036 C.ar    1  LIG1        0.0413
     16 C          -5.0641    2.3650    0.6928 C.ar    1  LIG1       -0.0060
     17 C          -5.9166    3.4558    0.8002 C.ar    1  LIG1        0.1465
     18 C          -7.1699    3.3846    0.1708 C.ar    1  LIG1        0.1486
     19 N          -7.5658    2.2984   -0.4891 N.ar    1  LIG1       -0.2310
     20 H          -4.1042    2.4014    1.1976 H       1  LIG1        0.0662
     21 C          -7.2397    0.1292   -1.3470 C.1     1  LIG1       -0.0491
     22 C          -7.6470   -0.7890   -2.0075 C.1     1  LIG1       -0.1124
     23 H          -8.0124   -1.6097   -2.5805 H       1  LIG1        0.1232
     24 O          -5.5021    4.5271    1.5140 O.3     1  LIG1       -0.5045
     25 H          -6.2673    5.0883    1.7111 H       1  LIG1        0.2922
     26 C          -8.0950    4.5192    0.2323 C.ar    1  LIG1        0.1578
     27 C          -7.9048    5.8730    0.2782 C.ar    1  LIG1       -0.0106
     28 C          -9.1975    6.4793    0.3205 C.ar    1  LIG1       -0.0009
     29 C         -10.0804    5.4360    0.2858 C.ar    1  LIG1        0.1747
     30 O          -9.4171    4.2460    0.2385 O.2     1  LIG1       -0.4498
     31 H          -6.9581    6.3932    0.2254 H       1  LIG1        0.0659
     32 C          -9.4939    7.9403    0.4180 C.3     1  LIG1       -0.0360
     33 H         -10.4759    8.1147    0.8604 H       1  LIG1        0.0279
     34 H          -9.4969    8.4165   -0.5665 H       1  LIG1        0.0279
     35 H          -8.7438    8.4430    1.0336 H       1  LIG1        0.0279
     36 C         -11.5228    5.3639    0.3071 C.ar    1  LIG1        0.1852
     37 C         -12.5119    6.1266   -0.2639 C.ar    1  LIG1        0.0734
     38 C         -13.7537    5.5371    0.1554 C.ar    1  LIG1       -0.0077
     39 C         -13.4249    4.4735    0.9205 C.ar    1  LIG1        0.0939
     40 O         -12.0786    4.3564    1.0255 O.2     1  LIG1       -0.4586
     41 H         -14.0040    3.7266    1.4392 H       1  LIG1        0.1030
     42 C         -12.3565    7.2259   -1.1499 C.1     1  LIG1       -0.0658
     43 C         -12.2525    8.1526   -1.9116 C.1     1  LIG1       -0.1138
     44 H         -12.1603    8.9651   -2.5949 H       1  LIG1        0.1232
     45 H         -14.7439    5.8736   -0.1095 H       1  LIG1        0.0661
@<TRIPOS>BOND
     1    44    43    1
     2    23    22    1
     3    22    21    3
     4    43    42    3
     5    21    14    1
     6    12    13    1
     7    12     4    1
     8     7     3    1
     9    42    37    1
    10     3     4   ar
    11     3     2   ar
    12     4     5   ar
    13    14    19   ar
    14    14    15   ar
    15    34    32    1
    16    19    18   ar
    17    37    38   ar
    18    37    36   ar
    19     8     2    1
    20     2     1   ar
    21    45    38    1
    22     5    15    1
    23     5     6   ar
    24    15    16   ar
    25    38    39   ar
    26    18    26    1
    27    18    17   ar
    28    31    27    1
    29    26    30   ar
    30    26    27   ar
    31    30    29   ar
    32    27    28   ar
    33    29    36    1
    34    29    28   ar
    35    36    40   ar
    36    28    32    1
    37     1     6   ar
    38     1     9    1
    39    32    33    1
    40    32    35    1
    41    16    17   ar
    42    16    20    1
    43    17    24    1
    44     9    10    3
    45    39    40   ar
    46    39    41    1
    47    10    11    1
    48    24    25    1
