@<TRIPOS>MOLECULE
mol_data/opt/cam/geoms/mol2/6ef6ef.out
 26 27 0 0 0
SMALL
GASTEIGER

@<TRIPOS>ATOM
      1 C          -4.4248   -2.0514   -0.5256 C.ar    1  LIG1        0.1141
      2 C          -3.1794   -2.1165    0.1099 C.ar    1  LIG1       -0.0243
      3 C          -2.6852   -0.9879    0.7332 C.ar    1  LIG1       -0.0154
      4 C          -3.4409    0.1791    0.7043 C.ar    1  LIG1        0.1429
      5 C          -4.6766    0.1613    0.0384 C.ar    1  LIG1        0.1164
      6 N          -5.1499   -0.9303   -0.5541 N.ar    1  LIG1       -0.2347
      7 H          -1.7311   -0.9862    1.2477 H       1  LIG1        0.0655
      8 H          -2.6215   -3.0453    0.1094 H       1  LIG1        0.0646
      9 C          -4.9629   -3.2117   -1.1799 C.1     1  LIG1       -0.0498
     10 C          -5.3851   -4.2007   -1.7191 C.1     1  LIG1       -0.1124
     11 H          -5.7732   -5.0681   -2.2013 H       1  LIG1        0.1232
     12 O          -2.9458    1.2746    1.3268 O.3     1  LIG1       -0.5046
     13 H          -3.6008    1.9852    1.2985 H       1  LIG1        0.2922
     14 C          -6.8119    1.4486    0.5027 C.ar    1  LIG1        0.1226
     15 C          -5.5092    1.3951   -0.0345 C.ar    1  LIG1        0.0412
     16 C          -5.0077    2.5363   -0.6510 C.ar    1  LIG1       -0.0067
     17 C          -5.8032    3.6731   -0.7353 C.ar    1  LIG1        0.1356
     18 C          -7.0828    3.6209   -0.1869 C.ar    1  LIG1        0.0704
     19 N          -7.5702    2.5468    0.4155 N.ar    1  LIG1       -0.2424
     20 H          -4.0180    2.5453   -1.0962 H       1  LIG1        0.0662
     21 H          -7.7366    4.4918   -0.2390 H       1  LIG1        0.0867
     22 C          -7.3791    0.3289    1.1993 C.1     1  LIG1       -0.0491
     23 C          -7.8551   -0.5941    1.8051 C.1     1  LIG1       -0.1124
     24 H          -8.2809   -1.4189    2.3284 H       1  LIG1        0.1232
     25 O          -5.3003    4.7710   -1.3465 O.3     1  LIG1       -0.5052
     26 H          -5.9635    5.4723   -1.3554 H       1  LIG1        0.2922
@<TRIPOS>BOND
     1    11    10    1
     2    10     9    3
     3    26    25    1
     4    25    17    1
     5     9     1    1
     6    20    16    1
     7    17    16   ar
     8    17    18   ar
     9    16    15   ar
    10     6     1   ar
    11     6     5   ar
    12     1     2   ar
    13    21    18    1
    14    18    19   ar
    15    15     5    1
    16    15    14   ar
    17     5     4   ar
    18     8     2    1
    19     2     3   ar
    20    19    14   ar
    21    14    22    1
    22     4     3   ar
    23     4    12    1
    24     3     7    1
    25    22    23    3
    26    13    12    1
    27    23    24    1
