@<TRIPOS>MOLECULE
mol_data/opt/cam/geoms/mol2/6ef6ef-.out
 26 27 0 0 0
SMALL
GASTEIGER

@<TRIPOS>ATOM
      1 C          -4.5333   -2.0298    0.2841 C.ar    1  LIG1        0.1141
      2 C          -3.2465   -2.1825   -0.2425 C.ar    1  LIG1       -0.0243
      3 C          -2.5966   -1.0633   -0.7161 C.ar    1  LIG1       -0.0154
      4 C          -3.2177    0.1837   -0.6545 C.ar    1  LIG1        0.1429
      5 C          -4.5134    0.2527   -0.1048 C.ar    1  LIG1        0.1164
      6 N          -5.1378   -0.8435    0.3368 N.ar    1  LIG1       -0.2347
      7 H          -1.6035   -1.1164   -1.1476 H       1  LIG1        0.0655
      8 H          -2.7842   -3.1618   -0.2756 H       1  LIG1        0.0646
      9 C          -5.2565   -3.1692    0.7782 C.1     1  LIG1       -0.0498
     10 C          -5.8370   -4.1418    1.1835 C.1     1  LIG1       -0.1124
     11 H          -6.3600   -4.9955    1.5489 H       1  LIG1        0.1232
     12 O          -2.5484    1.2196   -1.2051 O.3     1  LIG1       -0.5046
     13 H          -2.7009    2.0374   -0.7041 H       1  LIG1        0.2922
     14 C          -4.9434    2.7571    0.3514 C.ar    1  LIG1        0.1226
     15 C          -5.3577    1.4826   -0.0676 C.ar    1  LIG1        0.0412
     16 C          -6.6952    1.3423   -0.4404 C.ar    1  LIG1       -0.0067
     17 C          -7.5370    2.4389   -0.4199 C.ar    1  LIG1        0.1356
     18 C          -7.0143    3.6729   -0.0167 C.ar    1  LIG1        0.0704
     19 N          -5.7615    3.8226    0.3643 N.ar    1  LIG1       -0.2424
     20 H          -7.0550    0.3597   -0.7283 H       1  LIG1        0.0662
     21 H          -7.6589    4.5474   -0.0028 H       1  LIG1        0.0867
     22 C          -3.6135    3.0010    0.8384 C.1     1  LIG1       -0.0491
     23 C          -2.4886    3.1978    1.2232 C.1     1  LIG1       -0.1124
     24 H          -1.5025    3.3764    1.5879 H       1  LIG1        0.1232
     25 O          -8.8424    2.3956   -0.7715 O.3     1  LIG1       -0.5052
     26 H          -9.0881    1.4921   -1.0049 H       1  LIG1        0.2922
@<TRIPOS>BOND
     1    12    13    1
     2    12     4    1
     3     7     3    1
     4    26    25    1
     5    25    17    1
     6    20    16    1
     7     3     4   ar
     8     3     2   ar
     9     4     5   ar
    10    16    17   ar
    11    16    15   ar
    12    17    18   ar
    13     8     2    1
    14     2     1   ar
    15     5    15    1
    16     5     6   ar
    17    15    14   ar
    18    18    21    1
    19    18    19   ar
    20     1     6   ar
    21     1     9    1
    22    14    19   ar
    23    14    22    1
    24     9    10    3
    25    22    23    3
    26    10    11    1
    27    23    24    1
