@<TRIPOS>MOLECULE
mol_data/opt/cam/geoms/mol2/6ef6ef6ef6ef-.out
 50 53 0 0 0
SMALL
GASTEIGER

@<TRIPOS>ATOM
      1 C          -4.0195   -2.0151   -1.0453 C.ar    1  LIG1        0.1141
      2 C          -3.1255   -2.3578   -0.0242 C.ar    1  LIG1       -0.0243
      3 C          -3.0185   -1.5328    1.0778 C.ar    1  LIG1       -0.0154
      4 C          -3.8005   -0.3843    1.1340 C.ar    1  LIG1        0.1429
      5 C          -4.6656   -0.1095    0.0632 C.ar    1  LIG1        0.1164
      6 N          -4.7694   -0.9116   -0.9918 N.ar    1  LIG1       -0.2347
      7 H          -2.3490   -1.7562    1.9006 H       1  LIG1        0.0655
      8 H          -2.5335   -3.2616   -0.1064 H       1  LIG1        0.0646
      9 C          -4.1520   -2.8574   -2.2017 C.1     1  LIG1       -0.0498
     10 C          -4.2387   -3.5836   -3.1568 C.1     1  LIG1       -0.1124
     11 H          -4.3271   -4.2162   -4.0098 H       1  LIG1        0.1232
     12 O          -3.6897    0.4094    2.2250 O.3     1  LIG1       -0.5046
     13 H          -4.3398    1.1232    2.1731 H       1  LIG1        0.2922
     14 C          -6.9142    1.0658    0.0255 C.ar    1  LIG1        0.1233
     15 C          -5.5061    1.1205    0.0717 C.ar    1  LIG1        0.0413
     16 C          -4.9091    2.3737    0.1244 C.ar    1  LIG1       -0.0061
     17 C          -5.6973    3.5186    0.1054 C.ar    1  LIG1        0.1435
     18 C          -7.0890    3.3660    0.0354 C.ar    1  LIG1        0.1164
     19 N          -7.6646    2.1687    0.0066 N.ar    1  LIG1       -0.2340
     20 H          -3.8296    2.4816    0.1543 H       1  LIG1        0.0662
     21 C          -7.6136   -0.1882    0.0236 C.1     1  LIG1       -0.0491
     22 C          -8.2083   -1.2328    0.0445 C.1     1  LIG1       -0.1124
     23 H          -8.7334   -2.1601    0.0469 H       1  LIG1        0.1232
     24 O          -5.0760    4.7184    0.1587 O.3     1  LIG1       -0.5046
     25 H          -5.7371    5.4234    0.1952 H       1  LIG1        0.2922
     26 C          -8.9799    4.7883    0.9533 C.ar    1  LIG1        0.1233
     27 C          -7.9791    4.5574   -0.0112 C.ar    1  LIG1        0.0413
     28 C          -7.8560    5.4904   -1.0293 C.ar    1  LIG1       -0.0061
     29 C          -8.6980    6.5998   -1.0965 C.ar    1  LIG1        0.1435
     30 C          -9.6785    6.7420   -0.0967 C.ar    1  LIG1        0.1164
     31 N          -9.7911    5.8411    0.8834 N.ar    1  LIG1       -0.2340
     32 H          -7.1275    5.3619   -1.8237 H       1  LIG1        0.0662
     33 C          -9.1655    3.9071    2.0722 C.1     1  LIG1       -0.0491
     34 C          -9.3165    3.1907    3.0259 C.1     1  LIG1       -0.1124
     35 H          -9.4579    2.5460    3.8626 H       1  LIG1        0.1232
     36 O          -8.5476    7.4002   -2.1705 O.3     1  LIG1       -0.5046
     37 H          -8.7463    8.3248   -1.9487 H       1  LIG1        0.2922
     38 C         -10.5479    9.1633   -0.3034 C.ar    1  LIG1        0.1226
     39 C         -10.7390    7.7907   -0.0788 C.ar    1  LIG1        0.0412
     40 C         -12.0332    7.3722    0.2339 C.ar    1  LIG1       -0.0067
     41 C         -13.0642    8.2925    0.2775 C.ar    1  LIG1        0.1356
     42 C         -12.7714    9.6344    0.0067 C.ar    1  LIG1        0.0704
     43 N         -11.5523   10.0545   -0.2657 N.ar    1  LIG1       -0.2424
     44 H         -12.2038    6.3229    0.4521 H       1  LIG1        0.0662
     45 H         -13.5706   10.3703    0.0284 H       1  LIG1        0.0867
     46 C          -9.2464    9.7194   -0.5528 C.1     1  LIG1       -0.0491
     47 C          -8.1540   10.1723   -0.7855 C.1     1  LIG1       -0.1124
     48 H          -7.1899   10.5890   -0.9707 H       1  LIG1        0.1232
     49 O         -14.3471    7.9772    0.5631 O.3     1  LIG1       -0.5052
     50 H         -14.4199    7.0329    0.7487 H       1  LIG1        0.2922
@<TRIPOS>BOND
     1    11    10    1
     2    10     9    3
     3     9     1    1
     4    36    37    1
     5    36    29    1
     6    32    28    1
     7    29    28   ar
     8    29    30   ar
     9     1     6   ar
    10     1     2   ar
    11    28    27   ar
    12     6     5   ar
    13    48    47    1
    14    47    46    3
    15    46    38    1
    16    38    43   ar
    17    38    39   ar
    18    43    42   ar
    19     8     2    1
    20    30    39    1
    21    30    31   ar
    22    39    40   ar
    23     2     3   ar
    24    27    18    1
    25    27    26   ar
    26    19    14   ar
    27    19    18   ar
    28    42    45    1
    29    42    41   ar
    30    21    14    1
    31    21    22    3
    32    14    15   ar
    33    18    17   ar
    34    22    23    1
    35     5    15    1
    36     5     4   ar
    37    15    16   ar
    38    17    16   ar
    39    17    24    1
    40    16    20    1
    41    24    25    1
    42    40    41   ar
    43    40    44    1
    44    41    49    1
    45    49    50    1
    46    31    26   ar
    47    26    33    1
    48     3     4   ar
    49     3     7    1
    50     4    12    1
    51    33    34    3
    52    13    12    1
    53    34    35    1
