@<TRIPOS>MOLECULE
mol_data/opt/cam/geoms/mol2/6ef6ef6ef-6ef-.out
 50 53 0 0 0
SMALL
GASTEIGER

@<TRIPOS>ATOM
      1 C          -4.6441   -2.3461   -0.3007 C.ar    1  LIG1        0.1141
      2 C          -3.2560   -2.4416   -0.1465 C.ar    1  LIG1       -0.0243
      3 C          -2.5206   -1.2868    0.0322 C.ar    1  LIG1       -0.0154
      4 C          -3.1839   -0.0646    0.0473 C.ar    1  LIG1        0.1429
      5 C          -4.5773   -0.0561   -0.1238 C.ar    1  LIG1        0.1164
      6 N          -5.2808   -1.1726   -0.2873 N.ar    1  LIG1       -0.2347
      7 H          -1.4451   -1.3050    0.1661 H       1  LIG1        0.0655
      8 H          -2.7768   -3.4131   -0.1651 H       1  LIG1        0.0646
      9 C          -5.4334   -3.5324   -0.4847 C.1     1  LIG1       -0.0498
     10 C          -6.0648   -4.5449   -0.6372 C.1     1  LIG1       -0.1124
     11 H          -6.6373   -5.4333   -0.7740 H       1  LIG1        0.1232
     12 O          -2.4481    1.0563    0.2325 O.3     1  LIG1       -0.5046
     13 H          -3.0356    1.8210    0.3019 H       1  LIG1        0.2922
     14 C          -6.3758    1.5023    0.7641 C.ar    1  LIG1        0.1233
     15 C          -5.3272    1.2299   -0.1376 C.ar    1  LIG1        0.0413
     16 C          -5.0226    2.2144   -1.0648 C.ar    1  LIG1       -0.0061
     17 C          -5.7330    3.4136   -1.1060 C.ar    1  LIG1        0.1435
     18 C          -6.7708    3.5942   -0.1730 C.ar    1  LIG1        0.1164
     19 N          -7.0609    2.6424    0.7192 N.ar    1  LIG1       -0.2340
     20 H          -4.2477    2.0628   -1.8095 H       1  LIG1        0.0662
     21 C          -6.7485    0.5700    1.7909 C.1     1  LIG1       -0.0491
     22 C          -7.0553   -0.1900    2.6705 C.1     1  LIG1       -0.1124
     23 H          -7.3301   -0.8732    3.4409 H       1  LIG1        0.1232
     24 O          -5.4124    4.2645   -2.1020 O.3     1  LIG1       -0.5046
     25 H          -5.5168    5.1888   -1.8213 H       1  LIG1        0.2922
     26 C          -7.3658    6.1080   -0.2624 C.ar    1  LIG1        0.1233
     27 C          -7.7093    4.7519   -0.1457 C.ar    1  LIG1        0.0413
     28 C          -9.0587    4.4692    0.0574 C.ar    1  LIG1       -0.0061
     29 C          -9.9925    5.4873    0.1017 C.ar    1  LIG1        0.1435
     30 C          -9.5551    6.8174   -0.0541 C.ar    1  LIG1        0.1164
     31 N          -8.2720    7.0918   -0.2247 N.ar    1  LIG1       -0.2340
     32 H          -9.3568    3.4350    0.1977 H       1  LIG1        0.0662
     33 C          -6.0009    6.5410   -0.3899 C.1     1  LIG1       -0.0491
     34 C          -4.8552    6.8918   -0.5182 C.1     1  LIG1       -0.1124
     35 H          -3.8442    7.2189   -0.6099 H       1  LIG1        0.1232
     36 O         -11.3150    5.2582    0.2877 O.3     1  LIG1       -0.5046
     37 H         -11.4582    4.3196    0.4626 H       1  LIG1        0.2922
     38 C         -10.2917    9.0826    0.7908 C.ar    1  LIG1        0.1226
     39 C         -10.5031    7.9609   -0.0298 C.ar    1  LIG1        0.0412
     40 C         -11.6265    7.9548   -0.8518 C.ar    1  LIG1       -0.0067
     41 C         -12.4770    9.0480   -0.8545 C.ar    1  LIG1        0.1356
     42 C         -12.1727   10.1242   -0.0191 C.ar    1  LIG1        0.0704
     43 N         -11.1214   10.1367    0.7811 N.ar    1  LIG1       -0.2424
     44 H         -11.8294    7.0953   -1.4835 H       1  LIG1        0.0662
     45 H         -12.8252   10.9934   -0.0125 H       1  LIG1        0.0867
     46 C          -9.2029    9.1502    1.7258 C.1     1  LIG1       -0.0491
     47 C          -8.3212    9.2232    2.5402 C.1     1  LIG1       -0.1124
     48 H          -7.5321    9.2914    3.2527 H       1  LIG1        0.1232
     49 O         -13.5889    9.1392   -1.6250 O.3     1  LIG1       -0.5052
     50 H         -13.6929    8.3327   -2.1438 H       1  LIG1        0.2922
@<TRIPOS>BOND
     1    50    49    1
     2    24    25    1
     3    24    17    1
     4    20    16    1
     5    49    41    1
     6    44    40    1
     7    17    16   ar
     8    17    18   ar
     9    16    15   ar
    10    41    40   ar
    11    41    42   ar
    12    40    39   ar
    13    11    10    1
    14    10     9    3
    15    35    34    1
    16    34    33    3
    17     9     1    1
    18    33    26    1
    19     1     6   ar
    20     1     2   ar
    21     6     5   ar
    22    26    31   ar
    23    26    27   ar
    24    31    30   ar
    25    18    27    1
    26    18    19   ar
    27     8     2    1
    28     2     3   ar
    29    27    28   ar
    30    15     5    1
    31    15    14   ar
    32     5     4   ar
    33    30    39    1
    34    30    29   ar
    35    39    38   ar
    36    42    45    1
    37    42    43   ar
    38     3     4   ar
    39     3     7    1
    40     4    12    1
    41    28    29   ar
    42    28    32    1
    43    29    36    1
    44    12    13    1
    45    36    37    1
    46    19    14   ar
    47    14    21    1
    48    43    38   ar
    49    38    46    1
    50    46    47    3
    51    21    22    3
    52    47    48    1
    53    22    23    1
