@<TRIPOS>MOLECULE
mol_data/opt/cam/geoms/mol2/6ef6ef-4ef6ef.out
 51 54 0 0 0
SMALL
GASTEIGER

@<TRIPOS>ATOM
      1 C          -4.2800   -2.0895    0.6043 C.ar    1  LIG1        0.1141
      2 C          -3.1703   -2.3977   -0.1897 C.ar    1  LIG1       -0.0243
      3 C          -2.6604   -1.4150   -1.0103 C.ar    1  LIG1       -0.0154
      4 C          -3.2421   -0.1476   -1.0279 C.ar    1  LIG1        0.1429
      5 C          -4.3534    0.0836   -0.1929 C.ar    1  LIG1        0.1164
      6 N          -4.8474   -0.8841    0.5860 N.ar    1  LIG1       -0.2347
      7 H          -1.8108   -1.5938   -1.6594 H       1  LIG1        0.0655
      8 H          -2.7341   -3.3888   -0.1550 H       1  LIG1        0.0646
      9 C          -4.8568   -3.0849    1.4655 C.1     1  LIG1       -0.0498
     10 C          -5.3178   -3.9393    2.1760 C.1     1  LIG1       -0.1124
     11 H          -5.7327   -4.6870    2.8122 H       1  LIG1        0.1232
     12 O          -2.7345    0.7371   -1.9130 O.3     1  LIG1       -0.5046
     13 H          -2.7495    1.6387   -1.5518 H       1  LIG1        0.2922
     14 C          -4.6542    2.6508   -0.1267 C.ar    1  LIG1        0.1233
     15 C          -5.1557    1.3407   -0.1711 C.ar    1  LIG1        0.0413
     16 C          -6.5427    1.2095   -0.1460 C.ar    1  LIG1       -0.0061
     17 C          -7.3577    2.3256   -0.1163 C.ar    1  LIG1        0.1435
     18 C          -6.7617    3.6025   -0.1050 C.ar    1  LIG1        0.1149
     19 N          -5.4443    3.7306   -0.1037 N.ar    1  LIG1       -0.2341
     20 H          -6.9685    0.2111   -0.1304 H       1  LIG1        0.0662
     21 C          -3.2443    2.9247   -0.0613 C.1     1  LIG1       -0.0491
     22 C          -2.0591    3.1401   -0.0296 C.1     1  LIG1       -0.1124
     23 H          -1.0133    3.3423    0.0231 H       1  LIG1        0.1232
     24 O          -8.7102    2.2375   -0.0965 O.3     1  LIG1       -0.5046
     25 H          -8.9689    1.3107   -0.0206 H       1  LIG1        0.2922
     26 C          -7.3059    5.8793    0.8338 C.ar    1  LIG1        0.0348
     27 C          -8.0751    7.0466    0.7719 C.ar    1  LIG1       -0.0344
     28 C          -7.5697    4.8504   -0.0873 C.ar    1  LIG1        0.0228
     29 C          -9.0891    7.2251   -0.1590 C.ar    1  LIG1        0.0275
     30 H          -7.8817    7.8321    1.4940 H       1  LIG1        0.0637
     31 C          -8.5840    5.0241   -1.0237 C.ar    1  LIG1       -0.0091
     32 C          -9.3331    6.1926   -1.0733 C.ar    1  LIG1        0.1253
     33 H          -8.7891    4.2315   -1.7366 H       1  LIG1        0.0661
     34 C          -6.3196    5.7681    1.8658 C.1     1  LIG1       -0.0690
     35 C          -5.5293    5.7265    2.7727 C.1     1  LIG1       -0.1139
     36 H          -4.8137    5.6737    3.5600 H       1  LIG1        0.1232
     37 O         -10.2911    6.3953   -2.0106 O.3     1  LIG1       -0.5061
     38 H         -10.4290    5.5846   -2.5140 H       1  LIG1        0.2922
     39 C         -11.2534    8.5320    0.0533 C.ar    1  LIG1        0.1211
     40 C          -9.8656    8.4904   -0.1936 C.ar    1  LIG1        0.0229
     41 C          -9.2142    9.6907   -0.4425 C.ar    1  LIG1       -0.0082
     42 C          -9.9422   10.8734   -0.4577 C.ar    1  LIG1        0.1355
     43 C         -11.3130   10.8072   -0.2207 C.ar    1  LIG1        0.0704
     44 N         -11.9491    9.6734    0.0327 N.ar    1  LIG1       -0.2425
     45 H          -8.1481    9.7151   -0.6383 H       1  LIG1        0.0661
     46 H         -11.9159   11.7157   -0.2326 H       1  LIG1        0.0867
     47 C         -11.9875    7.3416    0.3830 C.1     1  LIG1       -0.0492
     48 C         -12.6014    6.3517    0.6833 C.1     1  LIG1       -0.1124
     49 H         -13.1506    5.4793    0.9517 H       1  LIG1        0.1232
     50 O          -9.2886   12.0346   -0.7064 O.3     1  LIG1       -0.5052
     51 H          -9.9163   12.7676   -0.6924 H       1  LIG1        0.2922
@<TRIPOS>BOND
     1    38    37    1
     2    37    32    1
     3    12    13    1
     4    12     4    1
     5    33    31    1
     6     7     3    1
     7    32    31   ar
     8    32    29   ar
     9     4     3   ar
    10     4     5   ar
    11    31    28   ar
    12     3     2   ar
    13    50    51    1
    14    50    42    1
    15    45    41    1
    16    42    41   ar
    17    42    43   ar
    18    41    40   ar
    19    46    43    1
    20    43    44   ar
    21    40    29    1
    22    40    39   ar
    23     5    15    1
    24     5     6   ar
    25     2     8    1
    26     2     1   ar
    27    15    16   ar
    28    15    14   ar
    29    29    27   ar
    30    16    20    1
    31    16    17   ar
    32    14    19   ar
    33    14    21    1
    34    17    18   ar
    35    17    24    1
    36    18    19   ar
    37    18    28    1
    38    24    25    1
    39    28    26   ar
    40    21    22    3
    41    22    23    1
    42    44    39   ar
    43    39    47    1
    44    47    48    3
    45     6     1   ar
    46     1     9    1
    47    48    49    1
    48    27    26   ar
    49    27    30    1
    50    26    34    1
    51     9    10    3
    52    34    35    3
    53    10    11    1
    54    35    36    1
