@<TRIPOS>MOLECULE
mol_data/opt/cam/geoms/mol2/6ef6ef-6ef-6ef-.out
 50 53 0 0 0
SMALL
GASTEIGER

@<TRIPOS>ATOM
      1 C          -4.5507   -2.2255    0.2695 C.ar    1  LIG1        0.1141
      2 C          -3.2427   -2.4396   -0.1783 C.ar    1  LIG1       -0.0243
      3 C          -2.5043   -1.3501   -0.5862 C.ar    1  LIG1       -0.0154
      4 C          -3.0593   -0.0713   -0.5371 C.ar    1  LIG1        0.1429
      5 C          -4.3813    0.0594   -0.0671 C.ar    1  LIG1        0.1164
      6 N          -5.0915   -1.0087    0.3103 N.ar    1  LIG1       -0.2347
      7 H          -1.4902   -1.4504   -0.9559 H       1  LIG1        0.0655
      8 H          -2.8328   -3.4422   -0.2033 H       1  LIG1        0.0646
      9 C          -5.3651   -3.3318    0.6915 C.1     1  LIG1       -0.0498
     10 C          -6.0224   -4.2781    1.0375 C.1     1  LIG1       -0.1124
     11 H          -6.6120   -5.1093    1.3496 H       1  LIG1        0.1232
     12 O          -2.3010    0.9337   -1.0242 O.3     1  LIG1       -0.5046
     13 H          -2.4449    1.7541   -0.5250 H       1  LIG1        0.2922
     14 C          -4.7072    2.5810    0.4024 C.ar    1  LIG1        0.1233
     15 C          -5.1588    1.3318   -0.0530 C.ar    1  LIG1        0.0413
     16 C          -6.4817    1.2728   -0.4863 C.ar    1  LIG1       -0.0061
     17 C          -7.2725    2.4064   -0.4941 C.ar    1  LIG1        0.1435
     18 C          -6.7164    3.6249   -0.0595 C.ar    1  LIG1        0.1164
     19 N          -5.4705    3.6794    0.3844 N.ar    1  LIG1       -0.2340
     20 H          -6.8802    0.3152   -0.8064 H       1  LIG1        0.0662
     21 C          -3.3962    2.7569    0.9655 C.1     1  LIG1       -0.0491
     22 C          -2.2879    2.8949    1.4175 C.1     1  LIG1       -0.1124
     23 H          -1.3172    3.0239    1.8400 H       1  LIG1        0.1232
     24 O          -8.5630    2.3930   -0.9110 O.3     1  LIG1       -0.5046
     25 H          -8.7934    1.5047   -1.2106 H       1  LIG1        0.2922
     26 C          -6.9917    6.0752   -0.6222 C.ar    1  LIG1        0.1233
     27 C          -7.4957    4.8888   -0.0606 C.ar    1  LIG1        0.0413
     28 C          -8.7559    4.9428    0.5224 C.ar    1  LIG1       -0.0061
     29 C          -9.4551    6.1379    0.5609 C.ar    1  LIG1        0.1435
     30 C          -8.8640    7.2825    0.0022 C.ar    1  LIG1        0.1164
     31 N          -7.6722    7.2243   -0.5782 N.ar    1  LIG1       -0.2340
     32 H          -9.1906    4.0451    0.9513 H       1  LIG1        0.0662
     33 C          -5.7373    6.1152   -1.3223 C.1     1  LIG1       -0.0491
     34 C          -4.7091    6.1719   -1.9430 C.1     1  LIG1       -0.1124
     35 H          -3.7918    6.2280   -2.4821 H       1  LIG1        0.1232
     36 O         -10.6871    6.2461    1.1240 O.3     1  LIG1       -0.5046
     37 H         -10.9333    5.4018    1.5209 H       1  LIG1        0.2922
     38 C          -8.9082    9.7614    0.4940 C.ar    1  LIG1        0.1226
     39 C          -9.5482    8.6021    0.0220 C.ar    1  LIG1        0.0412
     40 C         -10.8496    8.7241   -0.4556 C.ar    1  LIG1       -0.0067
     41 C         -11.4577    9.9687   -0.4729 C.ar    1  LIG1        0.1356
     42 C         -10.7349   11.0645    0.0002 C.ar    1  LIG1        0.0704
     43 N          -9.5055   10.9625    0.4745 N.ar    1  LIG1       -0.2424
     44 H         -11.3794    7.8451   -0.8102 H       1  LIG1        0.0662
     45 H         -11.1939   12.0496   -0.0107 H       1  LIG1        0.0867
     46 C          -7.5921    9.7220    1.0684 C.1     1  LIG1       -0.0491
     47 C          -6.5044    9.7108    1.5809 C.1     1  LIG1       -0.1124
     48 H          -5.5326    9.6957    2.0172 H       1  LIG1        0.1232
     49 O         -12.7174   10.1877   -0.9273 O.3     1  LIG1       -0.5052
     50 H         -13.1056    9.3545   -1.2191 H       1  LIG1        0.2922
@<TRIPOS>BOND
     1    35    34    1
     2    34    33    3
     3    33    26    1
     4    50    49    1
     5    25    24    1
     6    12     4    1
     7    12    13    1
     8     7     3    1
     9    49    41    1
    10    24    17    1
    11    44    40    1
    12    20    16    1
    13    26    31   ar
    14    26    27   ar
    15     3     4   ar
    16     3     2   ar
    17    31    30   ar
    18     4     5   ar
    19    17    16   ar
    20    17    18   ar
    21    16    15   ar
    22    41    40   ar
    23    41    42   ar
    24    40    39   ar
    25     8     2    1
    26     2     1   ar
    27     5    15    1
    28     5     6   ar
    29    27    18    1
    30    27    28   ar
    31    18    19   ar
    32    15    14   ar
    33    45    42    1
    34    42    43   ar
    35    30    39    1
    36    30    29   ar
    37    39    38   ar
    38     1     6   ar
    39     1     9    1
    40    19    14   ar
    41    14    21    1
    42    43    38   ar
    43    38    46    1
    44    28    29   ar
    45    28    32    1
    46    29    36    1
    47     9    10    3
    48    21    22    3
    49    10    11    1
    50    46    47    3
    51    36    37    1
    52    22    23    1
    53    47    48    1
