@<TRIPOS>MOLECULE
mol_data/opt/cam/geoms/mol2/6ef6ef6ef-6ef.out
 50 53 0 0 0
SMALL
GASTEIGER

@<TRIPOS>ATOM
      1 C          -3.8276   -1.9026   -0.9138 C.ar    1  LIG1        0.1141
      2 C          -3.2548   -2.4327    0.2483 C.ar    1  LIG1       -0.0243
      3 C          -3.4310   -1.7677    1.4453 C.ar    1  LIG1       -0.0154
      4 C          -4.1680   -0.5883    1.4561 C.ar    1  LIG1        0.1429
      5 C          -4.7008   -0.1199    0.2444 C.ar    1  LIG1        0.1164
      6 N          -4.5341   -0.7698   -0.9036 N.ar    1  LIG1       -0.2347
      7 H          -3.0176   -2.1394    2.3759 H       1  LIG1        0.0655
      8 H          -2.6866   -3.3538    0.1979 H       1  LIG1        0.0646
      9 C          -3.6630   -2.5762   -2.1721 C.1     1  LIG1       -0.0498
     10 C          -3.5061   -3.1645   -3.2095 C.1     1  LIG1       -0.1124
     11 H          -3.3758   -3.6734   -4.1367 H       1  LIG1        0.1232
     12 O          -4.3376    0.0432    2.6413 O.3     1  LIG1       -0.5046
     13 H          -4.9277    0.8000    2.5245 H       1  LIG1        0.2922
     14 C          -6.8025    1.2043   -0.2820 C.ar    1  LIG1        0.1233
     15 C          -5.4792    1.1480    0.2007 C.ar    1  LIG1        0.0413
     16 C          -4.9173    2.3385    0.6352 C.ar    1  LIG1       -0.0061
     17 C          -5.6249    3.5381    0.5697 C.ar    1  LIG1        0.1435
     18 C          -6.9316    3.5031    0.0485 C.ar    1  LIG1        0.1164
     19 N          -7.4793    2.3483   -0.3419 N.ar    1  LIG1       -0.2340
     20 H          -3.9009    2.3744    1.0144 H       1  LIG1        0.0662
     21 C          -7.5059    0.0211   -0.6920 C.1     1  LIG1       -0.0491
     22 C          -8.1159   -0.9637   -1.0137 C.1     1  LIG1       -0.1124
     23 H          -8.6442   -1.8388   -1.3150 H       1  LIG1        0.1232
     24 O          -5.0129    4.6242    1.0854 O.3     1  LIG1       -0.5046
     25 H          -5.2286    5.4224    0.5749 H       1  LIG1        0.2922
     26 C          -7.5425    5.9622   -0.4432 C.ar    1  LIG1        0.1233
     27 C          -7.8624    4.6658   -0.0108 C.ar    1  LIG1        0.0413
     28 C          -9.1918    4.4370    0.3410 C.ar    1  LIG1       -0.0061
     29 C         -10.1150    5.4656    0.3095 C.ar    1  LIG1        0.1435
     30 C          -9.6785    6.7529   -0.0587 C.ar    1  LIG1        0.1164
     31 N          -8.4332    6.9635   -0.4537 N.ar    1  LIG1       -0.2340
     32 H          -9.4910    3.4292    0.6103 H       1  LIG1        0.0662
     33 C          -6.2399    6.2974   -0.9489 C.1     1  LIG1       -0.0491
     34 C          -5.1377    6.5704   -1.3527 C.1     1  LIG1       -0.1124
     35 H          -4.1722    6.8140   -1.7348 H       1  LIG1        0.1232
     36 O         -11.4240    5.2924    0.5842 O.3     1  LIG1       -0.5046
     37 H         -11.5862    4.3825    0.8615 H       1  LIG1        0.2922
     38 C         -11.3341    8.3492    1.0249 C.ar    1  LIG1        0.1226
     39 C         -10.6026    7.9165   -0.0978 C.ar    1  LIG1        0.0412
     40 C         -10.7171    8.6392   -1.2766 C.ar    1  LIG1       -0.0067
     41 C         -11.5727    9.7305   -1.3220 C.ar    1  LIG1        0.1356
     42 C         -12.2803   10.0623   -0.1676 C.ar    1  LIG1        0.0704
     43 N         -12.1573    9.4023    0.9732 N.ar    1  LIG1       -0.2424
     44 H         -10.1464    8.3590   -2.1540 H       1  LIG1        0.0662
     45 H         -12.9677   10.9088   -0.1716 H       1  LIG1        0.0867
     46 C         -11.1872    7.7195    2.3083 C.1     1  LIG1       -0.0491
     47 C         -11.0443    7.2178    3.3923 C.1     1  LIG1       -0.1124
     48 H         -10.9260    6.7818    4.3573 H       1  LIG1        0.1232
     49 O         -11.6848   10.4213   -2.4821 O.3     1  LIG1       -0.5052
     50 H         -12.3057   11.1510   -2.3660 H       1  LIG1        0.2922
@<TRIPOS>BOND
     1    11    10    1
     2    10     9    3
     3    49    50    1
     4    49    41    1
     5     9     1    1
     6    44    40    1
     7    35    34    1
     8    34    33    3
     9    41    40   ar
    10    41    42   ar
    11    23    22    1
    12    40    39   ar
    13    22    21    3
    14    33    26    1
    15     1     6   ar
    16     1     2   ar
    17     6     5   ar
    18    21    14    1
    19    31    26   ar
    20    31    30   ar
    21    26    27   ar
    22    19    14   ar
    23    19    18   ar
    24    14    15   ar
    25    45    42    1
    26    42    43   ar
    27    39    30    1
    28    39    38   ar
    29    30    29   ar
    30    27    18    1
    31    27    28   ar
    32    18    17   ar
    33     8     2    1
    34    15     5    1
    35    15    16   ar
    36     5     4   ar
    37     2     3   ar
    38    29    28   ar
    39    29    36    1
    40    28    32    1
    41    17    16   ar
    42    17    24    1
    43    25    24    1
    44    36    37    1
    45    16    20    1
    46    43    38   ar
    47    38    46    1
    48     3     4   ar
    49     3     7    1
    50     4    12    1
    51    46    47    3
    52    13    12    1
    53    47    48    1
