@<TRIPOS>MOLECULE
mol_data/opt/cam/geoms/mol2/6ef6ef-6ef-6ef.out
 50 53 0 0 0
SMALL
GASTEIGER

@<TRIPOS>ATOM
      1 C          -4.5294   -2.2247   -0.1169 C.ar    1  LIG1        0.1141
      2 C          -3.1407   -2.3685   -0.0267 C.ar    1  LIG1       -0.0243
      3 C          -2.3742   -1.2338    0.1263 C.ar    1  LIG1       -0.0154
      4 C          -2.9849    0.0182    0.1981 C.ar    1  LIG1        0.1429
      5 C          -4.3898    0.0762    0.1051 C.ar    1  LIG1        0.1164
      6 N          -5.1198   -1.0319   -0.0590 N.ar    1  LIG1       -0.2347
      7 H          -1.2928   -1.2764    0.1893 H       1  LIG1        0.0655
      8 H          -2.6903   -3.3524   -0.0812 H       1  LIG1        0.0646
      9 C          -5.3700   -3.3772   -0.2911 C.1     1  LIG1       -0.0498
     10 C          -6.0471   -4.3607   -0.4375 C.1     1  LIG1       -0.1124
     11 H          -6.6567   -5.2258   -0.5640 H       1  LIG1        0.1232
     12 O          -2.1625    1.0862    0.2719 O.3     1  LIG1       -0.5046
     13 H          -2.5484    1.7872    0.8220 H       1  LIG1        0.2922
     14 C          -5.0412    2.4520    0.8898 C.ar    1  LIG1        0.1233
     15 C          -5.1889    1.3341    0.0530 C.ar    1  LIG1        0.0413
     16 C          -6.2188    1.3944   -0.8837 C.ar    1  LIG1       -0.0061
     17 C          -7.0117    2.5217   -0.9884 C.ar    1  LIG1        0.1435
     18 C          -6.7584    3.6114   -0.1331 C.ar    1  LIG1        0.1164
     19 N          -5.8027    3.5465    0.7804 N.ar    1  LIG1       -0.2340
     20 H          -6.3912    0.5327   -1.5208 H       1  LIG1        0.0662
     21 C          -4.0824    2.4795    1.9606 C.1     1  LIG1       -0.0491
     22 C          -3.2614    2.4976    2.8423 C.1     1  LIG1       -0.1124
     23 H          -2.5538    2.5163    3.6401 H       1  LIG1        0.1232
     24 O          -8.0208    2.6238   -1.8880 O.3     1  LIG1       -0.5046
     25 H          -8.0553    1.8222   -2.4248 H       1  LIG1        0.2922
     26 C          -6.9387    6.1278   -0.2742 C.ar    1  LIG1        0.1233
     27 C          -7.5515    4.8652   -0.2010 C.ar    1  LIG1        0.0413
     28 C          -8.9408    4.8262   -0.1829 C.ar    1  LIG1       -0.0061
     29 C          -9.6706    6.0039   -0.1935 C.ar    1  LIG1        0.1435
     30 C          -8.9746    7.2228   -0.1981 C.ar    1  LIG1        0.1164
     31 N          -7.6500    7.2611   -0.2720 N.ar    1  LIG1       -0.2340
     32 H          -9.4538    3.8696   -0.1760 H       1  LIG1        0.0662
     33 C          -5.5158    6.2798   -0.4036 C.1     1  LIG1       -0.0491
     34 C          -4.3323    6.4371   -0.5469 C.1     1  LIG1       -0.1124
     35 H          -3.2821    6.5774   -0.6591 H       1  LIG1        0.1232
     36 O         -11.0220    6.0347   -0.2351 O.3     1  LIG1       -0.5046
     37 H         -11.3753    5.1438   -0.1280 H       1  LIG1        0.2922
     38 C         -10.5997    8.9069    0.8028 C.ar    1  LIG1        0.1226
     39 C          -9.6802    8.5316   -0.1958 C.ar    1  LIG1        0.0412
     40 C          -9.3860    9.4481   -1.1953 C.ar    1  LIG1       -0.0067
     41 C         -10.0330   10.6752   -1.2028 C.ar    1  LIG1        0.1356
     42 C         -10.9534   10.9419   -0.1907 C.ar    1  LIG1        0.0704
     43 N         -11.2204   10.0921    0.7886 N.ar    1  LIG1       -0.2424
     44 H          -8.6568    9.2123   -1.9612 H       1  LIG1        0.0662
     45 H         -11.4860   11.8934   -0.1722 H       1  LIG1        0.0867
     46 C         -10.8749    8.0622    1.9326 C.1     1  LIG1       -0.0491
     47 C         -11.0858    7.3775    2.8989 C.1     1  LIG1       -0.1124
     48 H         -11.2754    6.7802    3.7606 H       1  LIG1        0.1232
     49 O          -9.7465   11.5571   -2.1918 O.3     1  LIG1       -0.5052
     50 H         -10.2598   12.3641   -2.0626 H       1  LIG1        0.2922
@<TRIPOS>BOND
     1    25    24    1
     2    49    50    1
     3    49    41    1
     4    44    40    1
     5    24    17    1
     6    20    16    1
     7    41    40   ar
     8    41    42   ar
     9    40    39   ar
    10    17    16   ar
    11    17    18   ar
    12    16    15   ar
    13    35    34    1
    14    11    10    1
    15    34    33    3
    16    10     9    3
    17    33    26    1
    18     9     1    1
    19    26    31   ar
    20    26    27   ar
    21    31    30   ar
    22    36    29    1
    23    36    37    1
    24    27    28   ar
    25    27    18    1
    26    30    39    1
    27    30    29   ar
    28    39    38   ar
    29    29    28   ar
    30    42    45    1
    31    42    43   ar
    32    28    32    1
    33    18    19   ar
    34     1     6   ar
    35     1     2   ar
    36     8     2    1
    37     6     5   ar
    38     2     3   ar
    39    15     5    1
    40    15    14   ar
    41     5     4   ar
    42     3     7    1
    43     3     4   ar
    44     4    12    1
    45    12    13    1
    46    19    14   ar
    47    43    38   ar
    48    38    46    1
    49    14    21    1
    50    46    47    3
    51    21    22    3
    52    22    23    1
    53    47    48    1
