@<TRIPOS>MOLECULE
mol_data/opt/cam/geoms/mol2/6ef6eh-4fd13id-.out
 51 54 0 0 0
SMALL
GASTEIGER

@<TRIPOS>ATOM
      1 C          -4.0803   -1.9823    1.0439 C.ar    1  LIG1        0.1141
      2 C          -3.2483   -2.4255    0.0093 C.ar    1  LIG1       -0.0243
      3 C          -3.1295   -1.6562   -1.1315 C.ar    1  LIG1       -0.0154
      4 C          -3.8382   -0.4627   -1.2111 C.ar    1  LIG1        0.1429
      5 C          -4.6437   -0.0863   -0.1247 C.ar    1  LIG1        0.1163
      6 N          -4.7597   -0.8349    0.9677 N.ar    1  LIG1       -0.2347
      7 H          -2.5075   -1.9581   -1.9664 H       1  LIG1        0.0655
      8 H          -2.7133   -3.3621    0.1112 H       1  LIG1        0.0646
      9 C          -4.2234   -2.7649    2.2403 C.1     1  LIG1       -0.0498
     10 C          -4.3207   -3.4434    3.2289 C.1     1  LIG1       -0.1124
     11 H          -4.4185   -4.0335    4.1108 H       1  LIG1        0.1232
     12 O          -3.7179    0.2778   -2.3386 O.3     1  LIG1       -0.5046
     13 H          -4.3329    1.0232   -2.2993 H       1  LIG1        0.2922
     14 C          -6.8053    1.2412   -0.0669 C.ar    1  LIG1        0.1232
     15 C          -5.4023    1.1947   -0.1615 C.ar    1  LIG1        0.0396
     16 C          -4.7319    2.4017   -0.2921 C.ar    1  LIG1       -0.0270
     17 C          -5.4144    3.6230   -0.3057 C.ar    1  LIG1        0.0517
     18 C          -6.8203    3.5620   -0.1728 C.ar    1  LIG1        0.0965
     19 N          -7.4636    2.4002   -0.0755 N.ar    1  LIG1       -0.2358
     20 H          -3.6470    2.4049   -0.3636 H       1  LIG1        0.0644
     21 C          -7.5970    0.0463    0.0058 C.1     1  LIG1       -0.0491
     22 C          -8.2698   -0.9496    0.0431 C.1     1  LIG1       -0.1124
     23 H          -8.8642   -1.8328    0.0916 H       1  LIG1        0.1232
     24 N          -4.7289    4.8017   -0.5249 N.pl3   1  LIG1       -0.3563
     25 H          -3.7243    4.7129   -0.4718 H       1  LIG1        0.1424
     26 H          -5.0731    5.5983   -0.0053 H       1  LIG1        0.1424
     27 C          -7.5628    5.9401    0.4684 C.ar    1  LIG1        0.1268
     28 C          -8.4813    6.9793    0.3679 C.ar    1  LIG1       -0.0092
     29 C          -7.7250    4.7453   -0.2416 C.ar    1  LIG1        0.0448
     30 C          -9.6316    6.8794   -0.4120 C.ar    1  LIG1        0.0194
     31 H          -8.2815    7.9008    0.9017 H       1  LIG1        0.0661
     32 C          -8.8733    4.6415   -1.0192 C.ar    1  LIG1       -0.0310
     33 C          -9.8094    5.6689   -1.1206 C.ar    1  LIG1        0.0617
     34 H          -9.0462    3.7128   -1.5489 H       1  LIG1        0.0638
     35 O          -6.4673    6.0692    1.2707 O.3     1  LIG1       -0.5061
     36 H          -6.5245    6.8901    1.7751 H       1  LIG1        0.2922
     37 N         -11.8373    5.3129   -2.6915 N.1     1  LIG1       -0.1908
     38 C         -10.9397    5.4537   -1.9732 C.1     1  LIG1        0.0998
     39 C         -10.5730    8.0016   -0.4551 C.ar    1  LIG1        0.0520
     40 C         -10.8465    8.9722    0.4956 C.ar    1  LIG1       -0.0078
     41 C         -11.8377    9.8258   -0.0735 C.ar    1  LIG1        0.0725
     42 C         -12.1372    9.3534   -1.3351 C.ar    1  LIG1        0.0199
     43 N         -11.3744    8.2630   -1.5522 N.ar    1  LIG1       -0.3592
     44 H         -11.4386    7.6786   -2.3724 H       1  LIG1        0.1654
     45 H         -12.8379    9.7190   -2.0691 H       1  LIG1        0.0820
     46 C         -10.2972    9.1329    1.8787 C.3     1  LIG1       -0.0365
     47 H         -11.0039    9.6887    2.4984 H       1  LIG1        0.0279
     48 H          -9.3579    9.6975    1.8876 H       1  LIG1        0.0279
     49 H         -10.1154    8.1676    2.3566 H       1  LIG1        0.0279
     50 N         -12.8838   11.8716    1.0974 N.1     1  LIG1       -0.1908
     51 C         -12.4229   10.9561    0.5591 C.1     1  LIG1        0.1009
@<TRIPOS>BOND
     1    37    38    3
     2    44    43    1
     3    12    13    1
     4    12     4    1
     5    45    42    1
     6    38    33    1
     7     7     3    1
     8    43    42   ar
     9    43    39   ar
    10    34    32    1
    11    42    41   ar
    12     4     3   ar
    13     4     5   ar
    14     3     2   ar
    15    33    32   ar
    16    33    30   ar
    17    32    29   ar
    18    24    25    1
    19    24    17    1
    20    24    26    1
    21    39    30    1
    22    39    40   ar
    23    30    28   ar
    24    20    16    1
    25    17    16   ar
    26    17    18   ar
    27    16    15   ar
    28    29    18    1
    29    29    27   ar
    30    18    19   ar
    31    15     5    1
    32    15    14   ar
    33     5     6   ar
    34    19    14   ar
    35    41    40   ar
    36    41    51    1
    37    14    21    1
    38    21    22    3
    39     2     8    1
    40     2     1   ar
    41    22    23    1
    42    28    27   ar
    43    28    31    1
    44    27    35    1
    45    40    46    1
    46    51    50    3
    47     6     1   ar
    48     1     9    1
    49    35    36    1
    50    46    48    1
    51    46    49    1
    52    46    47    1
    53     9    10    3
    54    10    11    1
