@<TRIPOS>MOLECULE
mol_data/opt/cam/geoms/mol2/6ef6ef-6ef.out
 38 40 0 0 0
SMALL
GASTEIGER

@<TRIPOS>ATOM
      1 C          -4.3055   -2.0198   -0.6299 C.ar    1  LIG1        0.1141
      2 C          -3.3026   -2.3273    0.2957 C.ar    1  LIG1       -0.0243
      3 C          -2.9165   -1.3523    1.1896 C.ar    1  LIG1       -0.0154
      4 C          -3.5143   -0.0929    1.1515 C.ar    1  LIG1        0.1429
      5 C          -4.5141    0.1375    0.1855 C.ar    1  LIG1        0.1164
      6 N          -4.8889   -0.8226   -0.6657 N.ar    1  LIG1       -0.2347
      7 H          -2.1540   -1.5310    1.9392 H       1  LIG1        0.0655
      8 H          -2.8509   -3.3121    0.3023 H       1  LIG1        0.0646
      9 C          -4.7512   -3.0074   -1.5740 C.1     1  LIG1       -0.0498
     10 C          -5.1037   -3.8552   -2.3513 C.1     1  LIG1       -0.1124
     11 H          -5.4221   -4.5971   -3.0470 H       1  LIG1        0.1232
     12 O          -3.1342    0.7837    2.1059 O.3     1  LIG1       -0.5046
     13 H          -3.1276    1.6917    1.7628 H       1  LIG1        0.2922
     14 C          -4.8370    2.6991    0.1209 C.ar    1  LIG1        0.1233
     15 C          -5.3264    1.3842    0.0834 C.ar    1  LIG1        0.0413
     16 C          -6.6961    1.2362   -0.1284 C.ar    1  LIG1       -0.0061
     17 C          -7.5153    2.3445   -0.2375 C.ar    1  LIG1        0.1435
     18 C          -6.9415    3.6233   -0.1049 C.ar    1  LIG1        0.1164
     19 N          -5.6340    3.7731    0.0342 N.ar    1  LIG1       -0.2340
     20 H          -7.0993    0.2341   -0.2338 H       1  LIG1        0.0662
     21 C          -3.4320    2.9856    0.2181 C.1     1  LIG1       -0.0491
     22 C          -2.2530    3.2120    0.3226 C.1     1  LIG1       -0.1124
     23 H          -1.2097    3.4216    0.3922 H       1  LIG1        0.1232
     24 O          -8.8368    2.2638   -0.4970 O.3     1  LIG1       -0.5046
     25 H          -9.1136    1.3397   -0.5149 H       1  LIG1        0.2922
     26 C          -8.8409    5.1250    0.6699 C.ar    1  LIG1        0.1226
     27 C          -7.7560    4.8640   -0.1892 C.ar    1  LIG1        0.0412
     28 C          -7.4080    5.8305   -1.1218 C.ar    1  LIG1       -0.0067
     29 C          -8.1588    6.9942   -1.2044 C.ar    1  LIG1        0.1356
     30 C          -9.2355    7.1478   -0.3323 C.ar    1  LIG1        0.0704
     31 N          -9.5604    6.2494    0.5840 N.ar    1  LIG1       -0.2424
     32 H          -6.5597    5.6829   -1.7797 H       1  LIG1        0.0662
     33 H          -9.8514    8.0466   -0.3766 H       1  LIG1        0.0867
     34 C          -9.1962    4.2223    1.7301 C.1     1  LIG1       -0.0491
     35 C          -9.4780    3.4868    2.6393 C.1     1  LIG1       -0.1124
     36 H          -9.7355    2.8432    3.4485 H       1  LIG1        0.1232
     37 O          -7.8165    7.9257   -2.1271 O.3     1  LIG1       -0.5052
     38 H          -8.4186    8.6775   -2.0666 H       1  LIG1        0.2922
@<TRIPOS>BOND
     1    11    10    1
     2    10     9    3
     3    37    38    1
     4    37    29    1
     5    32    28    1
     6     9     1    1
     7    29    28   ar
     8    29    30   ar
     9    28    27   ar
    10     6     1   ar
    11     6     5   ar
    12     1     2   ar
    13    25    24    1
    14    24    17    1
    15    33    30    1
    16    30    31   ar
    17    17    16   ar
    18    17    18   ar
    19    20    16    1
    20    27    18    1
    21    27    26   ar
    22    16    15   ar
    23    18    19   ar
    24    19    14   ar
    25    15    14   ar
    26    15     5    1
    27    14    21    1
    28     5     4   ar
    29    21    22    3
    30     2     8    1
    31     2     3   ar
    32    22    23    1
    33    31    26   ar
    34    26    34    1
    35     4     3   ar
    36     4    12    1
    37     3     7    1
    38    34    35    3
    39    13    12    1
    40    35    36    1
