@<TRIPOS>MOLECULE
mol_data/opt/cam/geoms/mol2/6eg.out
 14 14 0 0 0
SMALL
GASTEIGER

@<TRIPOS>ATOM
      1 C          -4.6041   -2.0354    0.0000 C.ar    1  LIG1        0.1132
      2 C          -3.2065   -2.0324   -0.0000 C.ar    1  LIG1       -0.0268
      3 C          -2.5363   -0.8222   -0.0002 C.ar    1  LIG1       -0.0445
      4 C          -3.2753    0.3583   -0.0003 C.ar    1  LIG1        0.0230
      5 C          -4.6685    0.2504   -0.0002 C.ar    1  LIG1        0.0421
      6 N          -5.3198   -0.9032   -0.0000 N.ar    1  LIG1       -0.2456
      7 H          -1.4514   -0.7957   -0.0002 H       1  LIG1        0.0630
      8 H          -2.6650   -2.9708    0.0001 H       1  LIG1        0.0646
      9 H          -5.2863    1.1464   -0.0003 H       1  LIG1        0.0841
     10 C          -5.3238   -3.2781    0.0002 C.1     1  LIG1       -0.0498
     11 C          -5.8987   -4.3347    0.0003 C.1     1  LIG1       -0.1124
     12 H          -6.4221   -5.2632    0.0005 H       1  LIG1        0.1232
     13 S          -2.4271    1.9134   -0.0004 S.3     1  LIG1       -0.1412
     14 H          -3.5241    2.6877   -0.0005 H       1  LIG1        0.1072
@<TRIPOS>BOND
     1    14    13    1
     2    13     4    1
     3     9     5    1
     4     4     5   ar
     5     4     3   ar
     6     7     3    1
     7     5     6   ar
     8     3     2   ar
     9     6     1   ar
    10     2     1   ar
    11     2     8    1
    12     1    10    1
    13    10    11    3
    14    11    12    1
