@<TRIPOS>MOLECULE
mol_data/opt/cam/geoms/mol2/6eh12hh-13eh-6el.out
 53 56 0 0 0
SMALL
GASTEIGER

@<TRIPOS>ATOM
      1 C          -4.4203   -2.0893    0.1531 C.ar    1  LIG1        0.1140
      2 C          -3.0574   -2.1259   -0.1449 C.ar    1  LIG1       -0.0260
      3 C          -2.4275   -0.9410   -0.4819 C.ar    1  LIG1       -0.0362
      4 C          -3.1498    0.2468   -0.4942 C.ar    1  LIG1        0.0541
      5 C          -4.5029    0.2041   -0.0843 C.ar    1  LIG1        0.1298
      6 N          -5.1158   -0.9497    0.1914 N.ar    1  LIG1       -0.2334
      7 H          -1.3797   -0.9375   -0.7692 H       1  LIG1        0.0637
      8 H          -2.5214   -3.0670   -0.1386 H       1  LIG1        0.0646
      9 C          -5.1388   -3.3018    0.4366 C.1     1  LIG1       -0.0498
     10 C          -5.7368   -4.3219    0.6616 C.1     1  LIG1       -0.1124
     11 H          -6.2734   -5.2196    0.8678 H       1  LIG1        0.1232
     12 N          -2.5657    1.4560   -0.8924 N.pl3   1  LIG1       -0.3562
     13 H          -1.6930    1.3330   -1.3893 H       1  LIG1        0.1424
     14 H          -3.2058    2.0327   -1.4288 H       1  LIG1        0.1424
     15 C          -5.3090    1.4148    0.0204 C.ar    1  LIG1        0.1781
     16 C          -5.0748    2.7148    0.4076 C.ar    1  LIG1        0.0943
     17 C          -6.3425    3.3865    0.3832 C.ar    1  LIG1        0.0942
     18 C          -7.2637    2.4527   -0.0005 C.ar    1  LIG1        0.1755
     19 O          -6.6501    1.2604   -0.2253 O.2     1  LIG1       -0.4479
     20 N          -3.9339    3.3449    0.8691 N.pl3   1  LIG1       -0.3535
     21 H          -3.0641    2.9070    0.5868 H       1  LIG1        0.1425
     22 H          -3.9616    4.3429    0.6975 H       1  LIG1        0.1425
     23 N          -6.4640    4.7443    0.7115 N.pl3   1  LIG1       -0.3535
     24 H          -7.3655    5.1345    0.4630 H       1  LIG1        0.1425
     25 H          -6.2707    4.9140    1.6933 H       1  LIG1        0.1425
     26 C          -8.6959    2.4179   -0.1594 C.ar    1  LIG1        0.1019
     27 C          -9.6667    3.3910   -0.4079 C.ar    1  LIG1        0.0742
     28 C         -10.9200    2.7167   -0.4847 C.ar    1  LIG1        0.0666
     29 C         -10.6895    1.3606   -0.2733 C.ar    1  LIG1        0.0719
     30 N          -9.3281    1.2274   -0.0938 N.ar    1  LIG1       -0.3492
     31 H          -8.8557    0.3421    0.0430 H       1  LIG1        0.1661
     32 C          -9.4919    4.7794   -0.6271 C.1     1  LIG1       -0.0656
     33 C          -9.4000    5.9677   -0.8245 C.1     1  LIG1       -0.1138
     34 H          -9.3034    7.0101   -1.0233 H       1  LIG1        0.1232
     35 N         -12.1438    3.3599   -0.7293 N.pl3   1  LIG1       -0.3554
     36 H         -11.9994    4.3522   -0.8804 H       1  LIG1        0.1424
     37 H         -12.6319    2.9720   -1.5292 H       1  LIG1        0.1424
     38 C         -11.2349   -1.1238   -0.1780 C.ar    1  LIG1        0.1225
     39 C         -11.6182    0.2372   -0.1962 C.ar    1  LIG1        0.0374
     40 C         -12.9954    0.5071   -0.1094 C.ar    1  LIG1       -0.0066
     41 C         -13.9020   -0.5348   -0.0494 C.ar    1  LIG1        0.1388
     42 C         -13.4163   -1.8480   -0.0791 C.ar    1  LIG1        0.0706
     43 N         -12.1306   -2.1248   -0.1288 N.ar    1  LIG1       -0.2424
     44 H         -13.3207    1.5366   -0.0530 H       1  LIG1        0.0662
     45 H         -14.1183   -2.6771   -0.0479 H       1  LIG1        0.0867
     46 C          -9.8627   -1.5565   -0.1772 C.1     1  LIG1       -0.0491
     47 C          -8.7143   -1.9234   -0.1426 C.1     1  LIG1       -0.1124
     48 H          -7.6873   -2.2187   -0.0892 H       1  LIG1        0.1232
     49 O         -15.2456   -0.3966    0.0437 O.3     1  LIG1       -0.4936
     50 C         -15.7739    0.9123    0.1038 C.3     1  LIG1        0.0789
     51 H         -16.8547    0.8004    0.1834 H       1  LIG1        0.0660
     52 H         -15.4000    1.4576    0.9776 H       1  LIG1        0.0660
     53 H         -15.5361    1.4838   -0.8010 H       1  LIG1        0.0660
@<TRIPOS>BOND
     1    37    35    1
     2    14    12    1
     3    13    12    1
     4    34    33    1
     5    12     4    1
     6    36    35    1
     7    33    32    3
     8    53    50    1
     9     7     3    1
    10    35    28    1
    11    32    27    1
    12     4     3   ar
    13     4     5   ar
    14    28    27   ar
    15    28    29   ar
    16     3     2   ar
    17    27    26   ar
    18    29    39    1
    19    29    30   ar
    20    19    18   ar
    21    19    15   ar
    22    39    38   ar
    23    39    40   ar
    24    38    46    1
    25    38    43   ar
    26    46    47    3
    27    26    30   ar
    28    26    18    1
    29     2     8    1
    30     2     1   ar
    31    47    48    1
    32    43    42   ar
    33    40    44    1
    34    40    41   ar
    35    30    31    1
    36     5    15    1
    37     5     6   ar
    38    42    41   ar
    39    42    45    1
    40    41    49    1
    41    18    17   ar
    42    15    16   ar
    43    49    50    1
    44    50    51    1
    45    50    52    1
    46     1     6   ar
    47     1     9    1
    48    17    16   ar
    49    17    23    1
    50    16    20    1
    51     9    10    3
    52    24    23    1
    53    21    20    1
    54    10    11    1
    55    22    20    1
    56    23    25    1
