@<TRIPOS>MOLECULE
mol_data/opt/cam/geoms/mol2/6eh6eh6eh6eh-.out
 54 57 0 0 0
SMALL
GASTEIGER

@<TRIPOS>ATOM
      1 C          -3.8423   -1.8593    1.1726 C.ar    1  LIG1        0.1139
      2 C          -3.0257   -2.2717    0.1166 C.ar    1  LIG1       -0.0260
      3 C          -3.0025   -1.5244   -1.0444 C.ar    1  LIG1       -0.0363
      4 C          -3.7888   -0.3749   -1.1423 C.ar    1  LIG1        0.0511
      5 C          -4.5762   -0.0361   -0.0214 C.ar    1  LIG1        0.0956
      6 N          -4.5987   -0.7597    1.0902 N.ar    1  LIG1       -0.2365
      7 H          -2.3794   -1.8250   -1.8817 H       1  LIG1        0.0637
      8 H          -2.4252   -3.1683    0.2157 H       1  LIG1        0.0646
      9 C          -3.8895   -2.6163    2.3923 C.1     1  LIG1       -0.0498
     10 C          -3.9047   -3.2726    3.4008 C.1     1  LIG1       -0.1124
     11 H          -3.9313   -3.8423    4.3008 H       1  LIG1        0.1232
     12 N          -3.7638    0.4195   -2.2773 N.pl3   1  LIG1       -0.3563
     13 H          -3.4679   -0.0441   -3.1235 H       1  LIG1        0.1424
     14 H          -4.5710    1.0106   -2.4129 H       1  LIG1        0.1424
     15 C          -6.8358    1.1095   -0.0092 C.ar    1  LIG1        0.1231
     16 C          -5.4325    1.1849   -0.0426 C.ar    1  LIG1        0.0378
     17 C          -4.8523    2.4441   -0.0924 C.ar    1  LIG1       -0.0270
     18 C          -5.6431    3.5927   -0.0809 C.ar    1  LIG1        0.0517
     19 C          -7.0399    3.4070   -0.0327 C.ar    1  LIG1        0.0957
     20 N          -7.6002    2.2057   -0.0073 N.ar    1  LIG1       -0.2358
     21 H          -3.7703    2.5341   -0.1302 H       1  LIG1        0.0644
     22 C          -7.5154   -0.1559   -0.0051 C.1     1  LIG1       -0.0491
     23 C          -8.0855   -1.2147   -0.0211 C.1     1  LIG1       -0.1124
     24 H          -8.5929   -2.1515   -0.0172 H       1  LIG1        0.1232
     25 N          -5.0745    4.8547   -0.0772 N.pl3   1  LIG1       -0.3563
     26 H          -4.1314    4.9114   -0.4311 H       1  LIG1        0.1424
     27 H          -5.6684    5.6076   -0.3919 H       1  LIG1        0.1424
     28 C          -8.8748    4.8296   -1.0475 C.ar    1  LIG1        0.1231
     29 C          -7.9616    4.5779   -0.0095 C.ar    1  LIG1        0.0378
     30 C          -7.9522    5.4554    1.0630 C.ar    1  LIG1       -0.0270
     31 C          -8.8293    6.5414    1.1206 C.ar    1  LIG1        0.0517
     32 C          -9.6954    6.7168    0.0175 C.ar    1  LIG1        0.0957
     33 N          -9.7087    5.8719   -1.0089 N.ar    1  LIG1       -0.2358
     34 H          -7.2673    5.2803    1.8880 H       1  LIG1        0.0644
     35 C          -8.9401    3.9936   -2.2140 C.1     1  LIG1       -0.0491
     36 C          -8.9883    3.3124   -3.2043 C.1     1  LIG1       -0.1124
     37 H          -9.0482    2.6993   -4.0734 H       1  LIG1        0.1232
     38 N          -8.8869    7.3290    2.2517 N.pl3   1  LIG1       -0.3563
     39 H          -8.1052    7.2288    2.8818 H       1  LIG1        0.1424
     40 H          -9.1532    8.2927    2.1194 H       1  LIG1        0.1424
     41 C         -10.4546    9.1663    0.0458 C.ar    1  LIG1        0.1224
     42 C         -10.7284    7.7907   -0.0483 C.ar    1  LIG1        0.0377
     43 C         -12.0448    7.4072   -0.2751 C.ar    1  LIG1       -0.0277
     44 C         -13.0514    8.3634   -0.3704 C.ar    1  LIG1        0.0436
     45 C         -12.6661    9.7067   -0.2294 C.ar    1  LIG1        0.0496
     46 N         -11.4205   10.0944   -0.0389 N.ar    1  LIG1       -0.2442
     47 H         -12.2713    6.3518   -0.3853 H       1  LIG1        0.0644
     48 H         -13.4184   10.4925   -0.2858 H       1  LIG1        0.0849
     49 C          -9.1160    9.6683    0.1973 C.1     1  LIG1       -0.0491
     50 C          -7.9969   10.0904    0.3384 C.1     1  LIG1       -0.1124
     51 H          -7.0103   10.4791    0.4442 H       1  LIG1        0.1232
     52 N         -14.3764    8.0183   -0.5453 N.pl3   1  LIG1       -0.3568
     53 H         -14.9845    8.7379   -0.9051 H       1  LIG1        0.1424
     54 H         -14.5550    7.1076   -0.9397 H       1  LIG1        0.1424
@<TRIPOS>BOND
     1    37    36    1
     2    36    35    3
     3    13    12    1
     4    14    12    1
     5    12     4    1
     6    35    28    1
     7     7     3    1
     8     4     3   ar
     9     4     5   ar
    10    28    33   ar
    11    28    29   ar
    12     3     2   ar
    13    33    32   ar
    14    54    52    1
    15    53    52    1
    16    52    44    1
    17    26    25    1
    18    27    25    1
    19    47    43    1
    20    44    43   ar
    21    44    45   ar
    22    48    45    1
    23    43    42   ar
    24    45    46   ar
    25    21    17    1
    26    17    18   ar
    27    17    16   ar
    28    18    25    1
    29    18    19   ar
    30    42    32    1
    31    42    41   ar
    32    16     5    1
    33    16    15   ar
    34    46    41   ar
    35    19    29    1
    36    19    20   ar
    37     5     6   ar
    38    23    24    1
    39    23    22    3
    40    29    30   ar
    41    15    20   ar
    42    15    22    1
    43    32    31   ar
    44    41    49    1
    45     2     8    1
    46     2     1   ar
    47    49    50    3
    48    50    51    1
    49    30    31   ar
    50    30    34    1
    51     6     1   ar
    52    31    38    1
    53     1     9    1
    54    40    38    1
    55    38    39    1
    56     9    10    3
    57    10    11    1
