@<TRIPOS>MOLECULE
mol_data/opt/cam/geoms/mol2/6eh6eh-6eh-6eh-.out
 54 57 0 0 0
SMALL
GASTEIGER

@<TRIPOS>ATOM
      1 C          -3.6544   -1.7207   -1.0465 C.ar    1  LIG1        0.1139
      2 C          -3.2262   -2.3980    0.0975 C.ar    1  LIG1       -0.0260
      3 C          -3.4710   -1.8341    1.3319 C.ar    1  LIG1       -0.0363
      4 C          -4.1267   -0.6026    1.4299 C.ar    1  LIG1        0.0511
      5 C          -4.4987    0.0213    0.2157 C.ar    1  LIG1        0.0956
      6 N          -4.2793   -0.5427   -0.9696 N.ar    1  LIG1       -0.2365
      7 H          -3.1658   -2.3474    2.2393 H       1  LIG1        0.0637
      8 H          -2.7176   -3.3505    0.0070 H       1  LIG1        0.0646
      9 C          -3.4388   -2.2819   -2.3510 C.1     1  LIG1       -0.0498
     10 C          -3.2442   -2.7792   -3.4295 C.1     1  LIG1       -0.1124
     11 H          -3.0753   -3.2062   -4.3909 H       1  LIG1        0.1232
     12 N          -4.4650   -0.0906    2.6682 N.pl3   1  LIG1       -0.3563
     13 H          -3.9802   -0.5182    3.4437 H       1  LIG1        0.1424
     14 H          -4.4777    0.9156    2.7452 H       1  LIG1        0.1424
     15 C          -4.8410    2.5139    0.7372 C.ar    1  LIG1        0.1231
     16 C          -5.2587    1.3038    0.1565 C.ar    1  LIG1        0.0378
     17 C          -6.4373    1.3251   -0.5767 C.ar    1  LIG1       -0.0270
     18 C          -7.1873    2.4910   -0.6945 C.ar    1  LIG1        0.0517
     19 C          -6.6992    3.6404   -0.0349 C.ar    1  LIG1        0.0957
     20 N          -5.5608    3.6379    0.6392 N.ar    1  LIG1       -0.2358
     21 H          -6.7588    0.4161   -1.0742 H       1  LIG1        0.0644
     22 C          -3.5923    2.6313    1.4404 C.1     1  LIG1       -0.0491
     23 C          -2.5527    2.7241    2.0408 C.1     1  LIG1       -0.1124
     24 H          -1.6230    2.8252    2.5519 H       1  LIG1        0.1232
     25 N          -8.3808    2.5076   -1.3953 N.pl3   1  LIG1       -0.3563
     26 H          -8.6799    3.4131   -1.7268 H       1  LIG1        0.1424
     27 H          -8.4845    1.7787   -2.0858 H       1  LIG1        0.1424
     28 C          -6.9254    6.0840   -0.6690 C.ar    1  LIG1        0.1231
     29 C          -7.4558    4.9236   -0.0777 C.ar    1  LIG1        0.0378
     30 C          -8.7237    5.0025    0.4814 C.ar    1  LIG1       -0.0270
     31 C          -9.4295    6.2047    0.4759 C.ar    1  LIG1        0.0517
     32 C          -8.8020    7.3119   -0.1289 C.ar    1  LIG1        0.0957
     33 N          -7.6005    7.2375   -0.6836 N.ar    1  LIG1       -0.2358
     34 H          -9.1652    4.1193    0.9344 H       1  LIG1        0.0644
     35 C          -5.6442    6.0759   -1.3177 C.1     1  LIG1       -0.0491
     36 C          -4.5819    6.0676   -1.8813 C.1     1  LIG1       -0.1124
     37 H          -3.6346    6.0632   -2.3689 H       1  LIG1        0.1232
     38 N         -10.6737    6.3111    1.0761 N.pl3   1  LIG1       -0.3563
     39 H         -11.2503    7.0735    0.7519 H       1  LIG1        0.1424
     40 H         -11.1810    5.4453    1.1816 H       1  LIG1        0.1424
     41 C          -9.9156    9.2090   -1.3802 C.ar    1  LIG1        0.1224
     42 C          -9.4818    8.6390   -0.1709 C.ar    1  LIG1        0.0377
     43 C          -9.6973    9.3467    1.0049 C.ar    1  LIG1       -0.0277
     44 C         -10.3038   10.6019    0.9652 C.ar    1  LIG1        0.0436
     45 C         -10.6863   11.0785   -0.2972 C.ar    1  LIG1        0.0496
     46 N         -10.5075   10.4106   -1.4228 N.ar    1  LIG1       -0.2442
     47 H          -9.3741    8.9246    1.9521 H       1  LIG1        0.0644
     48 H         -11.1630   12.0545   -0.3815 H       1  LIG1        0.0849
     49 C          -9.7705    8.5132   -2.6284 C.1     1  LIG1       -0.0491
     50 C          -9.6704    7.9266   -3.6739 C.1     1  LIG1       -0.1124
     51 H          -9.5636    7.4230   -4.6066 H       1  LIG1        0.1232
     52 N         -10.4800   11.3682    2.1007 N.pl3   1  LIG1       -0.3568
     53 H         -11.1646   12.1063    2.0464 H       1  LIG1        0.1424
     54 H         -10.4778   10.8816    2.9834 H       1  LIG1        0.1424
@<TRIPOS>BOND
     1    51    50    1
     2    11    10    1
     3    50    49    3
     4    10     9    3
     5    49    41    1
     6    37    36    1
     7     9     1    1
     8    27    25    1
     9    36    35    3
    10    26    25    1
    11    46    41   ar
    12    46    45   ar
    13    25    18    1
    14    41    42   ar
    15    35    28    1
    16    21    17    1
    17     1     6   ar
    18     1     2   ar
    19     6     5   ar
    20    18    17   ar
    21    18    19   ar
    22    33    28   ar
    23    33    32   ar
    24    28    29   ar
    25    17    16   ar
    26    48    45    1
    27    45    44   ar
    28    42    32    1
    29    42    43   ar
    30    32    31   ar
    31    29    19    1
    32    29    30   ar
    33    19    20   ar
    34     8     2    1
    35     2     3   ar
    36    16     5    1
    37    16    15   ar
    38     5     4   ar
    39    31    30   ar
    40    31    38    1
    41    30    34    1
    42    20    15   ar
    43    15    22    1
    44    39    38    1
    45    44    43   ar
    46    44    52    1
    47    43    47    1
    48    38    40    1
    49     3     4   ar
    50     3     7    1
    51     4    12    1
    52    22    23    3
    53    23    24    1
    54    53    52    1
    55    52    54    1
    56    12    14    1
    57    12    13    1
