@<TRIPOS>MOLECULE
mol_data/opt/cam/geoms/mol2/6eh6eh-6eh.out
 41 43 0 0 0
SMALL
GASTEIGER

@<TRIPOS>ATOM
      1 C          -4.4632   -2.1106   -0.3871 C.ar    1  LIG1        0.1139
      2 C          -3.1168   -2.2135   -0.0304 C.ar    1  LIG1       -0.0260
      3 C          -2.4405   -1.0705    0.3408 C.ar    1  LIG1       -0.0363
      4 C          -3.0929    0.1666    0.3486 C.ar    1  LIG1        0.0511
      5 C          -4.4494    0.1760   -0.0531 C.ar    1  LIG1        0.0956
      6 N          -5.0995   -0.9360   -0.3872 N.ar    1  LIG1       -0.2365
      7 H          -1.3978   -1.1235    0.6410 H       1  LIG1        0.0637
      8 H          -2.6234   -3.1782   -0.0424 H       1  LIG1        0.0646
      9 C          -5.2109   -3.2787   -0.7604 C.1     1  LIG1       -0.0498
     10 C          -5.8099   -4.2765   -1.0670 C.1     1  LIG1       -0.1124
     11 H          -6.3507   -5.1519   -1.3435 H       1  LIG1        0.1232
     12 N          -2.4450    1.2926    0.8204 N.pl3   1  LIG1       -0.3563
     13 H          -1.4419    1.1997    0.8879 H       1  LIG1        0.1424
     14 H          -2.7112    2.1686    0.3957 H       1  LIG1        0.1424
     15 C          -5.0146    2.5903   -0.7319 C.ar    1  LIG1        0.1231
     16 C          -5.2980    1.4032   -0.0356 C.ar    1  LIG1        0.0378
     17 C          -6.4855    1.3612    0.6786 C.ar    1  LIG1       -0.0270
     18 C          -7.3508    2.4531    0.7242 C.ar    1  LIG1        0.0517
     19 C          -6.9678    3.6020   -0.0087 C.ar    1  LIG1        0.0957
     20 N          -5.8327    3.6480   -0.6937 N.ar    1  LIG1       -0.2358
     21 H          -6.7403    0.4502    1.2104 H       1  LIG1        0.0644
     22 C          -3.8471    2.7332   -1.5587 C.1     1  LIG1       -0.0491
     23 C          -2.8611    2.8558   -2.2393 C.1     1  LIG1       -0.1124
     24 H          -2.0063    2.9634   -2.8666 H       1  LIG1        0.1232
     25 N          -8.4721    2.4192    1.5268 N.pl3   1  LIG1       -0.3563
     26 H          -9.2628    2.9630    1.2150 H       1  LIG1        0.1424
     27 H          -8.7433    1.4956    1.8310 H       1  LIG1        0.1424
     28 C          -9.0894    4.9850   -0.4061 C.ar    1  LIG1        0.1224
     29 C          -7.7472    4.8742   -0.0027 C.ar    1  LIG1        0.0377
     30 C          -7.0872    6.0377    0.3739 C.ar    1  LIG1       -0.0277
     31 C          -7.7554    7.2584    0.3773 C.ar    1  LIG1        0.0436
     32 C          -9.1038    7.2443   -0.0132 C.ar    1  LIG1        0.0496
     33 N          -9.7430    6.1570   -0.3979 N.ar    1  LIG1       -0.2442
     34 H          -6.0412    5.9796    0.6566 H       1  LIG1        0.0644
     35 H          -9.6743    8.1723   -0.0165 H       1  LIG1        0.0849
     36 C          -9.8309    3.8539   -0.8927 C.1     1  LIG1       -0.0491
     37 C         -10.4513    2.9007   -1.2879 C.1     1  LIG1       -0.1124
     38 H         -10.9973    2.0645   -1.6604 H       1  LIG1        0.1232
     39 N          -7.1468    8.4277    0.7915 N.pl3   1  LIG1       -0.3568
     40 H          -6.1394    8.4467    0.7465 H       1  LIG1        0.1424
     41 H          -7.5747    9.2867    0.4811 H       1  LIG1        0.1424
@<TRIPOS>BOND
     1    24    23    1
     2    23    22    3
     3    38    37    1
     4    22    15    1
     5    11    10    1
     6    37    36    3
     7    10     9    3
     8    36    28    1
     9     9     1    1
    10    15    20   ar
    11    15    16   ar
    12    20    19   ar
    13    28    33   ar
    14    28    29   ar
    15    33    32   ar
    16     6     1   ar
    17     6     5   ar
    18     1     2   ar
    19     5    16    1
    20     5     4   ar
    21     8     2    1
    22    16    17   ar
    23     2     3   ar
    24    35    32    1
    25    32    31   ar
    26    19    29    1
    27    19    18   ar
    28    29    30   ar
    29     3     4   ar
    30     3     7    1
    31     4    12    1
    32    30    31   ar
    33    30    34    1
    34    31    39    1
    35    14    12    1
    36    41    39    1
    37    17    18   ar
    38    17    21    1
    39    18    25    1
    40    40    39    1
    41    12    13    1
    42    26    25    1
    43    25    27    1
