@<TRIPOS>MOLECULE
mol_data/opt/cam/geoms/mol2/6eh6ei4fd-13le-.out
 55 58 0 0 0
SMALL
GASTEIGER

@<TRIPOS>ATOM
      1 C          -4.2280   -2.3688    0.4231 C.ar    1  LIG1        0.1139
      2 C          -2.9776   -2.4516   -0.1954 C.ar    1  LIG1       -0.0260
      3 C          -2.4709   -1.3374   -0.8338 C.ar    1  LIG1       -0.0363
      4 C          -3.2092   -0.1521   -0.8487 C.ar    1  LIG1        0.0511
      5 C          -4.4578   -0.1629   -0.1904 C.ar    1  LIG1        0.0956
      6 N          -4.9423   -1.2391    0.4170 N.ar    1  LIG1       -0.2365
      7 H          -1.5038   -1.3762   -1.3265 H       1  LIG1        0.0637
      8 H          -2.4232   -3.3824   -0.1720 H       1  LIG1        0.0646
      9 C          -4.7846   -3.5113    1.0923 C.1     1  LIG1       -0.0498
     10 C          -5.2220   -4.4865    1.6450 C.1     1  LIG1       -0.1124
     11 H          -5.6244   -5.3406    2.1390 H       1  LIG1        0.1232
     12 N          -2.7142    0.9923   -1.4512 N.pl3   1  LIG1       -0.3563
     13 H          -2.0060    0.8424   -2.1541 H       1  LIG1        0.1424
     14 H          -3.4015    1.6805   -1.7211 H       1  LIG1        0.1424
     15 C          -6.5926    1.1120   -0.6847 C.ar    1  LIG1        0.1230
     16 C          -5.2989    1.0659   -0.1413 C.ar    1  LIG1        0.0363
     17 C          -4.8414    2.2155    0.4940 C.ar    1  LIG1       -0.0449
     18 C          -5.6238    3.3612    0.5851 C.ar    1  LIG1       -0.0237
     19 C          -6.8898    3.3053   -0.0225 C.ar    1  LIG1        0.0788
     20 N          -7.3551    2.2074   -0.6189 N.ar    1  LIG1       -0.2374
     21 H          -3.8562    2.2067    0.9514 H       1  LIG1        0.0628
     22 C          -7.1588   -0.0163   -1.3719 C.1     1  LIG1       -0.0491
     23 C          -7.6351   -0.9447   -1.9691 C.1     1  LIG1       -0.1124
     24 H          -8.0619   -1.7746   -2.4835 H       1  LIG1        0.1232
     25 C          -5.1270    4.5595    1.3437 C.3     1  LIG1       -0.0377
     26 H          -5.9248    5.0088    1.9404 H       1  LIG1        0.0278
     27 H          -4.7600    5.3307    0.6630 H       1  LIG1        0.0278
     28 H          -4.3159    4.2766    2.0178 H       1  LIG1        0.0278
     29 C          -7.5582    5.7198   -0.4941 C.ar    1  LIG1        0.1267
     30 C          -8.5013    6.7387   -0.4738 C.ar    1  LIG1       -0.0091
     31 C          -7.8511    4.4429    0.0050 C.ar    1  LIG1        0.0433
     32 C          -9.7905    6.5464    0.0291 C.ar    1  LIG1        0.0227
     33 H          -8.2414    7.7132   -0.8699 H       1  LIG1        0.0661
     34 C          -9.1400    4.2320    0.4667 C.ar    1  LIG1       -0.0310
     35 C         -10.0994    5.2471    0.4989 C.ar    1  LIG1        0.0618
     36 H          -9.4095    3.2400    0.8102 H       1  LIG1        0.0638
     37 O          -6.3307    5.9243   -1.0354 O.3     1  LIG1       -0.5061
     38 H          -6.2854    6.8216   -1.3881 H       1  LIG1        0.2922
     39 N         -12.4442    4.6533    1.4213 N.1     1  LIG1       -0.1908
     40 C         -11.3878    4.9096    1.0189 C.1     1  LIG1        0.0998
     41 C         -10.7240    7.6710    0.0287 C.ar    1  LIG1        0.0913
     42 C         -10.4847    9.0242   -0.1750 C.ar    1  LIG1        0.1606
     43 C         -11.7234    9.7244   -0.0979 C.ar    1  LIG1        0.0842
     44 C         -12.6871    8.7654    0.1524 C.ar    1  LIG1        0.0213
     45 N         -12.0898    7.5569    0.2200 N.ar    1  LIG1       -0.3565
     46 H         -12.5738    6.6937    0.4181 H       1  LIG1        0.1655
     47 H         -13.7525    8.8792    0.2770 H       1  LIG1        0.0820
     48 O          -9.2678    9.5731   -0.4420 O.3     1  LIG1       -0.4918
     49 C          -8.8177   10.5343    0.5104 C.3     1  LIG1        0.0789
     50 H          -7.8417   10.8760    0.1644 H       1  LIG1        0.0660
     51 H          -9.5013   11.3844    0.5663 H       1  LIG1        0.0660
     52 H          -8.7173   10.0792    1.5017 H       1  LIG1        0.0660
     53 C         -11.9464   11.1156   -0.2795 C.1     1  LIG1       -0.0645
     54 C         -12.1372   12.2954   -0.4311 C.1     1  LIG1       -0.1137
     55 H         -12.3122   13.3360   -0.5785 H       1  LIG1        0.1232
@<TRIPOS>BOND
     1    24    23    1
     2    13    12    1
     3    23    22    3
     4    14    12    1
     5    12     4    1
     6    38    37    1
     7    22    15    1
     8     7     3    1
     9    37    29    1
    10    33    30    1
    11     4     3   ar
    12     4     5   ar
    13     3     2   ar
    14    15    20   ar
    15    15    16   ar
    16    20    19   ar
    17    55    54    1
    18    29    30   ar
    19    29    31   ar
    20    30    32   ar
    21    48    42    1
    22    48    49    1
    23    54    53    3
    24    53    43    1
    25     2     8    1
    26     2     1   ar
    27     5    16    1
    28     5     6   ar
    29    42    43   ar
    30    42    41   ar
    31    16    17   ar
    32    43    44   ar
    33    19    31    1
    34    19    18   ar
    35    31    34   ar
    36    41    32    1
    37    41    45   ar
    38    32    35   ar
    39    44    45   ar
    40    44    47    1
    41    50    49    1
    42    45    46    1
    43     6     1   ar
    44     1     9    1
    45    34    35   ar
    46    34    36    1
    47    17    18   ar
    48    17    21    1
    49    35    40    1
    50    49    51    1
    51    49    52    1
    52    18    25    1
    53    27    25    1
    54    40    39    3
    55     9    10    3
    56    25    26    1
    57    25    28    1
    58    10    11    1
