@<TRIPOS>MOLECULE
mol_data/opt/cam/geoms/mol2/6eh6eh-6eh6eh-.out
 54 57 0 0 0
SMALL
GASTEIGER

@<TRIPOS>ATOM
      1 C          -4.2895   -2.1633    0.4631 C.ar    1  LIG1        0.1139
      2 C          -3.0285   -2.2790   -0.1279 C.ar    1  LIG1       -0.0260
      3 C          -2.4772   -1.1768   -0.7465 C.ar    1  LIG1       -0.0363
      4 C          -3.1718    0.0377   -0.7637 C.ar    1  LIG1        0.0511
      5 C          -4.4252    0.0684   -0.1078 C.ar    1  LIG1        0.0956
      6 N          -4.9616   -1.0080    0.4581 N.ar    1  LIG1       -0.2365
      7 H          -1.5062   -1.2437   -1.2284 H       1  LIG1        0.0637
      8 H          -2.5046   -3.2273   -0.1052 H       1  LIG1        0.0646
      9 C          -4.9077   -3.2974    1.0908 C.1     1  LIG1       -0.0498
     10 C          -5.3993   -4.2669    1.6073 C.1     1  LIG1       -0.1124
     11 H          -5.8447   -5.1158    2.0722 H       1  LIG1        0.1232
     12 N          -2.6416    1.1348   -1.3930 N.pl3   1  LIG1       -0.3563
     13 H          -1.9235    0.9858   -2.0817 H       1  LIG1        0.1424
     14 H          -3.2256    1.9420   -1.5328 H       1  LIG1        0.1424
     15 C          -4.8967    2.5195    0.4647 C.ar    1  LIG1        0.1231
     16 C          -5.2826    1.2881   -0.0939 C.ar    1  LIG1        0.0378
     17 C          -6.5602    1.2058   -0.6261 C.ar    1  LIG1       -0.0270
     18 C          -7.4220    2.3016   -0.6311 C.ar    1  LIG1        0.0517
     19 C          -6.9321    3.4992   -0.0577 C.ar    1  LIG1        0.0957
     20 N          -5.7103    3.5817    0.4559 N.ar    1  LIG1       -0.2358
     21 H          -6.8908    0.2600   -1.0442 H       1  LIG1        0.0644
     22 C          -3.6305    2.6951    1.1207 C.1     1  LIG1       -0.0491
     23 C          -2.5767    2.8427    1.6818 C.1     1  LIG1       -0.1124
     24 H          -1.6445    2.9704    2.1815 H       1  LIG1        0.1232
     25 N          -8.6499    2.2186   -1.2611 N.pl3   1  LIG1       -0.3563
     26 H          -9.3927    2.7647   -0.8494 H       1  LIG1        0.1424
     27 H          -8.9491    1.2735   -1.4547 H       1  LIG1        0.1424
     28 C          -8.9720    4.9677    0.4831 C.ar    1  LIG1        0.1231
     29 C          -7.6902    4.7841   -0.0624 C.ar    1  LIG1        0.0378
     30 C          -7.0711    5.9018   -0.6008 C.ar    1  LIG1       -0.0270
     31 C          -7.6979    7.1463   -0.6244 C.ar    1  LIG1        0.0517
     32 C          -8.9934    7.2190   -0.0593 C.ar    1  LIG1        0.0957
     33 N          -9.5895    6.1538    0.4602 N.ar    1  LIG1       -0.2358
     34 H          -6.0713    5.7964   -1.0096 H       1  LIG1        0.0644
     35 C          -9.6851    3.9030    1.1344 C.1     1  LIG1       -0.0491
     36 C         -10.2830    3.0042    1.6682 C.1     1  LIG1       -0.1124
     37 H         -10.8041    2.2200    2.1678 H       1  LIG1        0.1232
     38 N          -7.0981    8.2164   -1.2592 N.pl3   1  LIG1       -0.3563
     39 H          -6.1115    8.0939   -1.4364 H       1  LIG1        0.1424
     40 H          -7.2982    9.1279   -0.8746 H       1  LIG1        0.1424
     41 C          -9.4417    9.6863    0.4775 C.ar    1  LIG1        0.1224
     42 C          -9.8285    8.4554   -0.0808 C.ar    1  LIG1        0.0377
     43 C         -11.0936    8.3729   -0.6502 C.ar    1  LIG1       -0.0277
     44 C         -11.9237    9.4894   -0.6900 C.ar    1  LIG1        0.0436
     45 C         -11.4190   10.6749   -0.1317 C.ar    1  LIG1        0.0496
     46 N         -10.2329   10.7693    0.4362 N.ar    1  LIG1       -0.2442
     47 H         -11.4271    7.4216   -1.0518 H       1  LIG1        0.0644
     48 H         -12.0269   11.5788   -0.1447 H       1  LIG1        0.0849
     49 C          -8.1883    9.8485    1.1621 C.1     1  LIG1       -0.0491
     50 C          -7.1315    9.9825    1.7236 C.1     1  LIG1       -0.1124
     51 H          -6.2091   10.0994    2.2445 H       1  LIG1        0.1232
     52 N         -13.2007    9.4376   -1.2108 N.pl3   1  LIG1       -0.3568
     53 H         -13.6155   10.3161   -1.4806 H       1  LIG1        0.1424
     54 H         -13.4014    8.6822   -1.8472 H       1  LIG1        0.1424
@<TRIPOS>BOND
     1    13    12    1
     2    54    52    1
     3    14    12    1
     4    53    52    1
     5    27    25    1
     6    39    38    1
     7    12     4    1
     8    25    26    1
     9    25    18    1
    10    38    40    1
    11    38    31    1
    12     7     3    1
    13    52    44    1
    14    47    43    1
    15    21    17    1
    16    34    30    1
    17     4     3   ar
    18     4     5   ar
    19     3     2   ar
    20    44    43   ar
    21    44    45   ar
    22    43    42   ar
    23    18    17   ar
    24    18    19   ar
    25    17    16   ar
    26    31    30   ar
    27    31    32   ar
    28    30    29   ar
    29    48    45    1
    30    45    46   ar
    31     2     8    1
    32     2     1   ar
    33     5    16    1
    34     5     6   ar
    35    16    15   ar
    36    42    32    1
    37    42    41   ar
    38    29    19    1
    39    29    28   ar
    40    32    33   ar
    41    19    20   ar
    42    46    41   ar
    43    20    15   ar
    44     6     1   ar
    45    33    28   ar
    46     1     9    1
    47    15    22    1
    48    41    49    1
    49    28    35    1
    50     9    10    3
    51    22    23    3
    52    35    36    3
    53    49    50    3
    54    10    11    1
    55    36    37    1
    56    23    24    1
    57    50    51    1
