@<TRIPOS>MOLECULE
mol_data/opt/cam/geoms/mol2/6eh6dh-4ia-6ae.out
 51 54 0 0 0
SMALL
GASTEIGER

@<TRIPOS>ATOM
      1 C          -4.0130   -1.8673    1.0341 C.ar    1  LIG1        0.1139
      2 C          -2.9616   -2.1916    0.1714 C.ar    1  LIG1       -0.0260
      3 C          -2.6743   -1.3477   -0.8820 C.ar    1  LIG1       -0.0363
      4 C          -3.4272   -0.1862   -1.0676 C.ar    1  LIG1        0.0511
      5 C          -4.4561    0.0644   -0.1366 C.ar    1  LIG1        0.0957
      6 N          -4.7364   -0.7572    0.8689 N.ar    1  LIG1       -0.2365
      7 H          -1.8694   -1.5829   -1.5723 H       1  LIG1        0.0637
      8 H          -2.3912   -3.0988    0.3318 H       1  LIG1        0.0646
      9 C          -4.3417   -2.7269    2.1358 C.1     1  LIG1       -0.0498
     10 C          -4.5892   -3.4672    3.0510 C.1     1  LIG1       -0.1124
     11 H          -4.8281   -4.1144    3.8632 H       1  LIG1        0.1232
     12 N          -3.1417    0.6926   -2.1033 N.pl3   1  LIG1       -0.3563
     13 H          -2.6341    0.2868   -2.8761 H       1  LIG1        0.1424
     14 H          -3.9136    1.2675   -2.4090 H       1  LIG1        0.1424
     15 C          -6.6999    1.2198   -0.2816 C.ar    1  LIG1        0.1500
     16 C          -5.3008    1.2878   -0.2241 C.ar    1  LIG1        0.0398
     17 C          -4.7302    2.5540   -0.2201 C.ar    1  LIG1       -0.0270
     18 C          -5.5318    3.6953   -0.2360 C.ar    1  LIG1        0.0516
     19 C          -6.9344    3.5115   -0.2470 C.ar    1  LIG1        0.0933
     20 N          -7.4788    2.3035   -0.2963 N.ar    1  LIG1       -0.2338
     21 H          -3.6492    2.6536   -0.1948 H       1  LIG1        0.0644
     22 N          -7.9538   -1.0446   -0.5067 N.1     1  LIG1       -0.1893
     23 C          -7.3864   -0.0454   -0.3816 C.1     1  LIG1        0.1198
     24 N          -4.9780    4.9563   -0.2086 N.pl3   1  LIG1       -0.3563
     25 H          -4.0120    5.0383   -0.4848 H       1  LIG1        0.1424
     26 H          -5.5697    5.7142   -0.5152 H       1  LIG1        0.1424
     27 C          -8.0082    5.5449    0.8205 C.ar    1  LIG1       -0.0406
     28 C          -8.9052    6.6053    0.7144 C.ar    1  LIG1       -0.0504
     29 C          -7.8676    4.6764   -0.2758 C.ar    1  LIG1        0.0051
     30 C          -9.6672    6.8273   -0.4341 C.ar    1  LIG1       -0.0161
     31 H          -9.0403    7.2581    1.5716 H       1  LIG1        0.0626
     32 C          -8.6433    4.8795   -1.4168 C.ar    1  LIG1       -0.0517
     33 C          -9.5289    5.9417   -1.5039 C.ar    1  LIG1       -0.0533
     34 H          -8.5439    4.1880   -2.2469 H       1  LIG1        0.0624
     35 C          -7.2575    5.3192    2.1074 C.3     1  LIG1       -0.0391
     36 H          -7.5990    6.0095    2.8810 H       1  LIG1        0.0278
     37 H          -6.1811    5.4597    1.9744 H       1  LIG1        0.0278
     38 H          -7.4080    4.3002    2.4741 H       1  LIG1        0.0278
     39 H         -10.0997    6.0950   -2.4134 H       1  LIG1        0.0624
     40 C         -11.8570    7.8406   -1.1224 C.ar    1  LIG1        0.0353
     41 C         -10.6073    7.9695   -0.5078 C.ar    1  LIG1        0.0014
     42 C         -10.2938    9.2137    0.0318 C.ar    1  LIG1       -0.0357
     43 C         -11.2114   10.2602   -0.0625 C.ar    1  LIG1        0.0433
     44 C         -12.4250   10.0081   -0.7127 C.ar    1  LIG1        0.0430
     45 N         -12.7432    8.8272   -1.2293 N.ar    1  LIG1       -0.2614
     46 H          -9.3347    9.3827    0.5092 H       1  LIG1        0.0637
     47 H         -13.1588   10.8035   -0.8111 H       1  LIG1        0.0842
     48 H         -12.1596    6.8801   -1.5323 H       1  LIG1        0.0836
     49 C         -10.9259   11.5548    0.4740 C.1     1  LIG1       -0.0681
     50 C         -10.6896   12.6453    0.9249 C.1     1  LIG1       -0.1139
     51 H         -10.4830   13.6118    1.3238 H       1  LIG1        0.1232
@<TRIPOS>BOND
     1    13    12    1
     2    39    33    1
     3    14    12    1
     4    34    32    1
     5    12     4    1
     6     7     3    1
     7    48    40    1
     8    33    32   ar
     9    33    30   ar
    10    32    29   ar
    11    45    40   ar
    12    45    44   ar
    13    40    41   ar
    14     4     3   ar
    15     4     5   ar
    16     3     2   ar
    17    47    44    1
    18    44    43   ar
    19    26    24    1
    20    41    30    1
    21    41    42   ar
    22    22    23    3
    23    25    24    1
    24    30    28   ar
    25    23    15    1
    26    20    15   ar
    27    20    19   ar
    28    15    16   ar
    29    29    19    1
    30    29    27   ar
    31    19    18   ar
    32    18    17   ar
    33    18    24    1
    34    16    17   ar
    35    16     5    1
    36    17    21    1
    37     5     6   ar
    38    43    42   ar
    39    43    49    1
    40    42    46    1
    41     2     8    1
    42     2     1   ar
    43    49    50    3
    44    28    27   ar
    45    28    31    1
    46    27    35    1
    47     6     1   ar
    48    50    51    1
    49     1     9    1
    50    37    35    1
    51    35    38    1
    52    35    36    1
    53     9    10    3
    54    10    11    1
