@<TRIPOS>MOLECULE
mol_data/opt/cam/geoms/mol2/6eh6eh6eh.out
 41 43 0 0 0
SMALL
GASTEIGER

@<TRIPOS>ATOM
      1 C          -3.3369   -1.3580    1.1151 C.ar    1  LIG1        0.1139
      2 C          -3.4110   -2.4129    0.2026 C.ar    1  LIG1       -0.0260
      3 C          -4.2709   -2.3035   -0.8699 C.ar    1  LIG1       -0.0363
      4 C          -5.0595   -1.1593   -1.0294 C.ar    1  LIG1        0.0511
      5 C          -4.9375   -0.1566   -0.0387 C.ar    1  LIG1        0.0956
      6 N          -4.0867   -0.2608    0.9788 N.ar    1  LIG1       -0.2365
      7 H          -4.3339   -3.0999   -1.6060 H       1  LIG1        0.0637
      8 H          -2.7953   -3.2940    0.3395 H       1  LIG1        0.0646
      9 C          -2.4382   -1.4220    2.2337 C.1     1  LIG1       -0.0498
     10 C          -1.6742   -1.5055    3.1598 C.1     1  LIG1       -0.1124
     11 H          -1.0041   -1.5665    3.9859 H       1  LIG1        0.1232
     12 N          -5.8403   -1.0034   -2.1577 N.pl3   1  LIG1       -0.3563
     13 H          -6.0152   -1.8541   -2.6719 H       1  LIG1        0.1424
     14 H          -6.6751   -0.4470   -2.0529 H       1  LIG1        0.1424
     15 C          -7.0710    1.2643   -0.1651 C.ar    1  LIG1        0.1231
     16 C          -5.6727    1.1395   -0.1021 C.ar    1  LIG1        0.0378
     17 C          -4.9384    2.3134   -0.0352 C.ar    1  LIG1       -0.0270
     18 C          -5.5540    3.5637   -0.0765 C.ar    1  LIG1        0.0517
     19 C          -6.9641    3.5771   -0.2028 C.ar    1  LIG1        0.0957
     20 N          -7.6742    2.4567   -0.2145 N.ar    1  LIG1       -0.2358
     21 H          -3.8605    2.2464    0.0717 H       1  LIG1        0.0644
     22 C          -7.9419    0.1207   -0.1334 C.1     1  LIG1       -0.0491
     23 C          -8.6694   -0.8389   -0.1179 C.1     1  LIG1       -0.1124
     24 H          -9.3213   -1.6812   -0.0842 H       1  LIG1        0.1232
     25 N          -4.8098    4.7132    0.0889 N.pl3   1  LIG1       -0.3563
     26 H          -3.8126    4.5881   -0.0035 H       1  LIG1        0.1424
     27 H          -5.1386    5.5360   -0.3933 H       1  LIG1        0.1424
     28 C          -7.6065    5.8789   -1.1316 C.ar    1  LIG1        0.1224
     29 C          -7.7733    4.8301   -0.2104 C.ar    1  LIG1        0.0377
     30 C          -8.7914    4.9491    0.7282 C.ar    1  LIG1       -0.0277
     31 C          -9.5872    6.0903    0.7644 C.ar    1  LIG1        0.0436
     32 C          -9.3085    7.0884   -0.1836 C.ar    1  LIG1        0.0496
     33 N          -8.3653    6.9854   -1.0990 N.ar    1  LIG1       -0.2442
     34 H          -8.9608    4.1331    1.4230 H       1  LIG1        0.0644
     35 H          -9.8985    8.0041   -0.1921 H       1  LIG1        0.0849
     36 C          -6.6362    5.8137   -2.1901 C.1     1  LIG1       -0.0491
     37 C          -5.8137    5.7624   -3.0682 C.1     1  LIG1       -0.1124
     38 H          -5.1036    5.7156   -3.8615 H       1  LIG1        0.1232
     39 N         -10.6316    6.2293    1.6553 N.pl3   1  LIG1       -0.3568
     40 H         -10.6071    5.6475    2.4780 H       1  LIG1        0.1424
     41 H         -10.9554    7.1677    1.8313 H       1  LIG1        0.1424
@<TRIPOS>BOND
     1    38    37    1
     2    37    36    3
     3    13    12    1
     4    36    28    1
     5    12    14    1
     6    12     4    1
     7     7     3    1
     8    28    33   ar
     9    28    29   ar
    10    33    32   ar
    11     4     3   ar
    12     4     5   ar
    13     3     2   ar
    14    27    25    1
    15    20    19   ar
    16    20    15   ar
    17    29    19    1
    18    29    30   ar
    19    19    18   ar
    20    35    32    1
    21    32    31   ar
    22    15    22    1
    23    15    16   ar
    24    22    23    3
    25    23    24    1
    26    16     5    1
    27    16    17   ar
    28    18    17   ar
    29    18    25    1
    30     5     6   ar
    31    17    21    1
    32    26    25    1
    33     2     8    1
    34     2     1   ar
    35    30    31   ar
    36    30    34    1
    37    31    39    1
    38     6     1   ar
    39     1     9    1
    40    39    41    1
    41    39    40    1
    42     9    10    3
    43    10    11    1
