@<TRIPOS>MOLECULE
mol_data/opt/cam/geoms/mol2/6eh6eh6eh-6eh.out
 54 57 0 0 0
SMALL
GASTEIGER

@<TRIPOS>ATOM
      1 C          -4.3157   -2.1572    0.6833 C.ar    1  LIG1        0.1139
      2 C          -3.0960   -2.3145    0.0201 C.ar    1  LIG1       -0.0260
      3 C          -2.5896   -1.2579   -0.7104 C.ar    1  LIG1       -0.0363
      4 C          -3.2983   -0.0565   -0.7722 C.ar    1  LIG1        0.0511
      5 C          -4.5177    0.0088   -0.0647 C.ar    1  LIG1        0.0956
      6 N          -5.0024   -1.0114    0.6319 N.ar    1  LIG1       -0.2365
      7 H          -1.6455   -1.3548   -1.2386 H       1  LIG1        0.0637
      8 H          -2.5644   -3.2568    0.0815 H       1  LIG1        0.0646
      9 C          -4.8702   -3.2382    1.4495 C.1     1  LIG1       -0.0498
     10 C          -5.3060   -4.1633    2.0837 C.1     1  LIG1       -0.1124
     11 H          -5.7064   -4.9724    2.6497 H       1  LIG1        0.1232
     12 N          -2.8013    1.0343   -1.4671 N.pl3   1  LIG1       -0.3563
     13 H          -2.1413    0.8168   -2.1989 H       1  LIG1        0.1424
     14 H          -3.4845    1.7245   -1.7431 H       1  LIG1        0.1424
     15 C          -6.6202    1.3110   -0.6191 C.ar    1  LIG1        0.1231
     16 C          -5.3288    1.2597   -0.0672 C.ar    1  LIG1        0.0378
     17 C          -4.8294    2.4207    0.5014 C.ar    1  LIG1       -0.0270
     18 C          -5.5854    3.5948    0.5420 C.ar    1  LIG1        0.0517
     19 C          -6.8662    3.5454   -0.0532 C.ar    1  LIG1        0.0957
     20 N          -7.3475    2.4305   -0.5954 N.ar    1  LIG1       -0.2358
     21 H          -3.8385    2.4110    0.9470 H       1  LIG1        0.0644
     22 C          -7.2118    0.1688   -1.2580 C.1     1  LIG1       -0.0491
     23 C          -7.7040   -0.7778   -1.8134 C.1     1  LIG1       -0.1124
     24 H          -8.1449   -1.6219   -2.2911 H       1  LIG1        0.1232
     25 N          -5.1145    4.7020    1.2209 N.pl3   1  LIG1       -0.3563
     26 H          -4.1310    4.6697    1.4462 H       1  LIG1        0.1424
     27 H          -5.3895    5.6010    0.8541 H       1  LIG1        0.1424
     28 C          -7.5638    5.9705   -0.5450 C.ar    1  LIG1        0.1231
     29 C          -7.8255    4.6873   -0.0361 C.ar    1  LIG1        0.0378
     30 C          -9.0940    4.4594    0.4749 C.ar    1  LIG1       -0.0270
     31 C         -10.0612    5.4628    0.5046 C.ar    1  LIG1        0.0517
     32 C          -9.6925    6.7212   -0.0295 C.ar    1  LIG1        0.0957
     33 N          -8.4804    6.9446   -0.5198 N.ar    1  LIG1       -0.2358
     34 H          -9.3305    3.4718    0.8573 H       1  LIG1        0.0644
     35 C          -6.3090    6.3115   -1.1585 C.1     1  LIG1       -0.0491
     36 C          -5.2524    6.6023   -1.6584 C.1     1  LIG1       -0.1124
     37 H          -4.3313    6.8650   -2.1255 H       1  LIG1        0.1232
     38 N         -11.2775    5.2384    1.1135 N.pl3   1  LIG1       -0.3563
     39 H         -12.0649    5.7528    0.7486 H       1  LIG1        0.1424
     40 H         -11.4973    4.2659    1.2716 H       1  LIG1        0.1424
     41 C         -11.8617    7.9612   -0.6003 C.ar    1  LIG1        0.1224
     42 C         -10.5886    7.9137   -0.0057 C.ar    1  LIG1        0.0377
     43 C         -10.1126    9.0719    0.5968 C.ar    1  LIG1       -0.0277
     44 C         -10.8952   10.2222    0.6308 C.ar    1  LIG1        0.0436
     45 C         -12.1635   10.1441    0.0339 C.ar    1  LIG1        0.0496
     46 N         -12.6254    9.0640   -0.5650 N.ar    1  LIG1       -0.2442
     47 H          -9.1189    9.0665    1.0326 H       1  LIG1        0.0644
     48 H         -12.8191   11.0140    0.0444 H       1  LIG1        0.0849
     49 C         -12.4048    6.8413   -1.3193 C.1     1  LIG1       -0.0491
     50 C         -12.8598    5.8961   -1.9104 C.1     1  LIG1       -0.1124
     51 H         -13.2572    5.0696   -2.4534 H       1  LIG1        0.1232
     52 N         -10.4765   11.3770    1.2634 N.pl3   1  LIG1       -0.3568
     53 H          -9.4809   11.4855    1.3820 H       1  LIG1        0.1424
     54 H         -10.9397   12.2294    0.9875 H       1  LIG1        0.1424
@<TRIPOS>BOND
     1    51    50    1
     2    24    23    1
     3    13    12    1
     4    37    36    1
     5    50    49    3
     6    23    22    3
     7    14    12    1
     8    36    35    3
     9    12     4    1
    10    49    41    1
    11    22    15    1
    12     7     3    1
    13    35    28    1
    14     4     3   ar
    15     4     5   ar
    16     3     2   ar
    17    15    20   ar
    18    15    16   ar
    19    41    46   ar
    20    41    42   ar
    21    20    19   ar
    22    46    45   ar
    23    28    33   ar
    24    28    29   ar
    25    33    32   ar
    26    16     5    1
    27    16    17   ar
    28     5     6   ar
    29    19    29    1
    30    19    18   ar
    31    29    30   ar
    32    32    42    1
    33    32    31   ar
    34    42    43   ar
    35     2     8    1
    36     2     1   ar
    37    45    48    1
    38    45    44   ar
    39    30    31   ar
    40    30    34    1
    41    17    18   ar
    42    17    21    1
    43    31    38    1
    44    18    25    1
    45    43    44   ar
    46    43    47    1
    47    44    52    1
    48     6     1   ar
    49     1     9    1
    50    39    38    1
    51    27    25    1
    52    54    52    1
    53    38    40    1
    54    25    26    1
    55    52    53    1
    56     9    10    3
    57    10    11    1
