@<TRIPOS>MOLECULE
mol_data/opt/cam/geoms/mol2/6eh6eh-.out
 28 29 0 0 0
SMALL
GASTEIGER

@<TRIPOS>ATOM
      1 C          -4.4698   -2.0221    0.3326 C.ar    1  LIG1        0.1139
      2 C          -3.2231   -2.1512   -0.2837 C.ar    1  LIG1       -0.0260
      3 C          -2.6413   -1.0330   -0.8431 C.ar    1  LIG1       -0.0363
      4 C          -3.2874    0.2059   -0.7822 C.ar    1  LIG1        0.0511
      5 C          -4.5344    0.2438   -0.1147 C.ar    1  LIG1        0.0956
      6 N          -5.0985   -0.8454    0.4005 N.ar    1  LIG1       -0.2365
      7 H          -1.6808   -1.1076   -1.3451 H       1  LIG1        0.0637
      8 H          -2.7329   -3.1169   -0.3220 H       1  LIG1        0.0646
      9 C          -5.1210   -3.1652    0.9092 C.1     1  LIG1       -0.0498
     10 C          -5.6410   -4.1422    1.3816 C.1     1  LIG1       -0.1124
     11 H          -6.1118   -4.9978    1.8076 H       1  LIG1        0.1232
     12 N          -2.7541    1.3026   -1.4328 N.pl3   1  LIG1       -0.3563
     13 H          -1.7839    1.2026   -1.6936 H       1  LIG1        0.1424
     14 H          -2.9363    2.2011   -1.0111 H       1  LIG1        0.1424
     15 C          -4.9461    2.6906    0.5408 C.ar    1  LIG1        0.1224
     16 C          -5.3721    1.4758   -0.0242 C.ar    1  LIG1        0.0377
     17 C          -6.6808    1.4023   -0.4864 C.ar    1  LIG1       -0.0277
     18 C          -7.5169    2.5129   -0.4185 C.ar    1  LIG1        0.0436
     19 C          -6.9726    3.6839    0.1339 C.ar    1  LIG1        0.0496
     20 N          -5.7432    3.7685    0.6024 N.ar    1  LIG1       -0.2442
     21 H          -7.0420    0.4612   -0.8880 H       1  LIG1        0.0644
     22 H          -7.5838    4.5829    0.2023 H       1  LIG1        0.0849
     23 C          -3.6412    2.8429    1.1244 C.1     1  LIG1       -0.0491
     24 C          -2.5431    2.9741    1.6011 C.1     1  LIG1       -0.1124
     25 H          -1.5831    3.0922    2.0485 H       1  LIG1        0.1232
     26 N          -8.8328    2.4679   -0.8305 N.pl3   1  LIG1       -0.3568
     27 H          -9.2753    3.3501   -1.0359 H       1  LIG1        0.1424
     28 H          -9.0862    1.7273   -1.4654 H       1  LIG1        0.1424
@<TRIPOS>BOND
     1    13    12    1
     2    28    26    1
     3    12    14    1
     4    12     4    1
     5     7     3    1
     6    27    26    1
     7    21    17    1
     8     3     4   ar
     9     3     2   ar
    10    26    18    1
    11     4     5   ar
    12    17    18   ar
    13    17    16   ar
    14    18    19   ar
    15     8     2    1
    16     2     1   ar
    17     5    16    1
    18     5     6   ar
    19    16    15   ar
    20    19    22    1
    21    19    20   ar
    22     1     6   ar
    23     1     9    1
    24    15    20   ar
    25    15    23    1
    26     9    10    3
    27    23    24    3
    28    10    11    1
    29    24    25    1
