@<TRIPOS>MOLECULE
mol_data/opt/cam/geoms/mol2/6eh6eh.out
 28 29 0 0 0
SMALL
GASTEIGER

@<TRIPOS>ATOM
      1 C          -4.2397   -1.7666    1.0927 C.ar    1  LIG1        0.1139
      2 C          -3.3299   -2.2234    0.1365 C.ar    1  LIG1       -0.0260
      3 C          -3.1071   -1.4549   -0.9867 C.ar    1  LIG1       -0.0363
      4 C          -3.7898   -0.2472   -1.1642 C.ar    1  LIG1        0.0511
      5 C          -4.7108    0.1203   -0.1550 C.ar    1  LIG1        0.0956
      6 N          -4.9009   -0.6164    0.9365 N.ar    1  LIG1       -0.2365
      7 H          -2.3915   -1.7764   -1.7381 H       1  LIG1        0.0637
      8 H          -2.8095   -3.1620    0.2859 H       1  LIG1        0.0646
      9 C          -4.4861   -2.5256    2.2869 C.1     1  LIG1       -0.0498
     10 C          -4.6697   -3.1840    3.2774 C.1     1  LIG1       -0.1124
     11 H          -4.8454   -3.7578    4.1578 H       1  LIG1        0.1232
     12 N          -3.4898    0.5718   -2.2365 N.pl3   1  LIG1       -0.3563
     13 H          -2.9758    0.1180   -2.9776 H       1  LIG1        0.1424
     14 H          -4.2508    1.1283   -2.5966 H       1  LIG1        0.1424
     15 C          -6.3203    1.8192   -1.2080 C.ar    1  LIG1        0.1224
     16 C          -5.4650    1.4081   -0.1707 C.ar    1  LIG1        0.0377
     17 C          -5.3517    2.2366    0.9395 C.ar    1  LIG1       -0.0277
     18 C          -6.0395    3.4453    0.9914 C.ar    1  LIG1        0.0436
     19 C          -6.8378    3.7692   -0.1178 C.ar    1  LIG1        0.0496
     20 N          -6.9807    2.9869   -1.1693 N.ar    1  LIG1       -0.2442
     21 H          -4.7291    1.9179    1.7690 H       1  LIG1        0.0644
     22 H          -7.3905    4.7078   -0.1293 H       1  LIG1        0.0849
     23 C          -6.5718    0.9958   -2.3592 C.1     1  LIG1       -0.0491
     24 C          -6.7719    0.3118   -3.3299 C.1     1  LIG1       -0.1124
     25 H          -6.9751   -0.2981   -4.1799 H       1  LIG1        0.1232
     26 N          -5.9838    4.2756    2.0921 N.pl3   1  LIG1       -0.3568
     27 H          -5.2003    4.1538    2.7142 H       1  LIG1        0.1424
     28 H          -6.2417    5.2394    1.9470 H       1  LIG1        0.1424
@<TRIPOS>BOND
     1    25    24    1
     2    24    23    3
     3    13    12    1
     4    14    12    1
     5    23    15    1
     6    12     4    1
     7     7     3    1
     8    15    20   ar
     9    15    16   ar
    10    20    19   ar
    11     4     3   ar
    12     4     5   ar
    13     3     2   ar
    14    16     5    1
    15    16    17   ar
    16     5     6   ar
    17    22    19    1
    18    19    18   ar
    19     2     8    1
    20     2     1   ar
    21     6     1   ar
    22    17    18   ar
    23    17    21    1
    24    18    26    1
    25     1     9    1
    26    28    26    1
    27    26    27    1
    28     9    10    3
    29    10    11    1
