@<TRIPOS>MOLECULE
mol_data/opt/cam/geoms/mol2/6eh6eh-6eh-6eh.out
 54 57 0 0 0
SMALL
GASTEIGER

@<TRIPOS>ATOM
      1 C          -4.0699   -1.9402   -1.0114 C.ar    1  LIG1        0.1139
      2 C          -3.1469   -2.3495   -0.0464 C.ar    1  LIG1       -0.0260
      3 C          -2.8789   -1.5087    1.0133 C.ar    1  LIG1       -0.0363
      4 C          -3.5149   -0.2666    1.1094 C.ar    1  LIG1        0.0511
      5 C          -4.4139    0.0725    0.0708 C.ar    1  LIG1        0.0956
      6 N          -4.6835   -0.7560   -0.9351 N.ar    1  LIG1       -0.2365
      7 H          -2.1795   -1.8091    1.7883 H       1  LIG1        0.0637
      8 H          -2.6601   -3.3136   -0.1341 H       1  LIG1        0.0646
      9 C          -4.3941   -2.7935   -2.1203 C.1     1  LIG1       -0.0498
     10 C          -4.6453   -3.5318   -3.0369 C.1     1  LIG1       -0.1124
     11 H          -4.8750   -4.1742   -3.8553 H       1  LIG1        0.1232
     12 N          -3.3259    0.5282    2.2237 N.pl3   1  LIG1       -0.3563
     13 H          -2.5263    0.2771    2.7866 H       1  LIG1        0.1424
     14 H          -3.3802    1.5248    2.0745 H       1  LIG1        0.1424
     15 C          -4.6757    2.6279    0.1204 C.ar    1  LIG1        0.1231
     16 C          -5.2151    1.3309    0.0645 C.ar    1  LIG1        0.0378
     17 C          -6.5927    1.2216   -0.0655 C.ar    1  LIG1       -0.0270
     18 C          -7.4022    2.3530   -0.0995 C.ar    1  LIG1        0.0517
     19 C          -6.7610    3.6070    0.0071 C.ar    1  LIG1        0.0957
     20 N          -5.4459    3.7218    0.0990 N.ar    1  LIG1       -0.2358
     21 H          -7.0317    0.2335   -0.1567 H       1  LIG1        0.0644
     22 C          -3.2577    2.8621    0.1639 C.1     1  LIG1       -0.0491
     23 C          -2.0702    3.0553    0.2142 C.1     1  LIG1       -0.1124
     24 H          -1.0207    3.2393    0.2339 H       1  LIG1        0.1232
     25 N          -8.7783    2.2446   -0.1936 N.pl3   1  LIG1       -0.3563
     26 H          -9.2599    3.0599   -0.5434 H       1  LIG1        0.1424
     27 H          -9.1172    1.3807   -0.5906 H       1  LIG1        0.1424
     28 C          -7.3838    5.8637   -0.9668 C.ar    1  LIG1        0.1231
     29 C          -7.5498    4.8708    0.0143 C.ar    1  LIG1        0.0378
     30 C          -8.4731    5.1118    1.0200 C.ar    1  LIG1       -0.0270
     31 C          -9.2020    6.3025    1.0685 C.ar    1  LIG1        0.0517
     32 C          -8.9743    7.2277    0.0250 C.ar    1  LIG1        0.0957
     33 N          -8.0840    7.0004   -0.9360 N.ar    1  LIG1       -0.2358
     34 H          -8.6166    4.3690    1.7998 H       1  LIG1        0.0644
     35 C          -6.4762    5.6947   -2.0669 C.1     1  LIG1       -0.0491
     36 C          -5.7362    5.5514   -3.0042 C.1     1  LIG1       -0.1124
     37 H          -5.0701    5.4232   -3.8257 H       1  LIG1        0.1232
     38 N         -10.0242    6.5713    2.1447 N.pl3   1  LIG1       -0.3563
     39 H         -10.8300    7.1498    1.9611 H       1  LIG1        0.1424
     40 H         -10.2529    5.7695    2.7134 H       1  LIG1        0.1424
     41 C         -11.0181    8.7752   -0.0578 C.ar    1  LIG1        0.1224
     42 C          -9.6280    8.5669   -0.0393 C.ar    1  LIG1        0.0377
     43 C          -8.8058    9.6822   -0.1472 C.ar    1  LIG1       -0.0277
     44 C          -9.3552   10.9576   -0.2357 C.ar    1  LIG1        0.0436
     45 C         -10.7565   11.0482   -0.2108 C.ar    1  LIG1        0.0496
     46 N         -11.5559   10.0025   -0.1351 N.ar    1  LIG1       -0.2442
     47 H          -7.7305    9.5394   -0.1718 H       1  LIG1        0.0644
     48 H         -11.2352   12.0251   -0.2658 H       1  LIG1        0.0849
     49 C         -11.9533    7.6834   -0.0389 C.1     1  LIG1       -0.0491
     50 C         -12.7388    6.7709   -0.0096 C.1     1  LIG1       -0.1124
     51 H         -13.4446    5.9725   -0.0052 H       1  LIG1        0.1232
     52 N          -8.5703   12.0920   -0.2953 N.pl3   1  LIG1       -0.3568
     53 H          -7.6238   11.9649   -0.6197 H       1  LIG1        0.1424
     54 H          -9.0103   12.9221   -0.6620 H       1  LIG1        0.1424
@<TRIPOS>BOND
     1    11    10    1
     2    37    36    1
     3    10     9    3
     4    36    35    3
     5     9     1    1
     6    35    28    1
     7     1     6   ar
     8     1     2   ar
     9    28    33   ar
    10    28    29   ar
    11    33    32   ar
    12     6     5   ar
    13    54    52    1
    14    53    52    1
    15    27    25    1
    16    26    25    1
    17    52    44    1
    18    48    45    1
    19    44    45   ar
    20    44    43   ar
    21    45    46   ar
    22    25    18    1
    23    47    43    1
    24    21    17    1
    25    43    42   ar
    26    46    41   ar
    27     8     2    1
    28    18    17   ar
    29    18    19   ar
    30    17    16   ar
    31    41    42   ar
    32    41    49    1
    33     2     3   ar
    34    42    32    1
    35    49    50    3
    36    50    51    1
    37    19    29    1
    38    19    20   ar
    39    29    30   ar
    40    32    31   ar
    41    16     5    1
    42    16    15   ar
    43     5     4   ar
    44    20    15   ar
    45    15    22    1
    46    22    23    3
    47    23    24    1
    48     3     4   ar
    49     3     7    1
    50    30    31   ar
    51    30    34    1
    52    31    38    1
    53     4    12    1
    54    39    38    1
    55    14    12    1
    56    38    40    1
    57    12    13    1
