@<TRIPOS>MOLECULE
mol_data/opt/cam/geoms/mol2/6eh6eh6eh-6eh-.out
 54 57 0 0 0
SMALL
GASTEIGER

@<TRIPOS>ATOM
      1 C          -4.5778   -2.3134    0.1122 C.ar    1  LIG1        0.1139
      2 C          -3.1878   -2.3746   -0.0165 C.ar    1  LIG1       -0.0260
      3 C          -2.4739   -1.1992   -0.1388 C.ar    1  LIG1       -0.0363
      4 C          -3.1475    0.0238   -0.1295 C.ar    1  LIG1        0.0511
      5 C          -4.5514   -0.0154    0.0105 C.ar    1  LIG1        0.0956
      6 N          -5.2332   -1.1482    0.1230 N.ar    1  LIG1       -0.2365
      7 H          -1.3930   -1.2187   -0.2440 H       1  LIG1        0.0637
      8 H          -2.6870   -3.3355   -0.0223 H       1  LIG1        0.0646
      9 C          -5.3490   -3.5185    0.2390 C.1     1  LIG1       -0.0498
     10 C          -5.9646   -4.5471    0.3444 C.1     1  LIG1       -0.1124
     11 H          -6.5251   -5.4483    0.4388 H       1  LIG1        0.1232
     12 N          -2.4584    1.2225   -0.2143 N.pl3   1  LIG1       -0.3563
     13 H          -1.5475    1.1694   -0.6453 H       1  LIG1        0.1424
     14 H          -2.9986    2.0164   -0.5259 H       1  LIG1        0.1424
     15 C          -6.2965    1.5566   -0.9424 C.ar    1  LIG1        0.1231
     16 C          -5.3439    1.2469    0.0434 C.ar    1  LIG1        0.0378
     17 C          -5.1712    2.1566    1.0746 C.ar    1  LIG1       -0.0270
     18 C          -5.9249    3.3311    1.1434 C.ar    1  LIG1        0.0517
     19 C          -6.8438    3.5568    0.0935 C.ar    1  LIG1        0.0957
     20 N          -7.0144    2.6813   -0.8929 N.ar    1  LIG1       -0.2358
     21 H          -4.4511    1.9411    1.8592 H       1  LIG1        0.0644
     22 C          -6.5271    0.6911   -2.0651 C.1     1  LIG1       -0.0491
     23 C          -6.7100   -0.0188   -3.0188 C.1     1  LIG1       -0.1124
     24 H          -6.8814   -0.6566   -3.8547 H       1  LIG1        0.1232
     25 N          -5.8215    4.1600    2.2430 N.pl3   1  LIG1       -0.3563
     26 H          -5.0161    3.9873    2.8265 H       1  LIG1        0.1424
     27 H          -5.9653    5.1449    2.0774 H       1  LIG1        0.1424
     28 C          -7.3649    6.0723    0.0881 C.ar    1  LIG1        0.1231
     29 C          -7.7678    4.7264    0.0491 C.ar    1  LIG1        0.0378
     30 C          -9.1246    4.4737   -0.1009 C.ar    1  LIG1       -0.0270
     31 C         -10.0439    5.5157   -0.1689 C.ar    1  LIG1        0.0517
     32 C          -9.5366    6.8305   -0.0753 C.ar    1  LIG1        0.0957
     33 N          -8.2422    7.0813    0.0342 N.ar    1  LIG1       -0.2358
     34 H          -9.4579    3.4442   -0.1799 H       1  LIG1        0.0644
     35 C          -5.9796    6.4532    0.1480 C.1     1  LIG1       -0.0491
     36 C          -4.8202    6.7725    0.2130 C.1     1  LIG1       -0.1124
     37 H          -3.7984    7.0731    0.2487 H       1  LIG1        0.1232
     38 N         -11.4006    5.2669   -0.2823 N.pl3   1  LIG1       -0.3563
     39 H         -11.9522    6.0202   -0.6659 H       1  LIG1        0.1424
     40 H         -11.6426    4.3636   -0.6623 H       1  LIG1        0.1424
     41 C         -10.3896    8.9778   -1.1138 C.ar    1  LIG1        0.1224
     42 C         -10.4516    8.0072   -0.0981 C.ar    1  LIG1        0.0377
     43 C         -11.3914    8.1721    0.9125 C.ar    1  LIG1       -0.0277
     44 C         -12.2248    9.2899    0.9196 C.ar    1  LIG1        0.0436
     45 C         -12.0672   10.2005   -0.1347 C.ar    1  LIG1        0.0496
     46 N         -11.1932   10.0503   -1.1140 N.ar    1  LIG1       -0.2442
     47 H         -11.4621    7.4328    1.7051 H       1  LIG1        0.0644
     48 H         -12.6921   11.0921   -0.1734 H       1  LIG1        0.0849
     49 C          -9.4854    8.8475   -2.2217 C.1     1  LIG1       -0.0491
     50 C          -8.7484    8.7321   -3.1652 C.1     1  LIG1       -0.1124
     51 H          -8.0845    8.6350   -3.9927 H       1  LIG1        0.1232
     52 N         -13.1292    9.5251    1.9383 N.pl3   1  LIG1       -0.3568
     53 H         -13.8784   10.1682    1.7330 H       1  LIG1        0.1424
     54 H         -13.4237    8.7243    2.4753 H       1  LIG1        0.1424
@<TRIPOS>BOND
     1    51    50    1
     2    24    23    1
     3    50    49    3
     4    23    22    3
     5    49    41    1
     6    22    15    1
     7    46    41   ar
     8    46    45   ar
     9    41    42   ar
    10    15    20   ar
    11    15    16   ar
    12    20    19   ar
    13    39    38    1
    14    40    38    1
    15    13    12    1
    16    14    12    1
    17    38    31    1
    18     7     3    1
    19    12     4    1
    20    34    30    1
    21    48    45    1
    22    31    30   ar
    23    31    32   ar
    24     3     4   ar
    25     3     2   ar
    26    45    44   ar
    27     4     5   ar
    28    30    29   ar
    29    42    32    1
    30    42    43   ar
    31    32    33   ar
    32     8     2    1
    33     2     1   ar
    34     5    16    1
    35     5     6   ar
    36    33    28   ar
    37    16    17   ar
    38    29    28   ar
    39    29    19    1
    40    28    35    1
    41    19    18   ar
    42     1     6   ar
    43     1     9    1
    44    35    36    3
    45    36    37    1
    46     9    10    3
    47    10    11    1
    48    43    44   ar
    49    43    47    1
    50    44    52    1
    51    17    18   ar
    52    17    21    1
    53    18    25    1
    54    53    52    1
    55    52    54    1
    56    27    25    1
    57    25    26    1
