@<TRIPOS>MOLECULE
mol_data/opt/cam/geoms/mol2/6eh6da12eh12fe4fh12ei13ae12hi-.out
 93 100 0 0 0
SMALL
GASTEIGER

@<TRIPOS>ATOM
      1 C          -4.2666   -2.2944    0.6729 C.ar    1  LIG1        0.1139
      2 C          -3.1235   -2.4598   -0.1150 C.ar    1  LIG1       -0.0260
      3 C          -2.7192   -1.4242   -0.9323 C.ar    1  LIG1       -0.0363
      4 C          -3.4448   -0.2307   -0.9574 C.ar    1  LIG1        0.0511
      5 C          -4.5696   -0.1472   -0.1078 C.ar    1  LIG1        0.0956
      6 N          -4.9610   -1.1547    0.6658 N.ar    1  LIG1       -0.2365
      7 H          -1.8428   -1.5325   -1.5646 H       1  LIG1        0.0637
      8 H          -2.5749   -3.3936   -0.0836 H       1  LIG1        0.0646
      9 C          -4.7263   -3.3538    1.5258 C.1     1  LIG1       -0.0498
     10 C          -5.0872   -4.2560    2.2358 C.1     1  LIG1       -0.1124
     11 H          -5.4215   -5.0405    2.8752 H       1  LIG1        0.1232
     12 N          -3.0467    0.8264   -1.7599 N.pl3   1  LIG1       -0.3563
     13 H          -2.4348    0.5791   -2.5237 H       1  LIG1        0.1424
     14 H          -3.7737    1.4699   -2.0366 H       1  LIG1        0.1424
     15 C          -6.7961    1.0491   -0.1014 C.ar    1  LIG1        0.1500
     16 C          -5.3954    1.0848   -0.0255 C.ar    1  LIG1        0.0381
     17 C          -4.8290    2.3441    0.1907 C.ar    1  LIG1       -0.0477
     18 C          -5.6308    3.4607    0.3262 C.ar    1  LIG1       -0.0319
     19 C          -7.0210    3.3075    0.2367 C.ar    1  LIG1        0.1088
     20 N          -7.5827    2.1137    0.0182 N.ar    1  LIG1       -0.2325
     21 H          -3.7509    2.4371    0.2653 H       1  LIG1        0.0626
     22 N          -8.1056   -1.1417   -0.6177 N.1     1  LIG1       -0.1893
     23 C          -7.5029   -0.1889   -0.3667 C.1     1  LIG1        0.1198
     24 H          -5.1985    4.4365    0.5066 H       1  LIG1        0.0640
     25 C          -7.9328    4.4346    0.3709 C.ar    1  LIG1        0.1711
     26 C          -7.7656    5.7801    0.6341 C.ar    1  LIG1        0.0933
     27 C          -9.0783    6.3609    0.6551 C.ar    1  LIG1        0.0905
     28 C          -9.9400    5.3258    0.3887 C.ar    1  LIG1        0.1961
     29 O          -9.2406    4.1675    0.2215 O.2     1  LIG1       -0.4469
     30 C          -6.5737    6.5156    0.8576 C.1     1  LIG1       -0.0639
     31 C          -5.5964    7.1957    1.0456 C.1     1  LIG1       -0.1137
     32 H          -4.7285    7.7881    1.2248 H       1  LIG1        0.1232
     33 N          -9.3690    7.6721    0.9632 N.pl3   1  LIG1       -0.3540
     34 H          -8.6176    8.3213    0.7823 H       1  LIG1        0.1425
     35 H         -10.2794    7.9978    0.6642 H       1  LIG1        0.1425
     36 C         -11.3622    5.2346    0.2414 C.ar    1  LIG1        0.2148
     37 C         -12.3777    6.1306    0.1071 C.ar    1  LIG1        0.1822
     38 C         -13.5986    5.3875   -0.0204 C.ar    1  LIG1        0.1126
     39 C         -13.2383    4.0557    0.0358 C.ar    1  LIG1        0.1584
     40 O         -11.8958    3.9812    0.2032 O.2     1  LIG1       -0.4465
     41 O         -12.2652    7.4806    0.0662 O.3     1  LIG1       -0.5023
     42 H         -13.1570    7.8477   -0.0336 H       1  LIG1        0.2923
     43 C         -14.8157    6.0807   -0.2429 C.1     1  LIG1       -0.0622
     44 C         -15.7283    6.8451   -0.4371 C.1     1  LIG1       -0.1137
     45 H         -16.5794    7.4623   -0.6114 H       1  LIG1        0.1232
     46 C         -15.2536    2.5346    0.0712 C.ar    1  LIG1        0.1283
     47 C         -15.7607    1.2554   -0.0474 C.ar    1  LIG1       -0.0070
     48 C         -13.8782    2.7541   -0.0905 C.ar    1  LIG1        0.0618
     49 C         -14.9486    0.1424   -0.3144 C.ar    1  LIG1        0.0426
     50 H         -16.8243    1.1005    0.0953 H       1  LIG1        0.0662
     51 C         -13.0707    1.6517   -0.3671 C.ar    1  LIG1       -0.0261
     52 C         -13.5558    0.3517   -0.4857 C.ar    1  LIG1        0.0363
     53 H         -12.0066    1.8145   -0.4910 H       1  LIG1        0.0644
     54 O         -16.0404    3.6053    0.3703 O.3     1  LIG1       -0.5060
     55 H         -16.9562    3.3168    0.4551 H       1  LIG1        0.2922
     56 N         -12.6357   -0.6675   -0.7176 N.pl3   1  LIG1       -0.3574
     57 H         -12.9628   -1.4532   -1.2548 H       1  LIG1        0.1423
     58 H         -11.7207   -0.3461   -0.9985 H       1  LIG1        0.1423
     59 C         -15.5588   -1.1770   -0.3689 C.ar    1  LIG1        0.1532
     60 C         -16.8449   -1.6759   -0.3119 C.ar    1  LIG1        0.0740
     61 C         -16.7515   -3.1154   -0.3536 C.ar    1  LIG1        0.0128
     62 C         -15.4228   -3.3953   -0.4449 C.ar    1  LIG1        0.1559
     63 O         -14.7100   -2.2315   -0.4609 O.2     1  LIG1       -0.4518
     64 C         -18.0716   -0.9678   -0.2150 C.1     1  LIG1       -0.0656
     65 C         -19.1418   -0.4190   -0.1317 C.1     1  LIG1       -0.1138
     66 H         -20.0883    0.0658   -0.0656 H       1  LIG1        0.1232
     67 C         -17.8892   -4.0789   -0.2942 C.3     1  LIG1       -0.0349
     68 H         -17.5915   -5.0039    0.2060 H       1  LIG1        0.0279
     69 H         -18.2500   -4.3418   -1.2942 H       1  LIG1        0.0279
     70 H         -18.7299   -3.6465    0.2526 H       1  LIG1        0.0279
     71 C         -14.5890   -4.5697   -0.4968 C.ar    1  LIG1        0.0841
     72 C         -14.8225   -5.9044   -0.7258 C.ar    1  LIG1       -0.0172
     73 C         -13.5626   -6.5751   -0.6917 C.ar    1  LIG1        0.0537
     74 C         -12.5854   -5.6092   -0.4330 C.ar    1  LIG1        0.1000
     75 N         -13.2320   -4.4164   -0.3192 N.ar    1  LIG1       -0.3483
     76 H         -12.7696   -3.5483   -0.0905 H       1  LIG1        0.1661
     77 H         -15.7742   -6.3671   -0.9362 H       1  LIG1        0.0652
     78 C         -13.3659   -7.9558   -0.9528 C.1     1  LIG1       -0.0674
     79 C         -13.2315   -9.1328   -1.1858 C.1     1  LIG1       -0.1138
     80 H         -13.1282  -10.1687   -1.4116 H       1  LIG1        0.1232
     81 C         -11.1516   -5.6196   -0.3018 C.ar    1  LIG1        0.1728
     82 C         -10.1700   -6.5480   -0.0688 C.ar    1  LIG1        0.0754
     83 C          -8.9285   -5.8210   -0.0075 C.ar    1  LIG1        0.0086
     84 C          -9.2491   -4.5170   -0.1916 C.ar    1  LIG1        0.0974
     85 O         -10.5793   -4.3652   -0.3680 O.2     1  LIG1       -0.4592
     86 H          -8.6633   -3.6091   -0.2275 H       1  LIG1        0.1033
     87 N         -10.2820   -7.9072    0.1736 N.pl3   1  LIG1       -0.3548
     88 H         -11.1505   -8.3283   -0.1318 H       1  LIG1        0.1424
     89 H          -9.4784   -8.4408   -0.1258 H       1  LIG1        0.1424
     90 C          -7.5820   -6.4183    0.2391 C.3     1  LIG1       -0.0350
     91 H          -6.8229   -5.6415    0.3512 H       1  LIG1        0.0279
     92 H          -7.2687   -7.0730   -0.5828 H       1  LIG1        0.0279
     93 H          -7.5836   -7.0227    1.1527 H       1  LIG1        0.0279
@<TRIPOS>BOND
     1    13    12    1
     2    14    12    1
     3    12     4    1
     4     7     3    1
     5    80    79    1
     6    69    67    1
     7    57    56    1
     8    79    78    3
     9    58    56    1
    10     4     3   ar
    11     4     5   ar
    12    78    73    1
    13    77    72    1
    14     3     2   ar
    15    72    73   ar
    16    72    71   ar
    17    56    52    1
    18    73    74   ar
    19    22    23    3
    20    45    44    1
    21    92    90    1
    22    71    62    1
    23    71    75   ar
    24    53    51    1
    25    52    51   ar
    26    52    49   ar
    27    63    62   ar
    28    63    59   ar
    29    62    61   ar
    30    44    43    3
    31    74    75   ar
    32    74    81    1
    33    59    49    1
    34    59    60   ar
    35    85    81   ar
    36    85    84   ar
    37    51    48   ar
    38    23    15    1
    39    61    60   ar
    40    61    67    1
    41    75    76    1
    42    49    47   ar
    43    60    64    1
    44    81    82   ar
    45    67    68    1
    46    67    70    1
    47    43    38    1
    48    86    84    1
    49    64    65    3
    50    84    83   ar
    51    88    87    1
    52    65    66    1
    53    89    87    1
    54     2     8    1
    55     2     1   ar
    56     5    16    1
    57     5     6   ar
    58    15    16   ar
    59    15    20   ar
    60    48    39    1
    61    48    46   ar
    62    82    83   ar
    63    82    87    1
    64    47    46   ar
    65    47    50    1
    66    42    41    1
    67    16    17   ar
    68    38    39   ar
    69    38    37   ar
    70    83    90    1
    71    20    19   ar
    72    39    40   ar
    73    41    37    1
    74    46    54    1
    75    37    36   ar
    76    17    21    1
    77    17    18   ar
    78    40    36   ar
    79    29    25   ar
    80    29    28   ar
    81    19    18   ar
    82    19    25    1
    83    90    91    1
    84    90    93    1
    85    36    28    1
    86    18    24    1
    87    54    55    1
    88    25    26   ar
    89    28    27   ar
    90    26    27   ar
    91    26    30    1
    92    27    33    1
    93    35    33    1
    94     6     1   ar
    95     1     9    1
    96    34    33    1
    97    30    31    3
    98    31    32    1
    99     9    10    3
   100    10    11    1
