@<TRIPOS>MOLECULE
mol_data/opt/cam/geoms/mol2/6eh6eh6eh6eh.out
 54 57 0 0 0
SMALL
GASTEIGER

@<TRIPOS>ATOM
      1 C          -2.6573   -1.0145    0.0961 C.ar    1  LIG1        0.1139
      2 C          -3.0827   -2.3402    0.2087 C.ar    1  LIG1       -0.0260
      3 C          -4.4355   -2.5995    0.2751 C.ar    1  LIG1       -0.0363
      4 C          -5.3588   -1.5494    0.2407 C.ar    1  LIG1        0.0511
      5 C          -4.8327   -0.2389    0.1551 C.ar    1  LIG1        0.0956
      6 N          -3.5267   -0.0007    0.0665 N.ar    1  LIG1       -0.2365
      7 H          -4.7954   -3.6222    0.3425 H       1  LIG1        0.0637
      8 H          -2.3561   -3.1436    0.2356 H       1  LIG1        0.0646
      9 C          -1.2586   -0.7021    0.0017 C.1     1  LIG1       -0.0498
     10 C          -0.0797   -0.4735   -0.0769 C.1     1  LIG1       -0.1124
     11 H           0.9610   -0.2554   -0.1444 H       1  LIG1        0.1232
     12 N          -6.7136   -1.8149    0.1997 N.pl3   1  LIG1       -0.3563
     13 H          -6.9693   -2.7494    0.4828 H       1  LIG1        0.1424
     14 H          -7.3195   -1.1186    0.6069 H       1  LIG1        0.1424
     15 C          -6.6688    1.3455    0.9965 C.ar    1  LIG1        0.1231
     16 C          -5.6924    0.9759    0.0554 C.ar    1  LIG1        0.0378
     17 C          -5.4813    1.8416   -1.0063 C.ar    1  LIG1       -0.0270
     18 C          -6.2356    3.0040   -1.1621 C.ar    1  LIG1        0.0517
     19 C          -7.2371    3.2497   -0.1919 C.ar    1  LIG1        0.0957
     20 N          -7.4068    2.4515    0.8540 N.ar    1  LIG1       -0.2358
     21 H          -4.6935    1.6109   -1.7161 H       1  LIG1        0.0644
     22 C          -6.9038    0.5835    2.1929 C.1     1  LIG1       -0.0491
     23 C          -7.1068   -0.0620    3.1890 C.1     1  LIG1       -0.1124
     24 H          -7.2780   -0.6156    4.0834 H       1  LIG1        0.1232
     25 N          -5.9406    3.8959   -2.1702 N.pl3   1  LIG1       -0.3563
     26 H          -5.3423    3.5354   -2.8983 H       1  LIG1        0.1424
     27 H          -6.7061    4.4427   -2.5334 H       1  LIG1        0.1424
     28 C          -8.9248    4.8564   -1.2635 C.ar    1  LIG1        0.1231
     29 C          -8.0962    4.4679   -0.1970 C.ar    1  LIG1        0.0378
     30 C          -8.1300    5.2521    0.9454 C.ar    1  LIG1       -0.0270
     31 C          -8.9136    6.4031    1.0180 C.ar    1  LIG1        0.0517
     32 C          -9.6637    6.7386   -0.1351 C.ar    1  LIG1        0.0957
     33 N          -9.6749    5.9620   -1.2107 N.ar    1  LIG1       -0.2358
     34 H          -7.5416    4.9448    1.8040 H       1  LIG1        0.0644
     35 C          -9.0516    4.0658   -2.4576 C.1     1  LIG1       -0.0491
     36 C          -9.1470    3.4061   -3.4605 C.1     1  LIG1       -0.1124
     37 H          -9.2494    2.8193   -4.3442 H       1  LIG1        0.1232
     38 N          -9.0029    7.1122    2.1979 N.pl3   1  LIG1       -0.3563
     39 H          -8.2975    6.8819    2.8821 H       1  LIG1        0.1424
     40 H          -9.1422    8.1079    2.1143 H       1  LIG1        0.1424
     41 C         -10.1981    9.2410    0.0287 C.ar    1  LIG1        0.1224
     42 C         -10.5859    7.9092   -0.2003 C.ar    1  LIG1        0.0377
     43 C         -11.9083    7.6726   -0.5569 C.ar    1  LIG1       -0.0277
     44 C         -12.8139    8.7257   -0.6453 C.ar    1  LIG1        0.0436
     45 C         -12.3225   10.0106   -0.3627 C.ar    1  LIG1        0.0496
     46 N         -11.0669   10.2610   -0.0479 N.ar    1  LIG1       -0.2442
     47 H         -12.2178    6.6560   -0.7756 H       1  LIG1        0.0644
     48 H         -12.9933   10.8675   -0.4112 H       1  LIG1        0.0849
     49 C          -8.8365    9.5966    0.3215 C.1     1  LIG1       -0.0491
     50 C          -7.6974    9.8903    0.5791 C.1     1  LIG1       -0.1124
     51 H          -6.6873   10.1609    0.7850 H       1  LIG1        0.1232
     52 N         -14.1247    8.5367   -1.0333 N.pl3   1  LIG1       -0.3568
     53 H         -14.4963    7.6046   -0.9381 H       1  LIG1        0.1424
     54 H         -14.7796    9.2620   -0.7853 H       1  LIG1        0.1424
@<TRIPOS>BOND
     1    37    36    1
     2    36    35    3
     3    26    25    1
     4    27    25    1
     5    35    28    1
     6    25    18    1
     7    21    17    1
     8    28    33   ar
     9    28    29   ar
    10    33    32   ar
    11    18    17   ar
    12    18    19   ar
    13    52    53    1
    14    52    54    1
    15    52    44    1
    16    17    16   ar
    17    47    43    1
    18    44    43   ar
    19    44    45   ar
    20    43    42   ar
    21    48    45    1
    22    45    46   ar
    23    42    32    1
    24    42    41   ar
    25    29    19    1
    26    29    30   ar
    27    19    20   ar
    28    11    10    1
    29    32    31   ar
    30    10     9    3
    31    46    41   ar
    32     9     1    1
    33    41    49    1
    34    16     5    1
    35    16    15   ar
    36     6     1   ar
    37     6     5   ar
    38     1     2   ar
    39     5     4   ar
    40    12     4    1
    41    12    13    1
    42    12    14    1
    43     2     8    1
    44     2     3   ar
    45     4     3   ar
    46     3     7    1
    47    49    50    3
    48    50    51    1
    49    20    15   ar
    50    30    31   ar
    51    30    34    1
    52    15    22    1
    53    31    38    1
    54    40    38    1
    55    22    23    3
    56    38    39    1
    57    23    24    1
