@<TRIPOS>MOLECULE
mol_data/opt/cam/geoms/mol2/6eh6eh-4eh6eh.out
 55 58 0 0 0
SMALL
GASTEIGER

@<TRIPOS>ATOM
      1 C          -3.6242   -1.6973   -1.1813 C.ar    1  LIG1        0.1139
      2 C          -3.1286   -2.3537   -0.0526 C.ar    1  LIG1       -0.0260
      3 C          -3.3390   -1.7891    1.1880 C.ar    1  LIG1       -0.0363
      4 C          -4.0272   -0.5774    1.3062 C.ar    1  LIG1        0.0511
      5 C          -4.4682    0.0272    0.1050 C.ar    1  LIG1        0.0956
      6 N          -4.2809   -0.5378   -1.0851 N.ar    1  LIG1       -0.2365
      7 H          -2.9814   -2.2870    2.0848 H       1  LIG1        0.0637
      8 H          -2.5957   -3.2911   -0.1591 H       1  LIG1        0.0646
      9 C          -3.4459   -2.2606   -2.4905 C.1     1  LIG1       -0.0498
     10 C          -3.2811   -2.7593   -3.5734 C.1     1  LIG1       -0.1124
     11 H          -3.1397   -3.1877   -4.5385 H       1  LIG1        0.1232
     12 N          -4.3290   -0.0668    2.5541 N.pl3   1  LIG1       -0.3563
     13 H          -3.7963   -0.4695    3.3112 H       1  LIG1        0.1424
     14 H          -4.3760    0.9390    2.6236 H       1  LIG1        0.1424
     15 C          -4.8647    2.5111    0.6290 C.ar    1  LIG1        0.1231
     16 C          -5.2691    1.2854    0.0730 C.ar    1  LIG1        0.0378
     17 C          -6.4802    1.2668   -0.6044 C.ar    1  LIG1       -0.0270
     18 C          -7.2731    2.4071   -0.6923 C.ar    1  LIG1        0.0516
     19 C          -6.7920    3.5784   -0.0628 C.ar    1  LIG1        0.0942
     20 N          -5.6232    3.6107    0.5576 N.ar    1  LIG1       -0.2359
     21 H          -6.7969    0.3452   -1.0816 H       1  LIG1        0.0644
     22 C          -3.5896    2.6715    1.2743 C.1     1  LIG1       -0.0491
     23 C          -2.5271    2.7986    1.8268 C.1     1  LIG1       -0.1124
     24 H          -1.5794    2.9302    2.2959 H       1  LIG1        0.1232
     25 N          -8.4942    2.3715   -1.3403 N.pl3   1  LIG1       -0.3563
     26 H          -8.8677    3.2637   -1.6283 H       1  LIG1        0.1424
     27 H          -8.5971    1.6458   -2.0338 H       1  LIG1        0.1424
     28 C          -7.0345    6.0399   -0.5869 C.ar    1  LIG1        0.0346
     29 C          -7.8189    7.1947   -0.5388 C.ar    1  LIG1       -0.0361
     30 C          -7.5782    4.8451   -0.0794 C.ar    1  LIG1        0.0193
     31 C          -9.1044    7.2148   -0.0097 C.ar    1  LIG1        0.0067
     32 H          -7.4020    8.1174   -0.9278 H       1  LIG1        0.0637
     33 C          -8.8682    4.8551    0.4357 C.ar    1  LIG1       -0.0300
     34 C          -9.6506    6.0143    0.4869 C.ar    1  LIG1        0.0331
     35 H          -9.2854    3.9289    0.8207 H       1  LIG1        0.0643
     36 C          -5.7348    6.1058   -1.1819 C.1     1  LIG1       -0.0690
     37 C          -4.6615    6.2059   -1.7179 C.1     1  LIG1       -0.1139
     38 H          -3.6990    6.2742   -2.1691 H       1  LIG1        0.1232
     39 N         -10.9549    5.9405    0.9488 N.pl3   1  LIG1       -0.3575
     40 H         -11.3103    6.7774    1.3872 H       1  LIG1        0.1423
     41 H         -11.1556    5.1184    1.4994 H       1  LIG1        0.1423
     42 C         -10.3278    9.1654    1.0875 C.ar    1  LIG1        0.1210
     43 C          -9.8766    8.4863   -0.0602 C.ar    1  LIG1        0.0195
     44 C         -10.1427    9.0665   -1.2959 C.ar    1  LIG1       -0.0291
     45 C         -10.8388   10.2708   -1.3787 C.ar    1  LIG1        0.0436
     46 C         -11.2529   10.8474   -0.1681 C.ar    1  LIG1        0.0496
     47 N         -11.0074   10.3193    1.0156 N.ar    1  LIG1       -0.2443
     48 H          -9.8059    8.5675   -2.1996 H       1  LIG1        0.0643
     49 H         -11.8054   11.7861   -0.1786 H       1  LIG1        0.0849
     50 C         -10.0680    8.6598    2.4077 C.1     1  LIG1       -0.0492
     51 C          -9.8610    8.2242    3.5107 C.1     1  LIG1       -0.1124
     52 H          -9.6615    7.8537    4.4897 H       1  LIG1        0.1232
     53 N         -11.0804   10.8974   -2.5845 N.pl3   1  LIG1       -0.3568
     54 H         -11.0493   10.3204   -3.4105 H       1  LIG1        0.1424
     55 H         -11.8221   11.5804   -2.5973 H       1  LIG1        0.1424
@<TRIPOS>BOND
     1    11    10    1
     2    10     9    3
     3    54    53    1
     4    55    53    1
     5    53    45    1
     6     9     1    1
     7    48    44    1
     8    38    37    1
     9    27    25    1
    10    37    36    3
    11    26    25    1
    12    45    44   ar
    13    45    46   ar
    14    25    18    1
    15    44    43   ar
    16    36    28    1
    17     1     6   ar
    18     1     2   ar
    19     6     5   ar
    20    21    17    1
    21    32    29    1
    22    18    17   ar
    23    18    19   ar
    24    17    16   ar
    25    28    29   ar
    26    28    30   ar
    27    29    31   ar
    28    49    46    1
    29    46    47   ar
    30     8     2    1
    31    30    19    1
    32    30    33   ar
    33    19    20   ar
    34    43    31    1
    35    43    42   ar
    36     2     3   ar
    37    31    34   ar
    38    16     5    1
    39    16    15   ar
    40     5     4   ar
    41    33    34   ar
    42    33    35    1
    43    34    39    1
    44    20    15   ar
    45    15    22    1
    46    39    40    1
    47    39    41    1
    48    47    42   ar
    49    42    50    1
    50     3     4   ar
    51     3     7    1
    52    22    23    3
    53     4    12    1
    54    23    24    1
    55    50    51    3
    56    12    14    1
    57    12    13    1
    58    51    52    1
