@<TRIPOS>MOLECULE
mol_data/opt/cam/geoms/mol2/6ei4fe-12hh-6hl-.out
 55 58 0 0 0
SMALL
GASTEIGER

@<TRIPOS>ATOM
      1 C          -3.5661   -1.8541   -0.7628 C.ar    1  LIG1        0.1138
      2 C          -2.6253   -1.9923    0.2570 C.ar    1  LIG1       -0.0275
      3 C          -2.5745   -1.0142    1.2349 C.ar    1  LIG1       -0.0542
      4 C          -3.4259    0.0854    1.1835 C.ar    1  LIG1       -0.0243
      5 C          -4.3120    0.1492    0.0920 C.ar    1  LIG1        0.0788
      6 N          -4.3906   -0.8041   -0.8377 N.ar    1  LIG1       -0.2380
      7 H          -1.8748   -1.1081    2.0602 H       1  LIG1        0.0622
      8 H          -1.9706   -2.8551    0.2811 H       1  LIG1        0.0645
      9 C          -3.6811   -2.8610   -1.7830 C.1     1  LIG1       -0.0498
     10 C          -3.7532   -3.7202   -2.6218 C.1     1  LIG1       -0.1124
     11 H          -3.8292   -4.4731   -3.3722 H       1  LIG1        0.1232
     12 C          -3.4028    1.1187    2.2741 C.3     1  LIG1       -0.0377
     13 H          -4.4148    1.4219    2.5541 H       1  LIG1        0.0278
     14 H          -2.8759    2.0179    1.9472 H       1  LIG1        0.0278
     15 H          -2.9041    0.7282    3.1637 H       1  LIG1        0.0278
     16 C          -4.9125    2.6007   -0.2041 C.ar    1  LIG1        0.1268
     17 C          -5.8699    3.5932   -0.3772 C.ar    1  LIG1       -0.0076
     18 C          -5.2925    1.2599   -0.0775 C.ar    1  LIG1        0.0432
     19 C          -7.2324    3.2927   -0.4599 C.ar    1  LIG1        0.0380
     20 H          -5.5560    4.6332   -0.4162 H       1  LIG1        0.0662
     21 C          -6.6456    0.9626   -0.1845 C.ar    1  LIG1       -0.0329
     22 C          -7.6262    1.9398   -0.3715 C.ar    1  LIG1        0.0362
     23 H          -6.9475   -0.0773   -0.1399 H       1  LIG1        0.0638
     24 O          -3.5859    2.8996   -0.1564 O.3     1  LIG1       -0.5061
     25 H          -3.4684    3.8503   -0.2704 H       1  LIG1        0.2922
     26 C          -8.9871    1.5262   -0.5266 C.1     1  LIG1       -0.0689
     27 C         -10.1162    1.1349   -0.6776 C.1     1  LIG1       -0.1139
     28 H         -11.1245    0.8208   -0.8194 H       1  LIG1        0.1232
     29 C          -8.1642    4.3911   -0.6613 C.ar    1  LIG1        0.1594
     30 C          -8.0644    5.5442   -1.3874 C.ar    1  LIG1        0.0926
     31 C          -9.2691    6.2811   -1.1636 C.ar    1  LIG1        0.0927
     32 C         -10.0399    5.5305   -0.3101 C.ar    1  LIG1        0.1615
     33 O          -9.3763    4.3810   -0.0176 O.2     1  LIG1       -0.4509
     34 N          -7.0130    5.9941   -2.1908 N.pl3   1  LIG1       -0.3536
     35 H          -6.3974    5.2454   -2.4838 H       1  LIG1        0.1425
     36 H          -7.3521    6.4920   -3.0059 H       1  LIG1        0.1425
     37 N          -9.5785    7.5450   -1.7187 N.pl3   1  LIG1       -0.3536
     38 H          -8.7454    8.0935   -1.8954 H       1  LIG1        0.1425
     39 H         -10.1347    7.4878   -2.5650 H       1  LIG1        0.1425
     40 C         -12.1083    4.7473    0.9334 C.ar    1  LIG1        0.1272
     41 C         -11.3384    5.7614    0.3136 C.ar    1  LIG1        0.0621
     42 C         -11.8524    7.0651    0.3232 C.ar    1  LIG1       -0.0044
     43 C         -13.0705    7.3266    0.9242 C.ar    1  LIG1        0.1389
     44 C         -13.7454    6.2601    1.5145 C.ar    1  LIG1        0.0713
     45 N         -13.2822    5.0220    1.5206 N.ar    1  LIG1       -0.2364
     46 H         -11.2690    7.8442   -0.1501 H       1  LIG1        0.0663
     47 H         -14.7017    6.4413    1.9998 H       1  LIG1        0.0868
     48 N         -11.7543    3.4234    0.9478 N.pl3   1  LIG1       -0.3426
     49 H         -12.2959    2.8640    1.5869 H       1  LIG1        0.1437
     50 H         -10.7983    3.1546    0.7837 H       1  LIG1        0.1437
     51 O         -13.6733    8.5499    0.9985 O.3     1  LIG1       -0.4936
     52 C         -12.9890    9.6409    0.4293 C.3     1  LIG1        0.0789
     53 H         -13.6188   10.5163    0.5889 H       1  LIG1        0.0660
     54 H         -12.0161    9.8052    0.9090 H       1  LIG1        0.0660
     55 H         -12.8297    9.5046   -0.6478 H       1  LIG1        0.0660
@<TRIPOS>BOND
     1    11    10    1
     2    36    34    1
     3    10     9    3
     4    39    37    1
     5    35    34    1
     6    34    30    1
     7    38    37    1
     8     9     1    1
     9    37    31    1
    10    30    31   ar
    11    30    29   ar
    12    31    32   ar
    13     6     1   ar
    14     6     5   ar
    15    28    27    1
    16     1     2   ar
    17    27    26    3
    18    29    19    1
    19    29    33   ar
    20    55    52    1
    21    26    22    1
    22    19    17   ar
    23    19    22   ar
    24    20    17    1
    25    17    16   ar
    26    22    21   ar
    27    32    33   ar
    28    32    41    1
    29    25    24    1
    30    16    24    1
    31    16    18   ar
    32    21    23    1
    33    21    18   ar
    34    46    42    1
    35    18     5    1
    36     5     4   ar
    37     2     8    1
    38     2     3   ar
    39    41    42   ar
    40    41    40   ar
    41    42    43   ar
    42    52    53    1
    43    52    54    1
    44    52    51    1
    45    50    48    1
    46    43    51    1
    47    43    44   ar
    48    40    48    1
    49    40    45   ar
    50    48    49    1
    51     4     3   ar
    52     4    12    1
    53     3     7    1
    54    44    45   ar
    55    44    47    1
    56    14    12    1
    57    12    13    1
    58    12    15    1
