@<TRIPOS>MOLECULE
mol_data/opt/cam/geoms/mol2/6ei6ei-.out
 30 31 0 0 0
SMALL
GASTEIGER

@<TRIPOS>ATOM
      1 C          -4.4108   -1.9745    0.7110 C.ar    1  LIG1        0.1138
      2 C          -3.1465   -2.1163    0.1395 C.ar    1  LIG1       -0.0275
      3 C          -2.5955   -1.0255   -0.5099 C.ar    1  LIG1       -0.0542
      4 C          -3.2790    0.1857   -0.5663 C.ar    1  LIG1       -0.0243
      5 C          -4.5301    0.2325    0.0743 C.ar    1  LIG1        0.0779
      6 N          -5.0870   -0.8212    0.6717 N.ar    1  LIG1       -0.2381
      7 H          -1.6264   -1.1137   -0.9921 H       1  LIG1        0.0622
      8 H          -2.6286   -3.0663    0.1938 H       1  LIG1        0.0645
      9 C          -5.0396   -3.0895    1.3653 C.1     1  LIG1       -0.0498
     10 C          -5.5400   -4.0408    1.9052 C.1     1  LIG1       -0.1124
     11 H          -5.9952   -4.8742    2.3891 H       1  LIG1        0.1232
     12 C          -2.7004    1.3572   -1.3099 C.3     1  LIG1       -0.0377
     13 H          -2.2666    2.0864   -0.6211 H       1  LIG1        0.0278
     14 H          -3.4640    1.8775   -1.8929 H       1  LIG1        0.0278
     15 H          -1.9156    1.0269   -1.9938 H       1  LIG1        0.0278
     16 C          -5.0096    2.6553    0.7142 C.ar    1  LIG1        0.1223
     17 C          -5.3786    1.4605    0.0739 C.ar    1  LIG1        0.0347
     18 C          -6.6244    1.4223   -0.5422 C.ar    1  LIG1       -0.0455
     19 C          -7.4447    2.5441   -0.5563 C.ar    1  LIG1       -0.0316
     20 C          -6.9531    3.6830    0.0814 C.ar    1  LIG1        0.0319
     21 N          -5.7856    3.7464    0.7075 N.ar    1  LIG1       -0.2458
     22 H          -6.9487    0.4971   -1.0091 H       1  LIG1        0.0628
     23 H          -7.5485    4.5944    0.0925 H       1  LIG1        0.0832
     24 C          -3.7851    2.7562    1.4629 C.1     1  LIG1       -0.0491
     25 C          -2.7701    2.8420    2.1033 C.1     1  LIG1       -0.1124
     26 H          -1.8790    2.9235    2.6823 H       1  LIG1        0.1232
     27 C          -8.7948    2.5334   -1.2156 C.3     1  LIG1       -0.0383
     28 H          -9.4654    1.8196   -0.7280 H       1  LIG1        0.0278
     29 H          -8.7211    2.2438   -2.2678 H       1  LIG1        0.0278
     30 H          -9.2644    3.5183   -1.1701 H       1  LIG1        0.0278
@<TRIPOS>BOND
     1    29    27    1
     2    15    12    1
     3    14    12    1
     4    12    13    1
     5    12     4    1
     6    27    30    1
     7    27    28    1
     8    27    19    1
     9    22    18    1
    10     7     3    1
    11     4     3   ar
    12     4     5   ar
    13    19    18   ar
    14    19    20   ar
    15    18    17   ar
    16     3     2   ar
    17    17     5    1
    18    17    16   ar
    19     5     6   ar
    20    20    23    1
    21    20    21   ar
    22     2     8    1
    23     2     1   ar
    24     6     1   ar
    25    21    16   ar
    26     1     9    1
    27    16    24    1
    28     9    10    3
    29    24    25    3
    30    10    11    1
    31    25    26    1
