@<TRIPOS>MOLECULE
mol_data/opt/cam/geoms/mol2/6ei6ei-6ei-6ei-.out
 58 61 0 0 0
SMALL
GASTEIGER

@<TRIPOS>ATOM
      1 C          -4.1509   -2.0700    0.4816 C.ar    1  LIG1        0.1138
      2 C          -3.0169   -2.2589   -0.3083 C.ar    1  LIG1       -0.0275
      3 C          -2.5643   -1.1952   -1.0689 C.ar    1  LIG1       -0.0542
      4 C          -3.2414    0.0211   -1.0615 C.ar    1  LIG1       -0.0243
      5 C          -4.3948    0.0935   -0.2603 C.ar    1  LIG1        0.0779
      6 N          -4.8199   -0.9124    0.5047 N.ar    1  LIG1       -0.2381
      7 H          -1.6656   -1.3011   -1.6694 H       1  LIG1        0.0622
      8 H          -2.5027   -3.2125   -0.3024 H       1  LIG1        0.0645
      9 C          -4.6381   -3.1342    1.3164 C.1     1  LIG1       -0.0498
     10 C          -5.0210   -4.0432    2.0048 C.1     1  LIG1       -0.1124
     11 H          -5.3729   -4.8402    2.6186 H       1  LIG1        0.1232
     12 C          -2.7223    1.1899   -1.8519 C.3     1  LIG1       -0.0377
     13 H          -2.8034    2.1222   -1.2882 H       1  LIG1        0.0278
     14 H          -3.2867    1.3221   -2.7784 H       1  LIG1        0.0278
     15 H          -1.6724    1.0391   -2.1123 H       1  LIG1        0.0278
     16 C          -5.9071    1.9141   -1.2129 C.ar    1  LIG1        0.1230
     17 C          -5.2056    1.3402   -0.1438 C.ar    1  LIG1        0.0347
     18 C          -5.3511    1.9439    1.1003 C.ar    1  LIG1       -0.0449
     19 C          -6.0967    3.1035    1.2644 C.ar    1  LIG1       -0.0237
     20 C          -6.6936    3.6336    0.1065 C.ar    1  LIG1        0.0780
     21 N          -6.6275    3.0333   -1.0795 N.ar    1  LIG1       -0.2374
     22 H          -4.8811    1.4786    1.9611 H       1  LIG1        0.0628
     23 C          -5.9402    1.2955   -2.5115 C.1     1  LIG1       -0.0491
     24 C          -5.9849    0.7741   -3.5949 C.1     1  LIG1       -0.1124
     25 H          -6.0374    0.3134   -4.5545 H       1  LIG1        0.1232
     26 C          -6.2697    3.7134    2.6273 C.3     1  LIG1       -0.0377
     27 H          -6.0605    2.9754    3.4044 H       1  LIG1        0.0278
     28 H          -7.2867    4.0845    2.7725 H       1  LIG1        0.0278
     29 H          -5.5931    4.5599    2.7698 H       1  LIG1        0.0278
     30 C          -7.0317    6.1354    0.4708 C.ar    1  LIG1        0.1230
     31 C          -7.5270    4.8695    0.1295 C.ar    1  LIG1        0.0347
     32 C          -8.8561    4.8017   -0.2740 C.ar    1  LIG1       -0.0449
     33 C          -9.6763    5.9216   -0.2672 C.ar    1  LIG1       -0.0237
     34 C          -9.0926    7.1240    0.1701 C.ar    1  LIG1        0.0780
     35 N          -7.8048    7.2272    0.4889 N.ar    1  LIG1       -0.2374
     36 H          -9.2462    3.8480   -0.6153 H       1  LIG1        0.0628
     37 C          -5.6395    6.3459    0.7670 C.1     1  LIG1       -0.0491
     38 C          -4.4736    6.5319    0.9990 C.1     1  LIG1       -0.1124
     39 H          -3.4419    6.7081    1.2002 H       1  LIG1        0.1232
     40 C         -11.0995    5.8292   -0.7425 C.3     1  LIG1       -0.0377
     41 H         -11.2414    4.9328   -1.3495 H       1  LIG1        0.0278
     42 H         -11.3759    6.6975   -1.3450 H       1  LIG1        0.0278
     43 H         -11.7945    5.7847    0.0998 H       1  LIG1        0.0278
     44 C         -10.9425    8.6186    1.0900 C.ar    1  LIG1        0.1223
     45 C          -9.8510    8.4071    0.2310 C.ar    1  LIG1        0.0347
     46 C          -9.4389    9.4762   -0.5566 C.ar    1  LIG1       -0.0455
     47 C         -10.1178   10.6883   -0.5198 C.ar    1  LIG1       -0.0316
     48 C         -11.2083   10.7655    0.3464 C.ar    1  LIG1        0.0319
     49 N         -11.6093    9.7786    1.1366 N.ar    1  LIG1       -0.2458
     50 H          -8.5727    9.3487   -1.1989 H       1  LIG1        0.0628
     51 H         -11.7830   11.6880    0.4092 H       1  LIG1        0.0832
     52 C         -11.3759    7.6044    2.0142 C.1     1  LIG1       -0.0491
     53 C         -11.7337    6.7667    2.8003 C.1     1  LIG1       -0.1124
     54 H         -12.0530    6.0345    3.5059 H       1  LIG1        0.1232
     55 C          -9.6993   11.8595   -1.3628 C.3     1  LIG1       -0.0383
     56 H          -9.7025   11.6046   -2.4266 H       1  LIG1        0.0278
     57 H          -8.6860   12.1851   -1.1096 H       1  LIG1        0.0278
     58 H         -10.3699   12.7093   -1.2190 H       1  LIG1        0.0278
@<TRIPOS>BOND
     1    25    24    1
     2    24    23    3
     3    14    12    1
     4    23    16    1
     5    56    55    1
     6    15    12    1
     7    12    13    1
     8    12     4    1
     9     7     3    1
    10    55    58    1
    11    55    57    1
    12    55    47    1
    13    41    40    1
    14    42    40    1
    15    16    21   ar
    16    16    17   ar
    17    50    46    1
    18    21    20   ar
    19     3     4   ar
    20     3     2   ar
    21     4     5   ar
    22    40    33    1
    23    40    43    1
    24    36    32    1
    25    46    47   ar
    26    46    45   ar
    27    47    48   ar
    28     2     8    1
    29     2     1   ar
    30    32    33   ar
    31    32    31   ar
    32    33    34   ar
    33     5    17    1
    34     5     6   ar
    35    17    18   ar
    36    20    31    1
    37    20    19   ar
    38    31    30   ar
    39    34    45    1
    40    34    35   ar
    41    45    44   ar
    42    48    51    1
    43    48    49   ar
    44    30    35   ar
    45    30    37    1
    46     1     6   ar
    47     1     9    1
    48    37    38    3
    49    38    39    1
    50    44    49   ar
    51    44    52    1
    52    18    19   ar
    53    18    22    1
    54    19    26    1
    55     9    10    3
    56    10    11    1
    57    52    53    3
    58    26    29    1
    59    26    28    1
    60    26    27    1
    61    53    54    1
