@<TRIPOS>MOLECULE
mol_data/opt/cam/geoms/mol2/6ei6ei6ei-6ei-.out
 58 61 0 0 0
SMALL
GASTEIGER

@<TRIPOS>ATOM
      1 C          -3.4681   -1.5221   -1.4835 C.ar    1  LIG1        0.1138
      2 C          -2.9373   -2.1990   -0.3856 C.ar    1  LIG1       -0.0275
      3 C          -3.2045   -1.7060    0.8796 C.ar    1  LIG1       -0.0542
      4 C          -4.0031   -0.5782    1.0465 C.ar    1  LIG1       -0.0243
      5 C          -4.5181    0.0067   -0.1238 C.ar    1  LIG1        0.0779
      6 N          -4.2390   -0.4375   -1.3493 N.ar    1  LIG1       -0.2381
      7 H          -2.7800   -2.1930    1.7526 H       1  LIG1        0.0622
      8 H          -2.3184   -3.0757   -0.5345 H       1  LIG1        0.0645
      9 C          -3.1889   -1.9761   -2.8187 C.1     1  LIG1       -0.0498
     10 C          -2.9367   -2.3801   -3.9232 C.1     1  LIG1       -0.1124
     11 H          -2.7238   -2.7278   -4.9079 H       1  LIG1        0.1232
     12 C          -4.2575   -0.0162    2.4175 C.3     1  LIG1       -0.0377
     13 H          -5.2558   -0.2826    2.7739 H       1  LIG1        0.0278
     14 H          -4.1924    1.0744    2.4207 H       1  LIG1        0.0278
     15 H          -3.5273   -0.4032    3.1314 H       1  LIG1        0.0278
     16 C          -6.6543    1.2682    0.4706 C.ar    1  LIG1        0.1230
     17 C          -5.3720    1.2303   -0.0930 C.ar    1  LIG1        0.0347
     18 C          -4.9065    2.4013   -0.6810 C.ar    1  LIG1       -0.0449
     19 C          -5.6685    3.5618   -0.6943 C.ar    1  LIG1       -0.0237
     20 C          -6.9418    3.4828   -0.1024 C.ar    1  LIG1        0.0780
     21 N          -7.4064    2.3750    0.4699 N.ar    1  LIG1       -0.2374
     22 H          -3.9193    2.4010   -1.1325 H       1  LIG1        0.0628
     23 C          -7.2578    0.0979    1.0502 C.1     1  LIG1       -0.0491
     24 C          -7.7723   -0.8813    1.5237 C.1     1  LIG1       -0.1124
     25 H          -8.2402   -1.7471    1.9328 H       1  LIG1        0.1232
     26 C          -5.1218    4.8289   -1.2901 C.3     1  LIG1       -0.0377
     27 H          -5.3594    5.6972   -0.6709 H       1  LIG1        0.0278
     28 H          -5.5459    5.0116   -2.2805 H       1  LIG1        0.0278
     29 H          -4.0364    4.7670   -1.3914 H       1  LIG1        0.0278
     30 C          -8.4193    5.2866   -1.1346 C.ar    1  LIG1        0.1230
     31 C          -7.8565    4.6576   -0.0155 C.ar    1  LIG1        0.0347
     32 C          -8.2461    5.1287    1.2332 C.ar    1  LIG1       -0.0449
     33 C          -9.0961    6.2182    1.3676 C.ar    1  LIG1       -0.0237
     34 C          -9.5372    6.8198    0.1756 C.ar    1  LIG1        0.0780
     35 N          -9.2354    6.3414   -1.0290 N.ar    1  LIG1       -0.2374
     36 H          -7.8855    4.6143    2.1186 H       1  LIG1        0.0628
     37 C          -8.1944    4.7924   -2.4665 C.1     1  LIG1       -0.0491
     38 C          -8.0199    4.3690   -3.5791 C.1     1  LIG1       -0.1124
     39 H          -7.8747    3.9916   -4.5653 H       1  LIG1        0.1232
     40 C          -9.5340    6.6821    2.7289 C.3     1  LIG1       -0.0377
     41 H          -9.3735    5.8960    3.4695 H       1  LIG1        0.0278
     42 H         -10.5935    6.9483    2.7376 H       1  LIG1        0.0278
     43 H          -8.9751    7.5671    3.0432 H       1  LIG1        0.0278
     44 C         -10.1069    9.2550    0.6784 C.ar    1  LIG1        0.1223
     45 C         -10.4551    7.9955    0.1625 C.ar    1  LIG1        0.0347
     46 C         -11.7048    7.8711   -0.4345 C.ar    1  LIG1       -0.0455
     47 C         -12.5843    8.9463   -0.4717 C.ar    1  LIG1       -0.0316
     48 C         -12.1398   10.1350    0.1071 C.ar    1  LIG1        0.0319
     49 N         -10.9431   10.3005    0.6543 N.ar    1  LIG1       -0.2458
     50 H         -11.9800    6.9180   -0.8760 H       1  LIG1        0.0628
     51 H         -12.7917   11.0070    0.1171 H       1  LIG1        0.0832
     52 C          -8.7984    9.5077    1.2211 C.1     1  LIG1       -0.0491
     53 C          -7.7014    9.7322    1.6617 C.1     1  LIG1       -0.1124
     54 H          -6.7301    9.9448    2.0455 H       1  LIG1        0.1232
     55 C         -13.9406    8.8420   -1.1098 C.3     1  LIG1       -0.0383
     56 H         -14.5126    8.0080   -0.6937 H       1  LIG1        0.0278
     57 H         -13.8561    8.6727   -2.1876 H       1  LIG1        0.0278
     58 H         -14.5193    9.7559   -0.9598 H       1  LIG1        0.0278
@<TRIPOS>BOND
     1    11    10    1
     2    39    38    1
     3    10     9    3
     4    38    37    3
     5     9     1    1
     6    37    30    1
     7    28    26    1
     8    57    55    1
     9     1     6   ar
    10     1     2   ar
    11    29    26    1
    12     6     5   ar
    13    26    19    1
    14    26    27    1
    15    30    35   ar
    16    30    31   ar
    17    22    18    1
    18    55    58    1
    19    55    56    1
    20    55    47    1
    21    35    34   ar
    22    50    46    1
    23    19    18   ar
    24    19    20   ar
    25    18    17   ar
    26     8     2    1
    27    47    46   ar
    28    47    48   ar
    29    46    45   ar
    30     2     3   ar
    31     5    17    1
    32     5     4   ar
    33    20    31    1
    34    20    21   ar
    35    17    16   ar
    36    31    32   ar
    37    48    51    1
    38    48    49   ar
    39    45    34    1
    40    45    44   ar
    41    34    33   ar
    42    21    16   ar
    43    16    23    1
    44    49    44   ar
    45    44    52    1
    46     3     4   ar
    47     3     7    1
    48     4    12    1
    49    23    24    3
    50    52    53    3
    51    32    33   ar
    52    32    36    1
    53    33    40    1
    54    24    25    1
    55    53    54    1
    56    12    14    1
    57    12    13    1
    58    12    15    1
    59    40    42    1
    60    40    43    1
    61    40    41    1
