@<TRIPOS>MOLECULE
mol_data/opt/cam/geoms/mol2/6ei6ei6ei.out
 44 46 0 0 0
SMALL
GASTEIGER

@<TRIPOS>ATOM
      1 C          -3.3927   -1.3502   -1.3976 C.ar    1  LIG1        0.1138
      2 C          -3.3361   -2.3356   -0.4121 C.ar    1  LIG1       -0.0275
      3 C          -4.0109   -2.1134    0.7755 C.ar    1  LIG1       -0.0542
      4 C          -4.7459   -0.9467    0.9661 C.ar    1  LIG1       -0.0243
      5 C          -4.7683   -0.0358   -0.1052 C.ar    1  LIG1        0.0779
      6 N          -4.0930   -0.2220   -1.2397 N.ar    1  LIG1       -0.2381
      7 H          -3.9595   -2.8474    1.5742 H       1  LIG1        0.0622
      8 H          -2.7597   -3.2378   -0.5777 H       1  LIG1        0.0645
      9 C          -2.6790   -1.5199   -2.6340 C.1     1  LIG1       -0.0498
     10 C          -2.0707   -1.6903   -3.6577 C.1     1  LIG1       -0.1124
     11 H          -1.5383   -1.8283   -4.5705 H       1  LIG1        0.1232
     12 C          -5.4406   -0.6848    2.2734 C.3     1  LIG1       -0.0377
     13 H          -6.5121   -0.8860    2.1979 H       1  LIG1        0.0278
     14 H          -5.3285    0.3564    2.5844 H       1  LIG1        0.0278
     15 H          -5.0295   -1.3219    3.0593 H       1  LIG1        0.0278
     16 C          -6.8920    1.3641    0.0928 C.ar    1  LIG1        0.1230
     17 C          -5.4995    1.2621   -0.0298 C.ar    1  LIG1        0.0347
     18 C          -4.7909    2.4515   -0.1600 C.ar    1  LIG1       -0.0449
     19 C          -5.4229    3.6860   -0.0970 C.ar    1  LIG1       -0.0237
     20 C          -6.8142    3.6684    0.1074 C.ar    1  LIG1        0.0780
     21 N          -7.5216    2.5425    0.1610 N.ar    1  LIG1       -0.2374
     22 H          -3.7203    2.4016   -0.3321 H       1  LIG1        0.0628
     23 C          -7.7360    0.1989    0.0948 C.1     1  LIG1       -0.0491
     24 C          -8.4478   -0.7710    0.0804 C.1     1  LIG1       -0.1124
     25 H          -9.0858   -1.6246    0.0595 H       1  LIG1        0.1232
     26 C          -4.6394    4.9558   -0.2792 C.3     1  LIG1       -0.0377
     27 H          -4.4388    5.4369    0.6814 H       1  LIG1        0.0278
     28 H          -5.1842    5.6757   -0.8943 H       1  LIG1        0.0278
     29 H          -3.6830    4.7479   -0.7632 H       1  LIG1        0.0278
     30 C          -7.4838    5.8626    1.2221 C.ar    1  LIG1        0.1223
     31 C          -7.6280    4.9155    0.1945 C.ar    1  LIG1        0.0347
     32 C          -8.6215    5.1428   -0.7514 C.ar    1  LIG1       -0.0455
     33 C          -9.4045    6.2896   -0.6973 C.ar    1  LIG1       -0.0316
     34 C          -9.1427    7.1738    0.3493 C.ar    1  LIG1        0.0319
     35 N          -8.2274    6.9741    1.2880 N.ar    1  LIG1       -0.2458
     36 H          -8.7779    4.4046   -1.5322 H       1  LIG1        0.0628
     37 H          -9.7187    8.0937    0.4352 H       1  LIG1        0.0832
     38 C          -6.5527    5.6626    2.3009 C.1     1  LIG1       -0.0491
     39 C          -5.7879    5.4955    3.2147 C.1     1  LIG1       -0.1124
     40 H          -5.1199    5.3534    4.0329 H       1  LIG1        0.1232
     41 C         -10.4838    6.5634   -1.7061 C.3     1  LIG1       -0.0383
     42 H         -10.9472    7.5373   -1.5344 H       1  LIG1        0.0278
     43 H         -11.2705    5.8046   -1.6566 H       1  LIG1        0.0278
     44 H         -10.0868    6.5540   -2.7252 H       1  LIG1        0.0278
@<TRIPOS>BOND
     1    11    10    1
     2    10     9    3
     3    44    41    1
     4     9     1    1
     5    41    43    1
     6    41    42    1
     7    41    33    1
     8    36    32    1
     9     1     6   ar
    10     1     2   ar
    11     6     5   ar
    12    28    26    1
    13    29    26    1
    14    32    33   ar
    15    32    31   ar
    16    33    34   ar
    17     8     2    1
    18     2     3   ar
    19    22    18    1
    20    26    19    1
    21    26    27    1
    22    18    19   ar
    23    18    17   ar
    24     5    17    1
    25     5     4   ar
    26    19    20   ar
    27    17    16   ar
    28    25    24    1
    29    24    23    3
    30    16    23    1
    31    16    21   ar
    32    20    21   ar
    33    20    31    1
    34    31    30   ar
    35    34    37    1
    36    34    35   ar
    37     3     4   ar
    38     3     7    1
    39     4    12    1
    40    30    35   ar
    41    30    38    1
    42    13    12    1
    43    12    14    1
    44    12    15    1
    45    38    39    3
    46    39    40    1
