@<TRIPOS>MOLECULE
mol_data/opt/cam/geoms/mol2/6ei6ei-6ei.out
 44 46 0 0 0
SMALL
GASTEIGER

@<TRIPOS>ATOM
      1 C          -4.4456   -2.1119   -0.5116 C.ar    1  LIG1        0.1138
      2 C          -3.1102   -2.2103   -0.1214 C.ar    1  LIG1       -0.0275
      3 C          -2.4777   -1.0701    0.3422 C.ar    1  LIG1       -0.0542
      4 C          -3.1544    0.1452    0.3918 C.ar    1  LIG1       -0.0243
      5 C          -4.4860    0.1428   -0.0601 C.ar    1  LIG1        0.0779
      6 N          -5.1170   -0.9558   -0.4748 N.ar    1  LIG1       -0.2381
      7 H          -1.4476   -1.1212    0.6826 H       1  LIG1        0.0622
      8 H          -2.5991   -3.1645   -0.1675 H       1  LIG1        0.0645
      9 C          -5.1552   -3.2765   -0.9665 C.1     1  LIG1       -0.0498
     10 C          -5.7218   -4.2690   -1.3417 C.1     1  LIG1       -0.1124
     11 H          -6.2357   -5.1396   -1.6790 H       1  LIG1        0.1232
     12 C          -2.4816    1.3744    0.9366 C.3     1  LIG1       -0.0377
     13 H          -3.1541    1.9456    1.5809 H       1  LIG1        0.0278
     14 H          -2.1627    2.0394    0.1300 H       1  LIG1        0.0278
     15 H          -1.6002    1.1013    1.5208 H       1  LIG1        0.0278
     16 C          -5.0803    2.4985   -0.8370 C.ar    1  LIG1        0.1230
     17 C          -5.3341    1.3706   -0.0455 C.ar    1  LIG1        0.0347
     18 C          -6.4650    1.4086    0.7630 C.ar    1  LIG1       -0.0449
     19 C          -7.2952    2.5206    0.8001 C.ar    1  LIG1       -0.0237
     20 C          -6.9431    3.5950   -0.0362 C.ar    1  LIG1        0.0780
     21 N          -5.8653    3.5825   -0.8158 N.ar    1  LIG1       -0.2374
     22 H          -6.6932    0.5456    1.3808 H       1  LIG1        0.0628
     23 C          -3.9758    2.5406   -1.7579 C.1     1  LIG1       -0.0491
     24 C          -3.0623    2.5757   -2.5402 C.1     1  LIG1       -0.1124
     25 H          -2.2641    2.6097   -3.2456 H       1  LIG1        0.1232
     26 C          -8.4857    2.5582    1.7169 C.3     1  LIG1       -0.0377
     27 H          -8.4092    1.7777    2.4765 H       1  LIG1        0.0278
     28 H          -9.4133    2.4022    1.1607 H       1  LIG1        0.0278
     29 H          -8.5696    3.5227    2.2237 H       1  LIG1        0.0278
     30 C          -9.0403    4.9481   -0.5573 C.ar    1  LIG1        0.1223
     31 C          -7.7237    4.8667   -0.0731 C.ar    1  LIG1        0.0347
     32 C          -7.1187    6.0481    0.3398 C.ar    1  LIG1       -0.0455
     33 C          -7.8148    7.2509    0.3099 C.ar    1  LIG1       -0.0316
     34 C          -9.1271    7.1991   -0.1588 C.ar    1  LIG1        0.0319
     35 N          -9.7264    6.0970   -0.5901 N.ar    1  LIG1       -0.2458
     36 H          -6.0886    6.0175    0.6825 H       1  LIG1        0.0628
     37 H          -9.7231    8.1095   -0.1954 H       1  LIG1        0.0832
     38 C          -9.7098    3.7932   -1.0932 C.1     1  LIG1       -0.0491
     39 C         -10.2645    2.8303   -1.5544 C.1     1  LIG1       -0.1124
     40 H         -10.7560    1.9829   -1.9746 H       1  LIG1        0.1232
     41 C          -7.1880    8.5432    0.7512 C.3     1  LIG1       -0.0383
     42 H          -7.9032    9.3668    0.6992 H       1  LIG1        0.0278
     43 H          -6.3326    8.8020    0.1200 H       1  LIG1        0.0278
     44 H          -6.8245    8.4778    1.7808 H       1  LIG1        0.0278
@<TRIPOS>BOND
     1    25    24    1
     2    24    23    3
     3    40    39    1
     4    23    16    1
     5    11    10    1
     6    39    38    3
     7    10     9    3
     8    38    30    1
     9     9     1    1
    10    16    21   ar
    11    16    17   ar
    12    21    20   ar
    13    35    30   ar
    14    35    34   ar
    15    30    31   ar
    16     1     6   ar
    17     1     2   ar
    18     6     5   ar
    19    37    34    1
    20     8     2    1
    21    34    33   ar
    22     2     3   ar
    23    31    20    1
    24    31    32   ar
    25     5    17    1
    26     5     4   ar
    27    17    18   ar
    28    20    19   ar
    29    43    41    1
    30    14    12    1
    31    33    32   ar
    32    33    41    1
    33    32    36    1
    34     3     4   ar
    35     3     7    1
    36     4    12    1
    37    42    41    1
    38    41    44    1
    39    18    19   ar
    40    18    22    1
    41    19    26    1
    42    12    15    1
    43    12    13    1
    44    28    26    1
    45    26    29    1
    46    26    27    1
