@<TRIPOS>MOLECULE
mol_data/opt/cam/geoms/mol2/6ei6ei-6ei6ei-.out
 58 61 0 0 0
SMALL
GASTEIGER

@<TRIPOS>ATOM
      1 C          -3.3737   -1.5470    1.1724 C.ar    1  LIG1        0.1138
      2 C          -2.9449   -2.2177    0.0271 C.ar    1  LIG1       -0.0275
      3 C          -3.3334   -1.7230   -1.2054 C.ar    1  LIG1       -0.0542
      4 C          -4.1107   -0.5715   -1.2946 C.ar    1  LIG1       -0.0243
      5 C          -4.4566    0.0490   -0.0810 C.ar    1  LIG1        0.0779
      6 N          -4.1190   -0.4383    1.1133 N.ar    1  LIG1       -0.2381
      7 H          -3.0424   -2.2412   -2.1144 H       1  LIG1        0.0622
      8 H          -2.3398   -3.1121    0.1151 H       1  LIG1        0.0645
      9 C          -3.0257   -2.0433    2.4759 C.1     1  LIG1       -0.0498
     10 C          -2.7190   -2.4835    3.5525 C.1     1  LIG1       -0.1124
     11 H          -2.4536   -2.8608    4.5133 H       1  LIG1        0.1232
     12 C          -4.5710   -0.0616   -2.6320 C.3     1  LIG1       -0.0377
     13 H          -3.9658    0.7870   -2.9607 H       1  LIG1        0.0278
     14 H          -5.6092    0.2765   -2.5958 H       1  LIG1        0.0278
     15 H          -4.4940   -0.8466   -3.3874 H       1  LIG1        0.0278
     16 C          -4.9054    2.5157   -0.5531 C.ar    1  LIG1        0.1230
     17 C          -5.3006    1.2777   -0.0280 C.ar    1  LIG1        0.0347
     18 C          -6.5192    1.2383    0.6406 C.ar    1  LIG1       -0.0449
     19 C          -7.3417    2.3538    0.7219 C.ar    1  LIG1       -0.0237
     20 C          -6.8772    3.5220    0.0916 C.ar    1  LIG1        0.0780
     21 N          -5.6831    3.6023   -0.4907 N.ar    1  LIG1       -0.2374
     22 H          -6.8168    0.3124    1.1229 H       1  LIG1        0.0628
     23 C          -3.6065    2.7045   -1.1422 C.1     1  LIG1       -0.0491
     24 C          -2.5154    2.8724   -1.6209 C.1     1  LIG1       -0.1124
     25 H          -1.5474    3.0315   -2.0376 H       1  LIG1        0.1232
     26 C          -8.6359    2.2940    1.4842 C.3     1  LIG1       -0.0377
     27 H          -8.6271    1.4567    2.1850 H       1  LIG1        0.0278
     28 H          -9.4860    2.1651    0.8094 H       1  LIG1        0.0278
     29 H          -8.8087    3.2121    2.0501 H       1  LIG1        0.0278
     30 C          -8.9029    4.9521   -0.5059 C.ar    1  LIG1        0.1230
     31 C          -7.6489    4.7975    0.1005 C.ar    1  LIG1        0.0347
     32 C          -7.0836    5.9309    0.6749 C.ar    1  LIG1       -0.0449
     33 C          -7.7614    7.1417    0.7135 C.ar    1  LIG1       -0.0237
     34 C          -9.0470    7.1595    0.1436 C.ar    1  LIG1        0.0780
     35 N          -9.5762    6.1080   -0.4768 N.ar    1  LIG1       -0.2374
     36 H          -6.0815    5.8590    1.0858 H       1  LIG1        0.0628
     37 C          -9.5174    3.8853   -1.2505 C.1     1  LIG1       -0.0491
     38 C         -10.0288    3.0029   -1.8890 C.1     1  LIG1       -0.1124
     39 H         -10.4874    2.2297   -2.4615 H       1  LIG1        0.1232
     40 C          -7.1138    8.3612    1.3079 C.3     1  LIG1       -0.0377
     41 H          -7.4875    8.5542    2.3166 H       1  LIG1        0.0278
     42 H          -7.3184    9.2527    0.7105 H       1  LIG1        0.0278
     43 H          -6.0314    8.2288    1.3647 H       1  LIG1        0.0278
     44 C         -10.3907    9.0121    1.2682 C.ar    1  LIG1        0.1223
     45 C          -9.8925    8.3880    0.1122 C.ar    1  LIG1        0.0347
     46 C         -10.2600    8.9267   -1.1158 C.ar    1  LIG1       -0.0455
     47 C         -11.0526   10.0663   -1.1825 C.ar    1  LIG1       -0.0316
     48 C         -11.4559   10.6168    0.0339 C.ar    1  LIG1        0.0319
     49 N         -11.1533   10.1116    1.2224 N.ar    1  LIG1       -0.2458
     50 H          -9.9199    8.4377   -2.0237 H       1  LIG1        0.0628
     51 H         -12.0703   11.5155    0.0420 H       1  LIG1        0.0832
     52 C         -10.1475    8.4672    2.5775 C.1     1  LIG1       -0.0491
     53 C          -9.9613    8.0085    3.6742 C.1     1  LIG1       -0.1124
     54 H          -9.8092    7.6056    4.6491 H       1  LIG1        0.1232
     55 C         -11.4615   10.6742   -2.4943 C.3     1  LIG1       -0.0383
     56 H         -12.0612    9.9739   -3.0833 H       1  LIG1        0.0278
     57 H         -10.5890   10.9421   -3.0972 H       1  LIG1        0.0278
     58 H         -12.0553   11.5782   -2.3426 H       1  LIG1        0.0278
@<TRIPOS>BOND
     1    15    12    1
     2    57    55    1
     3    56    55    1
     4    13    12    1
     5    12    14    1
     6    12     4    1
     7    55    58    1
     8    55    47    1
     9    39    38    1
    10     7     3    1
    11    25    24    1
    12    50    46    1
    13    38    37    3
    14    24    23    3
    15     4     3   ar
    16     4     5   ar
    17    37    30    1
    18     3     2   ar
    19    47    46   ar
    20    47    48   ar
    21    23    16    1
    22    46    45   ar
    23    16    21   ar
    24    16    17   ar
    25    30    35   ar
    26    30    31   ar
    27    21    20   ar
    28    35    34   ar
    29     5    17    1
    30     5     6   ar
    31    17    18   ar
    32     2     8    1
    33     2     1   ar
    34    48    51    1
    35    48    49   ar
    36    20    31    1
    37    20    19   ar
    38    31    32   ar
    39    45    34    1
    40    45    44   ar
    41    34    33   ar
    42    18    19   ar
    43    18    22    1
    44    32    33   ar
    45    32    36    1
    46    42    40    1
    47    33    40    1
    48    19    26    1
    49    28    26    1
    50     6     1   ar
    51     1     9    1
    52    49    44   ar
    53    44    52    1
    54    40    43    1
    55    40    41    1
    56    26    29    1
    57    26    27    1
    58     9    10    3
    59    52    53    3
    60    10    11    1
    61    53    54    1
