@<TRIPOS>MOLECULE
mol_data/opt/cam/geoms/mol2/6ei6ei6ei6ei.out
 58 61 0 0 0
SMALL
GASTEIGER

@<TRIPOS>ATOM
      1 C          -2.5036   -0.8887   -0.4807 C.ar    1  LIG1        0.1138
      2 C          -2.9399   -2.2096   -0.3792 C.ar    1  LIG1       -0.0275
      3 C          -4.2871   -2.4392   -0.1620 C.ar    1  LIG1       -0.0542
      4 C          -5.1825   -1.3770   -0.0732 C.ar    1  LIG1       -0.0243
      5 C          -4.6446   -0.0869   -0.2276 C.ar    1  LIG1        0.0779
      6 N          -3.3437    0.1486   -0.4009 N.ar    1  LIG1       -0.2381
      7 H          -4.6526   -3.4554   -0.0464 H       1  LIG1        0.0622
      8 H          -2.2292   -3.0242   -0.4513 H       1  LIG1        0.0645
      9 C          -1.1084   -0.5989   -0.6703 C.1     1  LIG1       -0.0498
     10 C           0.0654   -0.3883   -0.8280 C.1     1  LIG1       -0.1124
     11 H           1.1022   -0.1865   -0.9696 H       1  LIG1        0.1232
     12 C          -6.6381   -1.6257    0.2092 C.3     1  LIG1       -0.0377
     13 H          -7.2359   -1.5490   -0.7025 H       1  LIG1        0.0278
     14 H          -7.0379   -0.8989    0.9201 H       1  LIG1        0.0278
     15 H          -6.7812   -2.6249    0.6261 H       1  LIG1        0.0278
     16 C          -6.5062    1.4541   -1.0452 C.ar    1  LIG1        0.1230
     17 C          -5.4855    1.1418   -0.1368 C.ar    1  LIG1        0.0347
     18 C          -5.2121    2.0825    0.8499 C.ar    1  LIG1       -0.0449
     19 C          -5.9621    3.2440    0.9767 C.ar    1  LIG1       -0.0237
     20 C          -7.0115    3.4158    0.0563 C.ar    1  LIG1        0.0780
     21 N          -7.2448    2.5644   -0.9398 N.ar    1  LIG1       -0.2374
     22 H          -4.3779    1.9032    1.5210 H       1  LIG1        0.0628
     23 C          -6.7818    0.6209   -2.1853 C.1     1  LIG1       -0.0491
     24 C          -7.0055   -0.0633   -3.1493 C.1     1  LIG1       -0.1124
     25 H          -7.2033   -0.6589   -4.0108 H       1  LIG1        0.1232
     26 C          -5.6201    4.2626    2.0279 C.3     1  LIG1       -0.0377
     27 H          -6.2802    4.1725    2.8944 H       1  LIG1        0.0278
     28 H          -5.7246    5.2807    1.6463 H       1  LIG1        0.0278
     29 H          -4.5912    4.1286    2.3680 H       1  LIG1        0.0278
     30 C          -8.7547    4.9395    1.1262 C.ar    1  LIG1        0.1230
     31 C          -7.8971    4.6149    0.0664 C.ar    1  LIG1        0.0347
     32 C          -7.9455    5.4347   -1.0560 C.ar    1  LIG1       -0.0449
     33 C          -8.7496    6.5655   -1.0966 C.ar    1  LIG1       -0.0237
     34 C          -9.5088    6.8371    0.0557 C.ar    1  LIG1        0.0780
     35 N          -9.5346    6.0266    1.1108 N.ar    1  LIG1       -0.2374
     36 H          -7.3476    5.1652   -1.9210 H       1  LIG1        0.0628
     37 C          -8.8904    4.0848    2.2756 C.1     1  LIG1       -0.0491
     38 C          -9.0213    3.3660    3.2316 C.1     1  LIG1       -0.1124
     39 H          -9.1489    2.7331    4.0796 H       1  LIG1        0.1232
     40 C          -8.8114    7.4150   -2.3352 C.3     1  LIG1       -0.0377
     41 H          -8.2033    8.3166   -2.2259 H       1  LIG1        0.0278
     42 H          -9.8335    7.7373   -2.5472 H       1  LIG1        0.0278
     43 H          -8.4426    6.8577   -3.1987 H       1  LIG1        0.0278
     44 C          -9.9622    9.3451    0.1374 C.ar    1  LIG1        0.1223
     45 C         -10.4171    8.0159    0.1572 C.ar    1  LIG1        0.0347
     46 C         -11.7806    7.8079    0.3335 C.ar    1  LIG1       -0.0455
     47 C         -12.6549    8.8829    0.4388 C.ar    1  LIG1       -0.0316
     48 C         -12.0888   10.1557    0.3688 C.ar    1  LIG1        0.0319
     49 N         -10.7905   10.3923    0.2352 N.ar    1  LIG1       -0.2458
     50 H         -12.1503    6.7886    0.3920 H       1  LIG1        0.0628
     51 H         -12.7276   11.0347    0.4360 H       1  LIG1        0.0832
     52 C          -8.5592    9.6554    0.0615 C.1     1  LIG1       -0.0491
     53 C          -7.3868    9.9220    0.0140 C.1     1  LIG1       -0.1124
     54 H          -6.3505   10.1685   -0.0193 H       1  LIG1        0.1232
     55 C         -14.1333    8.6896    0.6247 C.3     1  LIG1       -0.0383
     56 H         -14.6562    9.6479    0.6549 H       1  LIG1        0.0278
     57 H         -14.3473    8.1611    1.5584 H       1  LIG1        0.0278
     58 H         -14.5621    8.0980   -0.1894 H       1  LIG1        0.0278
@<TRIPOS>BOND
     1    25    24    1
     2    43    40    1
     3    24    23    3
     4    42    40    1
     5    40    41    1
     6    40    33    1
     7    23    16    1
     8    36    32    1
     9    33    32   ar
    10    33    34   ar
    11    32    31   ar
    12    16    21   ar
    13    16    17   ar
    14    11    10    1
    15    21    20   ar
    16    10     9    3
    17    13    12    1
    18     9     1    1
    19     1     6   ar
    20     1     2   ar
    21     8     2    1
    22     6     5   ar
    23     2     3   ar
    24     5    17    1
    25     5     4   ar
    26    58    55    1
    27     3     4   ar
    28     3     7    1
    29    17    18   ar
    30     4    12    1
    31    54    53    1
    32    53    52    3
    33    34    45    1
    34    34    35   ar
    35    20    31    1
    36    20    19   ar
    37    52    44    1
    38    31    30   ar
    39    44    45   ar
    40    44    49   ar
    41    45    46   ar
    42    12    15    1
    43    12    14    1
    44    49    48   ar
    45    46    50    1
    46    46    47   ar
    47    48    51    1
    48    48    47   ar
    49    47    55    1
    50    55    56    1
    51    55    57    1
    52    18    19   ar
    53    18    22    1
    54    19    26    1
    55    35    30   ar
    56    30    37    1
    57    28    26    1
    58    26    29    1
    59    26    27    1
    60    37    38    3
    61    38    39    1
