@<TRIPOS>MOLECULE
mol_data/opt/cam/geoms/mol2/6ei6ei.out
 30 31 0 0 0
SMALL
GASTEIGER

@<TRIPOS>ATOM
      1 C          -4.3588   -1.7757   -1.1528 C.ar    1  LIG1        0.1138
      2 C          -3.3624   -2.2220   -0.2851 C.ar    1  LIG1       -0.0275
      3 C          -2.9920   -1.3997    0.7646 C.ar    1  LIG1       -0.0542
      4 C          -3.6185   -0.1720    0.9587 C.ar    1  LIG1       -0.0243
      5 C          -4.6361    0.1658    0.0488 C.ar    1  LIG1        0.0779
      6 N          -4.9768   -0.6013   -0.9870 N.ar    1  LIG1       -0.2381
      7 H          -2.1974   -1.7053    1.4390 H       1  LIG1        0.0622
      8 H          -2.8862   -3.1810   -0.4508 H       1  LIG1        0.0645
      9 C          -4.7526   -2.5789   -2.2784 C.1     1  LIG1       -0.0498
     10 C          -5.0599   -3.2729   -3.2115 C.1     1  LIG1       -0.1124
     11 H          -5.3445   -3.8779   -4.0414 H       1  LIG1        0.1232
     12 C          -3.1856    0.7407    2.0722 C.3     1  LIG1       -0.0377
     13 H          -3.8841    0.6977    2.9116 H       1  LIG1        0.0278
     14 H          -3.1405    1.7810    1.7418 H       1  LIG1        0.0278
     15 H          -2.1967    0.4560    2.4380 H       1  LIG1        0.0278
     16 C          -6.2213    1.8036    1.1952 C.ar    1  LIG1        0.1223
     17 C          -5.3759    1.4597    0.1271 C.ar    1  LIG1        0.0347
     18 C          -5.2765    2.3613   -0.9267 C.ar    1  LIG1       -0.0455
     19 C          -5.9566    3.5728   -0.8919 C.ar    1  LIG1       -0.0316
     20 C          -6.7359    3.8171    0.2388 C.ar    1  LIG1        0.0319
     21 N          -6.8811    2.9674    1.2469 N.ar    1  LIG1       -0.2458
     22 H          -4.6606    2.1000   -1.7821 H       1  LIG1        0.0628
     23 H          -7.2826    4.7546    0.3249 H       1  LIG1        0.0832
     24 C          -6.4652    0.8910    2.2805 C.1     1  LIG1       -0.0491
     25 C          -6.6853    0.1262    3.1830 C.1     1  LIG1       -0.1124
     26 H          -6.8951   -0.5492    3.9803 H       1  LIG1        0.1232
     27 C          -5.8669    4.5674   -2.0145 C.3     1  LIG1       -0.0383
     28 H          -6.4245    5.4770   -1.7818 H       1  LIG1        0.0278
     29 H          -6.2741    4.1526   -2.9414 H       1  LIG1        0.0278
     30 H          -4.8291    4.8501   -2.2132 H       1  LIG1        0.0278
@<TRIPOS>BOND
     1    11    10    1
     2    10     9    3
     3    29    27    1
     4     9     1    1
     5    30    27    1
     6    27    28    1
     7    27    19    1
     8    22    18    1
     9     1     6   ar
    10     1     2   ar
    11     6     5   ar
    12    18    19   ar
    13    18    17   ar
    14    19    20   ar
    15     8     2    1
    16     2     3   ar
    17     5    17    1
    18     5     4   ar
    19    17    16   ar
    20    20    23    1
    21    20    21   ar
    22     3     4   ar
    23     3     7    1
    24     4    12    1
    25    16    21   ar
    26    16    24    1
    27    14    12    1
    28    12    15    1
    29    12    13    1
    30    24    25    3
    31    25    26    1
