@<TRIPOS>MOLECULE
mol_data/opt/cam/geoms/mol2/6ei6ei-6ei-6ei.out
 58 61 0 0 0
SMALL
GASTEIGER

@<TRIPOS>ATOM
      1 C          -3.0144   -1.3400    0.9678 C.ar    1  LIG1        0.1138
      2 C          -3.0608   -2.2994   -0.0434 C.ar    1  LIG1       -0.0275
      3 C          -3.9039   -2.0779   -1.1182 C.ar    1  LIG1       -0.0542
      4 C          -4.6643   -0.9145   -1.1945 C.ar    1  LIG1       -0.0243
      5 C          -4.5149    0.0047   -0.1409 C.ar    1  LIG1        0.0779
      6 N          -3.7339   -0.2138    0.9171 N.ar    1  LIG1       -0.2381
      7 H          -3.9855   -2.8210   -1.9060 H       1  LIG1        0.0622
      8 H          -2.4614   -3.1987    0.0322 H       1  LIG1        0.0645
      9 C          -2.1805   -1.5427    2.1211 C.1     1  LIG1       -0.0498
     10 C          -1.4735   -1.7416    3.0737 C.1     1  LIG1       -0.1124
     11 H          -0.8498   -1.9025    3.9228 H       1  LIG1        0.1232
     12 C          -5.6133   -0.6938   -2.3395 C.3     1  LIG1       -0.0377
     13 H          -5.1930    0.0006   -3.0715 H       1  LIG1        0.0278
     14 H          -6.5603   -0.2697   -1.9973 H       1  LIG1        0.0278
     15 H          -5.8260   -1.6366   -2.8479 H       1  LIG1        0.0278
     16 C          -5.1166    2.3285   -1.0039 C.ar    1  LIG1        0.1230
     17 C          -5.2819    1.2836   -0.0851 C.ar    1  LIG1        0.0347
     18 C          -6.1912    1.4887    0.9469 C.ar    1  LIG1       -0.0449
     19 C          -6.9180    2.6667    1.0519 C.ar    1  LIG1       -0.0237
     20 C          -6.6705    3.6463    0.0738 C.ar    1  LIG1        0.0780
     21 N          -5.8075    3.4719   -0.9233 N.ar    1  LIG1       -0.2374
     22 H          -6.3338    0.7008    1.6799 H       1  LIG1        0.0628
     23 C          -4.1559    2.2484   -2.0718 C.1     1  LIG1       -0.0491
     24 C          -3.3438    2.1924   -2.9577 C.1     1  LIG1       -0.1124
     25 H          -2.6175    2.1570   -3.7371 H       1  LIG1        0.1232
     26 C          -7.9310    2.8477    2.1475 C.3     1  LIG1       -0.0377
     27 H          -8.1828    1.8864    2.5998 H       1  LIG1        0.0278
     28 H          -8.8510    3.3000    1.7693 H       1  LIG1        0.0278
     29 H          -7.5458    3.5029    2.9328 H       1  LIG1        0.0278
     30 C          -7.2664    5.9347    1.0261 C.ar    1  LIG1        0.1230
     31 C          -7.4025    4.9463    0.0423 C.ar    1  LIG1        0.0347
     32 C          -8.2463    5.2306   -1.0256 C.ar    1  LIG1       -0.0449
     33 C          -8.9374    6.4321   -1.1065 C.ar    1  LIG1       -0.0237
     34 C          -8.7221    7.3511   -0.0643 C.ar    1  LIG1        0.0780
     35 N          -7.9232    7.0992    0.9694 N.ar    1  LIG1       -0.2374
     36 H          -8.3675    4.4871   -1.8074 H       1  LIG1        0.0628
     37 C          -6.3737    5.7659    2.1413 C.1     1  LIG1       -0.0491
     38 C          -5.6166    5.6298    3.0663 C.1     1  LIG1       -0.1124
     39 H          -4.9367    5.5187    3.8797 H       1  LIG1        0.1232
     40 C          -9.8829    6.6964   -2.2449 C.3     1  LIG1       -0.0377
     41 H         -10.1368    5.7655   -2.7561 H       1  LIG1        0.0278
     42 H          -9.4366    7.3753   -2.9758 H       1  LIG1        0.0278
     43 H         -10.8091    7.1592   -1.8958 H       1  LIG1        0.0278
     44 C          -9.2143    9.6973   -0.9345 C.ar    1  LIG1        0.1223
     45 C          -9.4233    8.6672   -0.0020 C.ar    1  LIG1        0.0347
     46 C         -10.2909    8.9246    1.0532 C.ar    1  LIG1       -0.0455
     47 C         -10.9540   10.1426    1.1469 C.ar    1  LIG1       -0.0316
     48 C         -10.6926   11.0726    0.1411 C.ar    1  LIG1        0.0319
     49 N          -9.8475   10.8745   -0.8620 N.ar    1  LIG1       -0.2458
     50 H         -10.4387    8.1584    1.8085 H       1  LIG1        0.0628
     51 H         -11.1918   12.0399    0.1579 H       1  LIG1        0.0832
     52 C          -8.2597    9.5555   -2.0013 C.1     1  LIG1       -0.0491
     53 C          -7.4502    9.4438   -2.8844 C.1     1  LIG1       -0.1124
     54 H          -6.7254    9.3538   -3.6607 H       1  LIG1        0.1232
     55 C         -11.8981   10.4491    2.2749 C.3     1  LIG1       -0.0383
     56 H         -12.3565   11.4324    2.1498 H       1  LIG1        0.0278
     57 H         -11.3774   10.4423    3.2371 H       1  LIG1        0.0278
     58 H         -12.7010    9.7086    2.3342 H       1  LIG1        0.0278
@<TRIPOS>BOND
     1    25    24    1
     2    54    53    1
     3    13    12    1
     4    42    40    1
     5    24    23    3
     6    53    52    3
     7    15    12    1
     8    41    40    1
     9    12    14    1
    10    12     4    1
    11    40    43    1
    12    40    33    1
    13    23    16    1
    14    52    44    1
    15     7     3    1
    16    36    32    1
    17     4     3   ar
    18     4     5   ar
    19     3     2   ar
    20    33    32   ar
    21    33    34   ar
    22    32    31   ar
    23    16    21   ar
    24    16    17   ar
    25    44    49   ar
    26    44    45   ar
    27    21    20   ar
    28    49    48   ar
    29     5    17    1
    30     5     6   ar
    31    17    18   ar
    32    34    45    1
    33    34    35   ar
    34     2     8    1
    35     2     1   ar
    36    45    46   ar
    37    31    20    1
    38    31    30   ar
    39    20    19   ar
    40    48    51    1
    41    48    47   ar
    42     6     1   ar
    43    18    19   ar
    44    18    22    1
    45     1     9    1
    46    35    30   ar
    47    30    37    1
    48    19    26    1
    49    46    47   ar
    50    46    50    1
    51    47    55    1
    52    28    26    1
    53     9    10    3
    54    37    38    3
    55    26    27    1
    56    26    29    1
    57    56    55    1
    58    55    58    1
    59    55    57    1
    60    38    39    1
    61    10    11    1
