@<TRIPOS>MOLECULE
mol_data/opt/cam/geoms/mol2/6ei6ei6ei6ei-.out
 58 61 0 0 0
SMALL
GASTEIGER

@<TRIPOS>ATOM
      1 C          -2.3067   -0.6080   -0.8030 C.ar    1  LIG1        0.1138
      2 C          -2.5905   -1.9317   -0.4672 C.ar    1  LIG1       -0.0275
      3 C          -3.8538   -2.2287    0.0132 C.ar    1  LIG1       -0.0542
      4 C          -4.8198   -1.2333    0.1321 C.ar    1  LIG1       -0.0243
      5 C          -4.4421    0.0602   -0.2696 C.ar    1  LIG1        0.0779
      6 N          -3.2173    0.3657   -0.6994 N.ar    1  LIG1       -0.2381
      7 H          -4.0952   -3.2441    0.3134 H       1  LIG1        0.0622
      8 H          -1.8270   -2.6938   -0.5667 H       1  LIG1        0.0645
      9 C          -0.9973   -0.2443   -1.2721 C.1     1  LIG1       -0.0498
     10 C           0.1078    0.0289   -1.6609 C.1     1  LIG1       -0.1124
     11 H           1.0820    0.2853   -2.0086 H       1  LIG1        0.1232
     12 C          -6.1768   -1.5497    0.6969 C.3     1  LIG1       -0.0377
     13 H          -6.9198   -1.6572   -0.0974 H       1  LIG1        0.0278
     14 H          -6.5283   -0.7583    1.3629 H       1  LIG1        0.0278
     15 H          -6.1471   -2.4834    1.2625 H       1  LIG1        0.0278
     16 C          -6.5540    1.3359   -0.9189 C.ar    1  LIG1        0.1230
     17 C          -5.3694    1.2249   -0.1781 C.ar    1  LIG1        0.0347
     18 C          -5.0244    2.3081    0.6229 C.ar    1  LIG1       -0.0449
     19 C          -5.8500    3.4178    0.7408 C.ar    1  LIG1       -0.0237
     20 C          -7.0509    3.3865    0.0099 C.ar    1  LIG1        0.0780
     21 N          -7.3670    2.3936   -0.8176 N.ar    1  LIG1       -0.2374
     22 H          -4.0761    2.2823    1.1504 H       1  LIG1        0.0628
     23 C          -6.9369    0.3378   -1.8816 C.1     1  LIG1       -0.0491
     24 C          -7.2533   -0.4854   -2.7001 C.1     1  LIG1       -0.1124
     25 H          -7.5361   -1.2051   -3.4336 H       1  LIG1        0.1232
     26 C          -5.4368    4.5923    1.5831 C.3     1  LIG1       -0.0377
     27 H          -5.9562    4.5907    2.5447 H       1  LIG1        0.0278
     28 H          -5.6708    5.5383    1.0893 H       1  LIG1        0.0278
     29 H          -4.3623    4.5644    1.7756 H       1  LIG1        0.0278
     30 C          -8.7467    4.8902    1.1792 C.ar    1  LIG1        0.1230
     31 C          -8.0340    4.5078    0.0352 C.ar    1  LIG1        0.0347
     32 C          -8.3007    5.2066   -1.1375 C.ar    1  LIG1       -0.0449
     33 C          -9.2164    6.2492   -1.1700 C.ar    1  LIG1       -0.0237
     34 C          -9.8737    6.5454    0.0376 C.ar    1  LIG1        0.0780
     35 N          -9.6337    5.8925    1.1715 N.ar    1  LIG1       -0.2374
     36 H          -7.7697    4.9271   -2.0421 H       1  LIG1        0.0628
     37 C          -8.5974    4.1935    2.4292 C.1     1  LIG1       -0.0491
     38 C          -8.4883    3.6066    3.4739 C.1     1  LIG1       -0.1124
     39 H          -8.4073    3.0868    4.4008 H       1  LIG1        0.1232
     40 C          -9.4512    7.0234   -2.4368 C.3     1  LIG1       -0.0377
     41 H          -9.5036    8.0978   -2.2445 H       1  LIG1        0.0278
     42 H         -10.3943    6.7313   -2.9055 H       1  LIG1        0.0278
     43 H          -8.6459    6.8422   -3.1514 H       1  LIG1        0.0278
     44 C         -12.0992    7.6682   -0.4986 C.ar    1  LIG1        0.1223
     45 C         -10.8570    7.6618    0.1581 C.ar    1  LIG1        0.0347
     46 C         -10.5699    8.7329    0.9963 C.ar    1  LIG1       -0.0455
     47 C         -11.4673    9.7849    1.1374 C.ar    1  LIG1       -0.0316
     48 C         -12.6522    9.6947    0.4076 C.ar    1  LIG1        0.0319
     49 N         -12.9739    8.6743   -0.3765 N.ar    1  LIG1       -0.2458
     50 H          -9.6325    8.7326    1.5447 H       1  LIG1        0.0628
     51 H         -13.3878   10.4946    0.4724 H       1  LIG1        0.0832
     52 C         -12.5199    6.5567   -1.3091 C.1     1  LIG1       -0.0491
     53 C         -12.8780    5.6213   -1.9757 C.1     1  LIG1       -0.1124
     54 H         -13.2040    4.7904   -2.5583 H       1  LIG1        0.1232
     55 C         -11.1832   10.9572    2.0333 C.3     1  LIG1       -0.0383
     56 H         -10.2514   11.4563    1.7517 H       1  LIG1        0.0278
     57 H         -11.0808   10.6412    3.0757 H       1  LIG1        0.0278
     58 H         -11.9870   11.6950    1.9848 H       1  LIG1        0.0278
@<TRIPOS>BOND
     1    25    24    1
     2    43    40    1
     3    42    40    1
     4    24    23    3
     5    54    53    1
     6    40    41    1
     7    40    33    1
     8    36    32    1
     9    11    10    1
    10    53    52    3
    11    23    16    1
    12    10     9    3
    13    52    44    1
    14     9     1    1
    15    33    32   ar
    16    33    34   ar
    17    32    31   ar
    18    16    21   ar
    19    16    17   ar
    20    21    20   ar
    21     1     6   ar
    22     1     2   ar
    23     6     5   ar
    24     8     2    1
    25    44    49   ar
    26    44    45   ar
    27     2     3   ar
    28    49    48   ar
    29     5    17    1
    30     5     4   ar
    31    17    18   ar
    32    13    12    1
    33    20    31    1
    34    20    19   ar
    35     3     4   ar
    36     3     7    1
    37    31    30   ar
    38    34    45    1
    39    34    35   ar
    40     4    12    1
    41    45    46   ar
    42    48    51    1
    43    48    47   ar
    44    18    19   ar
    45    18    22    1
    46    12    15    1
    47    12    14    1
    48    19    26    1
    49    46    47   ar
    50    46    50    1
    51    28    26    1
    52    47    55    1
    53    35    30   ar
    54    30    37    1
    55    26    29    1
    56    26    27    1
    57    56    55    1
    58    58    55    1
    59    55    57    1
    60    37    38    3
    61    38    39    1
