@<TRIPOS>MOLECULE
mol_data/opt/cam/geoms/mol2/6ei6ei-4ei6ei.out
 59 62 0 0 0
SMALL
GASTEIGER

@<TRIPOS>ATOM
      1 C          -4.4746   -2.2178    0.4339 C.ar    1  LIG1        0.1138
      2 C          -3.2367   -2.4095   -0.1792 C.ar    1  LIG1       -0.0275
      3 C          -2.6284   -1.3213   -0.7801 C.ar    1  LIG1       -0.0542
      4 C          -3.2520   -0.0769   -0.7913 C.ar    1  LIG1       -0.0243
      5 C          -4.5160   -0.0010   -0.1789 C.ar    1  LIG1        0.0779
      6 N          -5.0952   -1.0333    0.4350 N.ar    1  LIG1       -0.2381
      7 H          -1.6495   -1.4310   -1.2375 H       1  LIG1        0.0622
      8 H          -2.7661   -3.3853   -0.1614 H       1  LIG1        0.0645
      9 C          -5.1286   -3.3095    1.1029 C.1     1  LIG1       -0.0498
     10 C          -5.6503   -4.2421    1.6552 C.1     1  LIG1       -0.1124
     11 H          -6.1256   -5.0596    2.1467 H       1  LIG1        0.1232
     12 C          -2.5693    1.1150   -1.4025 C.3     1  LIG1       -0.0377
     13 H          -2.7075    2.0111   -0.7932 H       1  LIG1        0.0278
     14 H          -2.9717    1.3338   -2.3947 H       1  LIG1        0.0278
     15 H          -1.4973    0.9318   -1.5028 H       1  LIG1        0.0278
     16 C          -5.7807    1.9537   -1.2229 C.ar    1  LIG1        0.1230
     17 C          -5.2865    1.2737   -0.1017 C.ar    1  LIG1        0.0347
     18 C          -5.6084    1.8003    1.1447 C.ar    1  LIG1       -0.0449
     19 C          -6.3221    2.9838    1.2716 C.ar    1  LIG1       -0.0237
     20 C          -6.7006    3.6221    0.0763 C.ar    1  LIG1        0.0765
     21 N          -6.4662    3.0986   -1.1242 N.ar    1  LIG1       -0.2375
     22 H          -5.3035    1.2554    2.0327 H       1  LIG1        0.0628
     23 C          -5.6280    1.4253   -2.5525 C.1     1  LIG1       -0.0491
     24 C          -5.5173    0.9794   -3.6646 C.1     1  LIG1       -0.1124
     25 H          -5.4326    0.5868   -4.6518 H       1  LIG1        0.1232
     26 C          -6.6904    3.5124    2.6298 C.3     1  LIG1       -0.0377
     27 H          -6.6111    2.7236    3.3808 H       1  LIG1        0.0278
     28 H          -7.7132    3.8961    2.6424 H       1  LIG1        0.0278
     29 H          -6.0317    4.3330    2.9255 H       1  LIG1        0.0278
     30 C          -6.9479    6.1073    0.5541 C.ar    1  LIG1        0.0344
     31 C          -7.7349    7.2621    0.4893 C.ar    1  LIG1       -0.0376
     32 C          -7.4701    4.9015    0.0621 C.ar    1  LIG1        0.0163
     33 C          -9.0111    7.2497   -0.0590 C.ar    1  LIG1       -0.0111
     34 H          -7.3235    8.1940    0.8615 H       1  LIG1        0.0636
     35 C          -8.7460    4.9046   -0.4947 C.ar    1  LIG1       -0.0479
     36 C          -9.5358    6.0476   -0.5642 C.ar    1  LIG1       -0.0420
     37 H          -9.1323    3.9707   -0.8898 H       1  LIG1        0.0627
     38 C          -5.6179    6.2079    1.0777 C.1     1  LIG1       -0.0690
     39 C          -4.5025    6.3303    1.5153 C.1     1  LIG1       -0.1139
     40 H          -3.5107    6.4356    1.8905 H       1  LIG1        0.1232
     41 C         -10.9145    5.9763   -1.1625 C.3     1  LIG1       -0.0391
     42 H         -11.2171    4.9390   -1.3166 H       1  LIG1        0.0278
     43 H         -10.9453    6.4851   -2.1299 H       1  LIG1        0.0278
     44 H         -11.6563    6.4574   -0.5193 H       1  LIG1        0.0278
     45 C         -10.0461    9.2497   -1.2392 C.ar    1  LIG1        0.1208
     46 C          -9.7961    8.5165   -0.0640 C.ar    1  LIG1        0.0165
     47 C         -10.2869    9.0402    1.1272 C.ar    1  LIG1       -0.0470
     48 C         -11.0077   10.2305    1.1413 C.ar    1  LIG1       -0.0317
     49 C         -11.2012   10.8552   -0.0891 C.ar    1  LIG1        0.0319
     50 N         -10.7384   10.3942   -1.2446 N.ar    1  LIG1       -0.2458
     51 H         -10.1038    8.5027    2.0538 H       1  LIG1        0.0628
     52 H         -11.7614   11.7872   -0.1393 H       1  LIG1        0.0832
     53 C          -9.5387    8.8014   -2.5081 C.1     1  LIG1       -0.0492
     54 C          -9.1098    8.4225   -3.5662 C.1     1  LIG1       -0.1124
     55 H          -8.7243    8.0925   -4.5035 H       1  LIG1        0.1232
     56 C         -11.5510   10.8151    2.4144 C.3     1  LIG1       -0.0383
     57 H         -12.0962   11.7415    2.2219 H       1  LIG1        0.0278
     58 H         -10.7472   11.0403    3.1218 H       1  LIG1        0.0278
     59 H         -12.2350   10.1201    2.9103 H       1  LIG1        0.0278
@<TRIPOS>BOND
     1    25    24    1
     2    55    54    1
     3    24    23    3
     4    54    53    3
     5    23    16    1
     6    53    45    1
     7    14    12    1
     8    43    41    1
     9    15    12    1
    10    12    13    1
    11    12     4    1
    12    42    41    1
    13    50    45   ar
    14    50    49   ar
    15    45    46   ar
    16     7     3    1
    17    16    21   ar
    18    16    17   ar
    19    41    36    1
    20    41    44    1
    21    21    20   ar
    22    37    35    1
    23     4     3   ar
    24     4     5   ar
    25     3     2   ar
    26    36    35   ar
    27    36    33   ar
    28    35    32   ar
    29     2     8    1
    30     2     1   ar
    31     5    17    1
    32     5     6   ar
    33    52    49    1
    34    17    18   ar
    35    49    48   ar
    36    46    33    1
    37    46    47   ar
    38    33    31   ar
    39    32    20    1
    40    32    30   ar
    41    20    19   ar
    42     1     6   ar
    43     1     9    1
    44    31    30   ar
    45    31    34    1
    46    30    38    1
    47    38    39    3
    48     9    10    3
    49    47    48   ar
    50    47    51    1
    51    48    56    1
    52    18    19   ar
    53    18    22    1
    54    19    26    1
    55    39    40    1
    56    10    11    1
    57    57    56    1
    58    56    59    1
    59    56    58    1
    60    26    28    1
    61    26    29    1
    62    26    27    1
