@<TRIPOS>MOLECULE
mol_data/opt/cam/geoms/mol2/6ei6ei6ei-6ei.out
 58 61 0 0 0
SMALL
GASTEIGER

@<TRIPOS>ATOM
      1 C          -3.1821   -1.3313   -1.4145 C.ar    1  LIG1        0.1138
      2 C          -2.9246   -2.1964   -0.3512 C.ar    1  LIG1       -0.0275
      3 C          -3.4965   -1.9133    0.8768 C.ar    1  LIG1       -0.0542
      4 C          -4.3262   -0.8067    1.0339 C.ar    1  LIG1       -0.0243
      5 C          -4.5504   -0.0211   -0.1106 C.ar    1  LIG1        0.0779
      6 N          -3.9765   -0.2628   -1.2893 N.ar    1  LIG1       -0.2381
      7 H          -3.2897   -2.5506    1.7315 H       1  LIG1        0.0622
      8 H          -2.2769   -3.0534   -0.4919 H       1  LIG1        0.0645
      9 C          -2.5818   -1.5645   -2.6998 C.1     1  LIG1       -0.0498
     10 C          -2.0643   -1.7859   -3.7628 C.1     1  LIG1       -0.1124
     11 H          -1.6148   -1.9706   -4.7113 H       1  LIG1        0.1232
     12 C          -4.9122   -0.4739    2.3778 C.3     1  LIG1       -0.0377
     13 H          -5.9605   -0.7775    2.4368 H       1  LIG1        0.0278
     14 H          -4.8744    0.6000    2.5751 H       1  LIG1        0.0278
     15 H          -4.3645   -0.9859    3.1719 H       1  LIG1        0.0278
     16 C          -6.7832    1.1825    0.1597 C.ar    1  LIG1        0.1230
     17 C          -5.4030    1.2033   -0.0815 C.ar    1  LIG1        0.0347
     18 C          -4.8263    2.4419   -0.3404 C.ar    1  LIG1       -0.0449
     19 C          -5.5788    3.6084   -0.3403 C.ar    1  LIG1       -0.0237
     20 C          -6.9546    3.4678   -0.0859 C.ar    1  LIG1        0.0780
     21 N          -7.5280    2.2944    0.1664 N.ar    1  LIG1       -0.2374
     22 H          -3.7603    2.4887   -0.5405 H       1  LIG1        0.0628
     23 C          -7.4923   -0.0508    0.3740 C.1     1  LIG1       -0.0491
     24 C          -8.0926   -1.0802    0.5395 C.1     1  LIG1       -0.1124
     25 H          -8.6346   -1.9882    0.6734 H       1  LIG1        0.1232
     26 C          -4.9262    4.9421   -0.5747 C.3     1  LIG1       -0.0377
     27 H          -5.3004    5.6970    0.1211 H       1  LIG1        0.0278
     28 H          -5.1272    5.3041   -1.5860 H       1  LIG1        0.0278
     29 H          -3.8442    4.8670   -0.4491 H       1  LIG1        0.0278
     30 C          -8.1937    5.4366   -1.1288 C.ar    1  LIG1        0.1230
     31 C          -7.8786    4.6379   -0.0214 C.ar    1  LIG1        0.0347
     32 C          -8.4982    4.9549    1.1822 C.ar    1  LIG1       -0.0449
     33 C          -9.3766    6.0249    1.2882 C.ar    1  LIG1       -0.0237
     34 C          -9.6209    6.7551    0.1117 C.ar    1  LIG1        0.0780
     35 N          -9.0363    6.4731   -1.0498 N.ar    1  LIG1       -0.2374
     36 H          -8.2794    4.3504    2.0570 H       1  LIG1        0.0628
     37 C          -7.6539    5.1583   -2.4327 C.1     1  LIG1       -0.0491
     38 C          -7.2128    4.9170   -3.5258 C.1     1  LIG1       -0.1124
     39 H          -6.8353    4.6982   -4.4983 H       1  LIG1        0.1232
     40 C          -9.9957    6.3790    2.6115 C.3     1  LIG1       -0.0377
     41 H          -9.4506    5.9031    3.4292 H       1  LIG1        0.0278
     42 H         -11.0364    6.0488    2.6585 H       1  LIG1        0.0278
     43 H          -9.9904    7.4588    2.7790 H       1  LIG1        0.0278
     44 C         -11.8996    7.8825    0.3129 C.ar    1  LIG1        0.1223
     45 C         -10.5149    7.9499    0.0839 C.ar    1  LIG1        0.0347
     46 C          -9.9778    9.1921   -0.2337 C.ar    1  LIG1       -0.0455
     47 C         -10.7829   10.3243   -0.2769 C.ar    1  LIG1       -0.0316
     48 C         -12.1359   10.1370    0.0043 C.ar    1  LIG1        0.0319
     49 N         -12.6890    8.9632    0.2794 N.ar    1  LIG1       -0.2458
     50 H          -8.9166    9.2631   -0.4535 H       1  LIG1        0.0628
     51 H         -12.8119   10.9904   -0.0049 H       1  LIG1        0.0832
     52 C         -12.5563    6.6247    0.5496 C.1     1  LIG1       -0.0491
     53 C         -13.1087    5.5716    0.7321 C.1     1  LIG1       -0.1124
     54 H         -13.6037    4.6396    0.8818 H       1  LIG1        0.1232
     55 C         -10.2309   11.6800   -0.6162 C.3     1  LIG1       -0.0383
     56 H         -11.0040   12.4485   -0.5515 H       1  LIG1        0.0278
     57 H          -9.8256   11.6972   -1.6323 H       1  LIG1        0.0278
     58 H          -9.4199   11.9605    0.0622 H       1  LIG1        0.0278
@<TRIPOS>BOND
     1    11    10    1
     2    39    38    1
     3    10     9    3
     4    38    37    3
     5     9     1    1
     6    37    30    1
     7    57    55    1
     8    28    26    1
     9     1     6   ar
    10     1     2   ar
    11     6     5   ar
    12    30    35   ar
    13    30    31   ar
    14    35    34   ar
    15    55    56    1
    16    55    47    1
    17    55    58    1
    18    26    29    1
    19    26    19    1
    20    26    27    1
    21    22    18    1
    22     8     2    1
    23    50    46    1
    24     2     3   ar
    25    18    19   ar
    26    18    17   ar
    27    19    20   ar
    28    47    46   ar
    29    47    48   ar
    30    46    45   ar
    31     5    17    1
    32     5     4   ar
    33    20    31    1
    34    20    21   ar
    35    17    16   ar
    36    31    32   ar
    37    51    48    1
    38    48    49   ar
    39    45    34    1
    40    45    44   ar
    41    34    33   ar
    42    16    21   ar
    43    16    23    1
    44    49    44   ar
    45    44    52    1
    46    23    24    3
    47    24    25    1
    48    52    53    3
    49    53    54    1
    50     3     4   ar
    51     3     7    1
    52     4    12    1
    53    32    33   ar
    54    32    36    1
    55    33    40    1
    56    12    13    1
    57    12    14    1
    58    12    15    1
    59    40    42    1
    60    40    43    1
    61    40    41    1
