@<TRIPOS>MOLECULE
mol_data/opt/cam/geoms/mol2/6el13ah-6hd12il-.out
 53 56 0 0 0
SMALL
GASTEIGER

@<TRIPOS>ATOM
      1 C          -4.6298   -2.0590    0.6406 C.ar    1  LIG1        0.1141
      2 C          -3.2506   -2.1972    0.7598 C.ar    1  LIG1       -0.0243
      3 C          -2.4468   -1.0817    0.5620 C.ar    1  LIG1       -0.0151
      4 C          -3.0369    0.1348    0.2521 C.ar    1  LIG1        0.1475
      5 C          -4.4461    0.1953    0.1487 C.ar    1  LIG1        0.1300
      6 N          -5.2010   -0.8859    0.3415 N.ar    1  LIG1       -0.2333
      7 H          -1.3719   -1.1714    0.6513 H       1  LIG1        0.0656
      8 H          -2.8183   -3.1600    1.0026 H       1  LIG1        0.0646
      9 C          -5.4962   -3.1880    0.8372 C.1     1  LIG1       -0.0498
     10 C          -6.2004   -4.1486    1.0062 C.1     1  LIG1       -0.1124
     11 H          -6.8342   -4.9922    1.1562 H       1  LIG1        0.1232
     12 O          -2.3556    1.2841    0.0376 O.3     1  LIG1       -0.4929
     13 C          -0.9464    1.2606    0.1537 C.3     1  LIG1        0.0789
     14 H          -0.6101    2.2774   -0.0446 H       1  LIG1        0.0660
     15 H          -0.6329    0.9671    1.1615 H       1  LIG1        0.0660
     16 H          -0.4952    0.5821   -0.5788 H       1  LIG1        0.0660
     17 C          -5.1779    1.4181   -0.1647 C.ar    1  LIG1        0.0708
     18 C          -4.8098    2.7223   -0.4564 C.ar    1  LIG1       -0.0135
     19 C          -5.9945    3.4600   -0.6661 C.ar    1  LIG1        0.0509
     20 C          -7.0702    2.5920   -0.4991 C.ar    1  LIG1        0.0712
     21 N          -6.5381    1.3536   -0.2122 N.ar    1  LIG1       -0.3513
     22 H          -7.0436    0.5174    0.0450 H       1  LIG1        0.1660
     23 H          -3.8006    3.0942   -0.5171 H       1  LIG1        0.0658
     24 N          -6.0745    4.8325   -0.9485 N.pl3   1  LIG1       -0.3563
     25 H          -5.1959    5.2065   -1.2816 H       1  LIG1        0.1424
     26 H          -6.8110    5.0623   -1.6048 H       1  LIG1        0.1424
     27 C          -9.4560    1.8938   -0.9855 C.ar    1  LIG1        0.1263
     28 C          -8.5035    2.8593   -0.5490 C.ar    1  LIG1        0.0409
     29 C          -9.0169    4.0902   -0.1797 C.ar    1  LIG1       -0.0297
     30 C         -10.3966    4.3359   -0.2115 C.ar    1  LIG1        0.0815
     31 C         -11.2518    3.2862   -0.5801 C.ar    1  LIG1        0.1257
     32 N         -10.7658    2.1060   -0.9738 N.ar    1  LIG1       -0.2274
     33 H          -8.3417    4.8755    0.1420 H       1  LIG1        0.0639
     34 N          -9.0582    0.6477   -1.4072 N.pl3   1  LIG1       -0.3426
     35 H          -9.8012    0.1166   -1.8384 H       1  LIG1        0.1437
     36 H          -8.1539    0.5742   -1.8497 H       1  LIG1        0.1437
     37 N         -11.2269    6.7378    0.2701 N.1     1  LIG1       -0.1908
     38 C         -10.8729    5.6552    0.0617 C.1     1  LIG1        0.1014
     39 C         -12.7096    3.4159   -0.5802 C.ar    1  LIG1        0.1608
     40 C         -13.6085    3.9679    0.2902 C.ar    1  LIG1        0.0385
     41 C         -14.8933    3.6783   -0.2793 C.ar    1  LIG1        0.1612
     42 C         -14.6827    2.9806   -1.4236 C.ar    1  LIG1        0.1344
     43 O         -13.3568    2.8035   -1.6135 O.2     1  LIG1       -0.4573
     44 H         -15.3463    2.5543   -2.1581 H       1  LIG1        0.1068
     45 C         -13.3946    4.6302    1.6117 C.3     1  LIG1       -0.0326
     46 H         -14.2330    4.3958    2.2726 H       1  LIG1        0.0280
     47 H         -13.3211    5.7172    1.5189 H       1  LIG1        0.0280
     48 H         -12.4742    4.2858    2.0879 H       1  LIG1        0.0280
     49 O         -16.1020    3.9827    0.2698 O.3     1  LIG1       -0.4917
     50 C         -16.4652    5.3514    0.1517 C.3     1  LIG1        0.0789
     51 H         -17.4370    5.4600    0.6347 H       1  LIG1        0.0660
     52 H         -15.7412    6.0067    0.6481 H       1  LIG1        0.0660
     53 H         -16.5451    5.6466   -0.9006 H       1  LIG1        0.0660
@<TRIPOS>BOND
     1    44    42    1
     2    36    34    1
     3    35    34    1
     4    43    42   ar
     5    43    39   ar
     6    26    24    1
     7    42    41   ar
     8    34    27    1
     9    25    24    1
    10    27    32   ar
    11    27    28   ar
    12    32    31   ar
    13    24    19    1
    14    53    50    1
    15    19    20   ar
    16    19    18   ar
    17    39    31    1
    18    39    40   ar
    19    31    30   ar
    20    16    13    1
    21    28    20    1
    22    28    29   ar
    23    23    18    1
    24    20    21   ar
    25    18    17   ar
    26    41    49    1
    27    41    40   ar
    28    21    17   ar
    29    21    22    1
    30    30    29   ar
    31    30    38    1
    32    29    33    1
    33    17     5    1
    34    14    13    1
    35    12    13    1
    36    12     4    1
    37    38    37    3
    38     5     4   ar
    39     5     6   ar
    40    50    49    1
    41    50    51    1
    42    50    52    1
    43    13    15    1
    44     4     3   ar
    45    40    45    1
    46     6     1   ar
    47     3     7    1
    48     3     2   ar
    49     1     2   ar
    50     1     9    1
    51     2     8    1
    52     9    10    3
    53    10    11    1
    54    47    45    1
    55    45    48    1
    56    45    46    1
