@<TRIPOS>MOLECULE
mol_data/opt/cam/geoms/mol2/6el12ih-4aa-12hi-.out
 51 54 0 0 0
SMALL
GASTEIGER

@<TRIPOS>ATOM
      1 C          -4.1134   -2.1092    0.7822 C.ar    1  LIG1        0.1142
      2 C          -2.8637   -2.1363    0.1672 C.ar    1  LIG1       -0.0243
      3 C          -2.3990   -0.9888   -0.4576 C.ar    1  LIG1       -0.0151
      4 C          -3.1901    0.1531   -0.4430 C.ar    1  LIG1        0.1491
      5 C          -4.4287    0.1083    0.2360 C.ar    1  LIG1        0.1491
      6 N          -4.8683   -1.0050    0.8149 N.ar    1  LIG1       -0.2316
      7 H          -1.4402   -0.9985   -0.9599 H       1  LIG1        0.0656
      8 H          -2.2737   -3.0449    0.1735 H       1  LIG1        0.0646
      9 C          -4.6317   -3.2890    1.4188 C.1     1  LIG1       -0.0498
     10 C          -5.0382   -4.2928    1.9425 C.1     1  LIG1       -0.1124
     11 H          -5.4146   -5.1722    2.4119 H       1  LIG1        0.1232
     12 O          -2.8658    1.3132   -1.0622 O.3     1  LIG1       -0.4929
     13 C          -1.6628    1.3639   -1.8018 C.3     1  LIG1        0.0789
     14 H          -1.6175    2.3620   -2.2358 H       1  LIG1        0.0660
     15 H          -0.7874    1.2102   -1.1604 H       1  LIG1        0.0660
     16 H          -1.6555    0.6200   -2.6064 H       1  LIG1        0.0660
     17 C          -5.3185    1.2738    0.3009 C.ar    1  LIG1        0.1621
     18 C          -5.1238    2.6068    0.5315 C.ar    1  LIG1        0.0183
     19 C          -6.4279    3.1958    0.5113 C.ar    1  LIG1        0.0746
     20 C          -7.3241    2.1815    0.2963 C.ar    1  LIG1        0.1565
     21 O          -6.6392    1.0069    0.1631 O.2     1  LIG1       -0.4510
     22 C          -3.8604    3.3517    0.8179 C.3     1  LIG1       -0.0343
     23 H          -4.0261    4.0840    1.6144 H       1  LIG1        0.0279
     24 H          -3.4925    3.8884   -0.0635 H       1  LIG1        0.0279
     25 H          -3.0647    2.6807    1.1407 H       1  LIG1        0.0279
     26 N          -6.6873    4.5554    0.7174 N.pl3   1  LIG1       -0.3548
     27 H          -5.9071    5.1400    0.4471 H       1  LIG1        0.1424
     28 H          -7.5281    4.8716    0.2515 H       1  LIG1        0.1424
     29 C          -9.5842    3.1548    0.6590 C.ar    1  LIG1       -0.0504
     30 C         -10.9611    3.1128    0.4977 C.ar    1  LIG1       -0.0504
     31 C          -8.7685    2.1337    0.1563 C.ar    1  LIG1        0.0192
     32 C         -11.5754    2.0476   -0.1721 C.ar    1  LIG1        0.0191
     33 H         -11.5707    3.8885    0.9486 H       1  LIG1        0.0625
     34 C          -9.3887    1.0488   -0.4810 C.ar    1  LIG1       -0.0504
     35 C         -10.7599    1.0076   -0.6421 C.ar    1  LIG1       -0.0504
     36 H          -8.7738    0.2371   -0.8523 H       1  LIG1        0.0625
     37 H          -9.1449    3.9610    1.2366 H       1  LIG1        0.0625
     38 H         -11.2206    0.1639   -1.1430 H       1  LIG1        0.0625
     39 C         -13.0143    2.0090   -0.3658 C.ar    1  LIG1        0.1556
     40 C         -13.9936    2.9663   -0.3608 C.ar    1  LIG1        0.0739
     41 C         -15.2358    2.2975   -0.6302 C.ar    1  LIG1        0.0086
     42 C         -14.9113    0.9907   -0.7886 C.ar    1  LIG1        0.0973
     43 O         -13.5854    0.7904   -0.6406 O.2     1  LIG1       -0.4608
     44 H         -15.5063    0.1158   -1.0013 H       1  LIG1        0.1033
     45 N         -13.8619    4.3381   -0.1213 N.pl3   1  LIG1       -0.3548
     46 H         -12.9751    4.7125   -0.4342 H       1  LIG1        0.1424
     47 H         -14.6221    4.8751   -0.5177 H       1  LIG1        0.1424
     48 C         -16.5843    2.9345   -0.7141 C.3     1  LIG1       -0.0350
     49 H         -17.3543    2.1941   -0.9409 H       1  LIG1        0.0279
     50 H         -16.6248    3.6971   -1.5007 H       1  LIG1        0.0279
     51 H         -16.8570    3.4217    0.2276 H       1  LIG1        0.0279
@<TRIPOS>BOND
     1    16    13    1
     2    14    13    1
     3    13    15    1
     4    13    12    1
     5    50    48    1
     6    38    35    1
     7    12     4    1
     8    44    42    1
     9     7     3    1
    10    49    48    1
    11    36    34    1
    12    42    43   ar
    13    42    41   ar
    14    48    41    1
    15    48    51    1
    16    35    34   ar
    17    35    32   ar
    18    43    39   ar
    19    41    40   ar
    20    47    45    1
    21    34    31   ar
    22     3     4   ar
    23     3     2   ar
    24     4     5   ar
    25    46    45    1
    26    39    40   ar
    27    39    32    1
    28    40    45    1
    29    32    30   ar
    30    24    22    1
    31    31    20    1
    32    31    29   ar
    33    21    20   ar
    34    21    17   ar
    35     2     8    1
    36     2     1   ar
    37     5    17    1
    38     5     6   ar
    39    28    26    1
    40    20    19   ar
    41    17    18   ar
    42    27    26    1
    43    30    29   ar
    44    30    33    1
    45    19    18   ar
    46    19    26    1
    47    18    22    1
    48    29    37    1
    49     1     6   ar
    50     1     9    1
    51    22    25    1
    52    22    23    1
    53     9    10    3
    54    10    11    1
