@<TRIPOS>MOLECULE
mol_data/opt/cam/geoms/mol2/6el6el6el6el.out
 62 65 0 0 0
SMALL
GASTEIGER

@<TRIPOS>ATOM
      1 C          -3.4895   -1.3940   -2.0642 C.ar    1  LIG1        0.1141
      2 C          -2.8041   -2.0908   -1.0720 C.ar    1  LIG1       -0.0243
      3 C          -2.9019   -1.6627    0.2436 C.ar    1  LIG1       -0.0152
      4 C          -3.6827   -0.5494    0.5290 C.ar    1  LIG1        0.1461
      5 C          -4.3494    0.0955   -0.5340 C.ar    1  LIG1        0.1166
      6 N          -4.2449   -0.3227   -1.7869 N.ar    1  LIG1       -0.2347
      7 H          -2.3780   -2.1963    1.0263 H       1  LIG1        0.0656
      8 H          -2.2037   -2.9544   -1.3319 H       1  LIG1        0.0646
      9 C          -3.4022   -1.8109   -3.4361 C.1     1  LIG1       -0.0498
     10 C          -3.3077   -2.1840   -4.5758 C.1     1  LIG1       -0.1124
     11 H          -3.2362   -2.5022   -5.5903 H       1  LIG1        0.1232
     12 O          -3.8592   -0.0307    1.7675 O.3     1  LIG1       -0.4930
     13 C          -3.2816   -0.7091    2.8659 C.3     1  LIG1        0.0789
     14 H          -3.5821   -0.1549    3.7541 H       1  LIG1        0.0660
     15 H          -3.6521   -1.7374    2.9397 H       1  LIG1        0.0660
     16 H          -2.1876   -0.7227    2.8014 H       1  LIG1        0.0660
     17 C          -6.5519    1.3214   -0.6817 C.ar    1  LIG1        0.1233
     18 C          -5.2061    1.2883   -0.2924 C.ar    1  LIG1        0.0413
     19 C          -4.6727    2.4270    0.3051 C.ar    1  LIG1       -0.0059
     20 C          -5.4650    3.5515    0.4757 C.ar    1  LIG1        0.1467
     21 C          -6.8051    3.4984    0.0455 C.ar    1  LIG1        0.1167
     22 N          -7.3140    2.4088   -0.5077 N.ar    1  LIG1       -0.2340
     23 H          -3.6412    2.4161    0.6309 H       1  LIG1        0.0662
     24 C          -7.2032    0.1770   -1.2564 C.1     1  LIG1       -0.0491
     25 C          -7.7713   -0.7779   -1.7159 C.1     1  LIG1       -0.1124
     26 H          -8.2716   -1.6188   -2.1373 H       1  LIG1        0.1232
     27 O          -5.0410    4.7121    1.0346 O.3     1  LIG1       -0.4929
     28 C          -3.7305    4.7590    1.5620 C.3     1  LIG1        0.0789
     29 H          -3.6169    5.7501    1.9998 H       1  LIG1        0.0660
     30 H          -3.5855    4.0014    2.3401 H       1  LIG1        0.0660
     31 H          -2.9751    4.6211    0.7798 H       1  LIG1        0.0660
     32 C          -8.9380    4.5766    0.8652 C.ar    1  LIG1        0.1233
     33 C          -7.7118    4.6686    0.1926 C.ar    1  LIG1        0.0413
     34 C          -7.3697    5.8945   -0.3720 C.ar    1  LIG1       -0.0059
     35 C          -8.2443    6.9654   -0.2773 C.ar    1  LIG1        0.1467
     36 C          -9.4604    6.7791    0.4079 C.ar    1  LIG1        0.1167
     37 N          -9.7757    5.6177    0.9589 N.ar    1  LIG1       -0.2340
     38 H          -6.4187    5.9925   -0.8781 H       1  LIG1        0.0662
     39 C          -9.3530    3.3708    1.5270 C.1     1  LIG1       -0.0491
     40 C          -9.7078    2.3800    2.1084 C.1     1  LIG1       -0.1124
     41 H         -10.0299    1.4956    2.6073 H       1  LIG1        0.1232
     42 O          -8.0119    8.1955   -0.7997 O.3     1  LIG1       -0.4929
     43 C          -6.7636    8.4308   -1.4187 C.3     1  LIG1        0.0789
     44 H          -6.7708    9.4764   -1.7246 H       1  LIG1        0.0660
     45 H          -5.9341    8.2636   -0.7226 H       1  LIG1        0.0660
     46 H          -6.6249    7.7972   -2.3023 H       1  LIG1        0.0660
     47 C         -10.9050    8.3178    1.7929 C.ar    1  LIG1        0.1226
     48 C         -10.4494    7.8835    0.5407 C.ar    1  LIG1        0.0412
     49 C         -10.9684    8.4930   -0.6013 C.ar    1  LIG1       -0.0065
     50 C         -11.9262    9.4849   -0.4620 C.ar    1  LIG1        0.1388
     51 C         -12.3264    9.8391    0.8314 C.ar    1  LIG1        0.0706
     52 N         -11.8314    9.2836    1.9200 N.ar    1  LIG1       -0.2424
     53 H         -10.6154    8.1780   -1.5744 H       1  LIG1        0.0662
     54 H         -13.0797   10.6134    0.9538 H       1  LIG1        0.0867
     55 C         -10.3788    7.7822    3.0178 C.1     1  LIG1       -0.0491
     56 C          -9.9334    7.3671    4.0549 C.1     1  LIG1       -0.1124
     57 H          -9.5512    6.9825    4.9717 H       1  LIG1        0.1232
     58 O         -12.5226   10.1531   -1.4784 O.3     1  LIG1       -0.4936
     59 C         -12.1506    9.8151   -2.7984 C.3     1  LIG1        0.0789
     60 H         -12.7403   10.4552   -3.4539 H       1  LIG1        0.0660
     61 H         -11.0849   10.0010   -2.9761 H       1  LIG1        0.0660
     62 H         -12.3738    8.7658   -3.0230 H       1  LIG1        0.0660
@<TRIPOS>BOND
     1    11    10    1
     2    10     9    3
     3    60    59    1
     4     9     1    1
     5    62    59    1
     6    61    59    1
     7    59    58    1
     8    46    43    1
     9    26    25    1
    10     1     6   ar
    11     1     2   ar
    12     6     5   ar
    13    44    43    1
    14    25    24    3
    15    53    49    1
    16    58    50    1
    17    43    42    1
    18    43    45    1
    19     8     2    1
    20    24    17    1
    21     2     3   ar
    22    38    34    1
    23    42    35    1
    24    17    22   ar
    25    17    18   ar
    26    49    50   ar
    27    49    48   ar
    28     5    18    1
    29     5     4   ar
    30    22    21   ar
    31    50    51   ar
    32    34    35   ar
    33    34    33   ar
    34    18    19   ar
    35    35    36   ar
    36    21    33    1
    37    21    20   ar
    38    33    32   ar
    39     3     4   ar
    40     3     7    1
    41    19    20   ar
    42    19    23    1
    43    36    48    1
    44    36    37   ar
    45    20    27    1
    46     4    12    1
    47    48    47   ar
    48    31    28    1
    49    51    54    1
    50    51    52   ar
    51    32    37   ar
    52    32    39    1
    53    27    28    1
    54    39    40    3
    55    28    29    1
    56    28    30    1
    57    12    13    1
    58    47    52   ar
    59    47    55    1
    60    40    41    1
    61    16    13    1
    62    13    15    1
    63    13    14    1
    64    55    56    3
    65    56    57    1
