@<TRIPOS>MOLECULE
mol_data/opt/cam/geoms/mol2/6el6el.out
 32 33 0 0 0
SMALL
GASTEIGER

@<TRIPOS>ATOM
      1 C          -4.4814   -2.0215    0.8228 C.ar    1  LIG1        0.1141
      2 C          -3.1714   -2.1846    0.3796 C.ar    1  LIG1       -0.0243
      3 C          -2.5371   -1.1269   -0.2551 C.ar    1  LIG1       -0.0152
      4 C          -3.2323    0.0637   -0.4276 C.ar    1  LIG1        0.1461
      5 C          -4.5584    0.1443    0.0469 C.ar    1  LIG1        0.1166
      6 N          -5.1514   -0.8733    0.6533 N.ar    1  LIG1       -0.2347
      7 H          -1.5203   -1.2396   -0.6090 H       1  LIG1        0.0656
      8 H          -2.6604   -3.1277    0.5325 H       1  LIG1        0.0646
      9 C          -5.1621   -3.0980    1.4873 C.1     1  LIG1       -0.0498
     10 C          -5.7040   -4.0176    2.0420 C.1     1  LIG1       -0.1124
     11 H          -6.2001   -4.8221    2.5342 H       1  LIG1        0.1232
     12 O          -2.7293    1.1679   -1.0292 O.3     1  LIG1       -0.4930
     13 C          -1.4349    1.0913   -1.5927 C.3     1  LIG1        0.0789
     14 H          -1.2491    2.0601   -2.0545 H       1  LIG1        0.0660
     15 H          -0.6724    0.9038   -0.8279 H       1  LIG1        0.0660
     16 H          -1.3779    0.3098   -2.3584 H       1  LIG1        0.0660
     17 C          -6.5785    1.3961   -0.7973 C.ar    1  LIG1        0.1226
     18 C          -5.3553    1.3919   -0.1139 C.ar    1  LIG1        0.0412
     19 C          -4.9039    2.5862    0.4470 C.ar    1  LIG1       -0.0065
     20 C          -5.6851    3.7250    0.3288 C.ar    1  LIG1        0.1388
     21 C          -6.8986    3.6244   -0.3614 C.ar    1  LIG1        0.0706
     22 N          -7.3288    2.5057   -0.9107 N.ar    1  LIG1       -0.2424
     23 H          -3.9542    2.6016    0.9654 H       1  LIG1        0.0662
     24 H          -7.5219    4.5100   -0.4576 H       1  LIG1        0.0867
     25 C          -7.0832    0.2202   -1.4502 C.1     1  LIG1       -0.0491
     26 C          -7.5083   -0.7472   -2.0244 C.1     1  LIG1       -0.1124
     27 H          -7.8930   -1.6091   -2.5182 H       1  LIG1        0.1232
     28 O          -5.3796    4.9459    0.8290 O.3     1  LIG1       -0.4936
     29 C          -4.1651    5.0850    1.5365 C.3     1  LIG1        0.0789
     30 H          -4.1131    6.1272    1.8495 H       1  LIG1        0.0660
     31 H          -4.1404    4.4408    2.4231 H       1  LIG1        0.0660
     32 H          -3.3014    4.8554    0.9017 H       1  LIG1        0.0660
@<TRIPOS>BOND
     1    27    26    1
     2    16    13    1
     3    14    13    1
     4    26    25    3
     5    13    12    1
     6    13    15    1
     7    25    17    1
     8    12     4    1
     9    22    17   ar
    10    22    21   ar
    11    17    18   ar
    12     7     3    1
    13    24    21    1
    14     4     3   ar
    15     4     5   ar
    16    21    20   ar
    17     3     2   ar
    18    18     5    1
    19    18    19   ar
    20     5     6   ar
    21    20    19   ar
    22    20    28    1
    23     2     8    1
    24     2     1   ar
    25    19    23    1
    26     6     1   ar
    27     1     9    1
    28    28    29    1
    29    32    29    1
    30     9    10    3
    31    29    30    1
    32    29    31    1
    33    10    11    1
