@<TRIPOS>MOLECULE
mol_data/opt/cam/geoms/mol2/6el6el6el.out
 47 49 0 0 0
SMALL
GASTEIGER

@<TRIPOS>ATOM
      1 C          -4.1145   -1.7806   -1.5891 C.ar    1  LIG1        0.1141
      2 C          -3.0448   -2.1749   -0.7893 C.ar    1  LIG1       -0.0243
      3 C          -2.6880   -1.3886    0.2961 C.ar    1  LIG1       -0.0152
      4 C          -3.4117   -0.2299    0.5500 C.ar    1  LIG1        0.1461
      5 C          -4.4849    0.0949   -0.3063 C.ar    1  LIG1        0.1166
      6 N          -4.8131   -0.6643   -1.3414 N.ar    1  LIG1       -0.2347
      7 H          -1.8610   -1.6840    0.9291 H       1  LIG1        0.0656
      8 H          -2.5028   -3.0847   -1.0182 H       1  LIG1        0.0646
      9 C          -4.5036   -2.5724   -2.7228 C.1     1  LIG1       -0.0498
     10 C          -4.8042   -3.2561   -3.6658 C.1     1  LIG1       -0.1124
     11 H          -5.0850   -3.8511   -4.5041 H       1  LIG1        0.1232
     12 O          -3.1651    0.6218    1.5738 O.3     1  LIG1       -0.4930
     13 C          -2.1569    0.2763    2.5034 C.3     1  LIG1        0.0789
     14 H          -2.1580    1.0639    3.2558 H       1  LIG1        0.0660
     15 H          -2.3706   -0.6838    2.9858 H       1  LIG1        0.0660
     16 H          -1.1698    0.2308    2.0292 H       1  LIG1        0.0660
     17 C          -6.6929    1.2601    0.0717 C.ar    1  LIG1        0.1233
     18 C          -5.3016    1.3192   -0.0846 C.ar    1  LIG1        0.0413
     19 C          -4.6963    2.5727   -0.0606 C.ar    1  LIG1       -0.0059
     20 C          -5.4733    3.7105    0.0906 C.ar    1  LIG1        0.1467
     21 C          -6.8666    3.5574    0.2294 C.ar    1  LIG1        0.1167
     22 N          -7.4372    2.3632    0.2234 N.ar    1  LIG1       -0.2340
     23 H          -3.6212    2.6397   -0.1593 H       1  LIG1        0.0662
     24 C          -7.3986    0.0094    0.1161 C.1     1  LIG1       -0.0491
     25 C          -8.0029   -1.0281    0.1807 C.1     1  LIG1       -0.1124
     26 H          -8.5417   -1.9463    0.2222 H       1  LIG1        0.1232
     27 O          -4.9853    4.9756    0.1168 O.3     1  LIG1       -0.4929
     28 C          -3.5843    5.1510    0.0595 C.3     1  LIG1        0.0789
     29 H          -3.4111    6.2240    0.1343 H       1  LIG1        0.0660
     30 H          -3.0832    4.6452    0.8924 H       1  LIG1        0.0660
     31 H          -3.1698    4.7835   -0.8864 H       1  LIG1        0.0660
     32 C          -8.6278    4.8626    1.4810 C.ar    1  LIG1        0.1226
     33 C          -7.7618    4.7361    0.3862 C.ar    1  LIG1        0.0412
     34 C          -7.7733    5.7350   -0.5870 C.ar    1  LIG1       -0.0065
     35 C          -8.6493    6.8004   -0.4520 C.ar    1  LIG1        0.1388
     36 C          -9.4848    6.8296    0.6704 C.ar    1  LIG1        0.0706
     37 N          -9.4719    5.9013    1.6068 N.ar    1  LIG1       -0.2424
     38 H          -7.0998    5.6580   -1.4304 H       1  LIG1        0.0662
     39 H         -10.1792    7.6581    0.7861 H       1  LIG1        0.0867
     40 C          -8.6362    3.9085    2.5551 C.1     1  LIG1       -0.0491
     41 C          -8.6413    3.1367    3.4773 C.1     1  LIG1       -0.1124
     42 H          -8.6578    2.4403    4.2832 H       1  LIG1        0.1232
     43 O          -8.7751    7.8322   -1.3205 O.3     1  LIG1       -0.4936
     44 C          -7.9534    7.8314   -2.4694 C.3     1  LIG1        0.0789
     45 H          -8.2095    8.7316   -3.0271 H       1  LIG1        0.0660
     46 H          -6.8904    7.8617   -2.2035 H       1  LIG1        0.0660
     47 H          -8.1410    6.9528   -3.0974 H       1  LIG1        0.0660
@<TRIPOS>BOND
     1    11    10    1
     2    10     9    3
     3    47    44    1
     4    45    44    1
     5     9     1    1
     6    44    46    1
     7    44    43    1
     8     1     6   ar
     9     1     2   ar
    10    38    34    1
    11     6     5   ar
    12    43    35    1
    13     8     2    1
    14    31    28    1
    15     2     3   ar
    16    34    35   ar
    17    34    33   ar
    18    35    36   ar
    19     5    18    1
    20     5     4   ar
    21    23    19    1
    22    18    19   ar
    23    18    17   ar
    24    19    20   ar
    25    28    27    1
    26    28    29    1
    27    28    30    1
    28    17    24    1
    29    17    22   ar
    30    20    27    1
    31    20    21   ar
    32    24    25    3
    33    25    26    1
    34    22    21   ar
    35    21    33    1
    36     3     4   ar
    37     3     7    1
    38    33    32   ar
    39     4    12    1
    40    36    39    1
    41    36    37   ar
    42    32    37   ar
    43    32    40    1
    44    12    13    1
    45    16    13    1
    46    13    15    1
    47    13    14    1
    48    40    41    3
    49    41    42    1
