@<TRIPOS>MOLECULE
mol_data/opt/cam/geoms/mol2/6el6fi4dh12if.out
 54 57 0 0 0
SMALL
GASTEIGER

@<TRIPOS>ATOM
      1 C          -4.4476   -2.2570   -0.2547 C.ar    1  LIG1        0.1141
      2 C          -3.0618   -2.3070   -0.2550 C.ar    1  LIG1       -0.0243
      3 C          -2.3581   -1.1134   -0.1784 C.ar    1  LIG1       -0.0152
      4 C          -3.0400    0.0921   -0.0874 C.ar    1  LIG1        0.1462
      5 C          -4.4621    0.0783   -0.0538 C.ar    1  LIG1        0.1189
      6 N          -5.1005   -1.0907   -0.1545 N.ar    1  LIG1       -0.2346
      7 H          -1.2764   -1.1310   -0.1982 H       1  LIG1        0.0656
      8 H          -2.5479   -3.2574   -0.3261 H       1  LIG1        0.0646
      9 C          -5.2366   -3.4497   -0.3644 C.1     1  LIG1       -0.0498
     10 C          -5.8839   -4.4591   -0.4590 C.1     1  LIG1       -0.1124
     11 H          -6.4676   -5.3471   -0.5428 H       1  LIG1        0.1232
     12 O          -2.4160    1.2898   -0.0473 O.3     1  LIG1       -0.4930
     13 C          -1.0106    1.3370   -0.2103 C.3     1  LIG1        0.0789
     14 H          -0.7469    2.3936   -0.2131 H       1  LIG1        0.0660
     15 H          -0.4932    0.8372    0.6159 H       1  LIG1        0.0660
     16 H          -0.7055    0.8849   -1.1599 H       1  LIG1        0.0660
     17 C          -6.6941    1.2431   -0.3201 C.ar    1  LIG1        0.2224
     18 C          -5.3158    1.2841    0.0442 C.ar    1  LIG1        0.0656
     19 C          -4.8585    2.5099    0.5234 C.ar    1  LIG1       -0.0424
     20 C          -5.6589    3.6473    0.5629 C.ar    1  LIG1       -0.0236
     21 C          -6.9557    3.5023    0.0572 C.ar    1  LIG1        0.0790
     22 N          -7.4531    2.3267   -0.3311 N.ar    1  LIG1       -0.2122
     23 H          -3.8452    2.5859    0.8905 H       1  LIG1        0.0629
     24 O          -7.3150    0.1208   -0.6709 O.3     1  LIG1       -0.4919
     25 H          -6.6771   -0.6217   -0.5160 H       1  LIG1        0.2937
     26 C          -5.1156    4.9188    1.1621 C.3     1  LIG1       -0.0377
     27 H          -5.9106    5.5439    1.5734 H       1  LIG1        0.0278
     28 H          -4.5764    5.5172    0.4232 H       1  LIG1        0.0278
     29 H          -4.4225    4.6845    1.9742 H       1  LIG1        0.0278
     30 C          -7.6692    5.8316   -0.7078 C.ar    1  LIG1        0.0617
     31 C          -8.6529    6.8213   -0.7553 C.ar    1  LIG1       -0.0313
     32 C          -7.9319    4.6287   -0.0260 C.ar    1  LIG1        0.0198
     33 C          -9.8890    6.6701   -0.1392 C.ar    1  LIG1        0.0395
     34 H          -8.4524    7.7272   -1.3148 H       1  LIG1        0.0638
     35 C          -9.1785    4.4573    0.5508 C.ar    1  LIG1       -0.0299
     36 C         -10.1693    5.4460    0.5185 C.ar    1  LIG1        0.0360
     37 H          -9.3909    3.5112    1.0370 H       1  LIG1        0.0643
     38 N          -5.4785    6.2640   -2.0181 N.1     1  LIG1       -0.1908
     39 C          -6.4525    6.0518   -1.4284 C.1     1  LIG1        0.0998
     40 N         -11.3617    5.2319    1.1631 N.pl3   1  LIG1       -0.3574
     41 H         -12.1487    5.7897    0.8719 H       1  LIG1        0.1423
     42 H         -11.5728    4.2790    1.4126 H       1  LIG1        0.1423
     43 C         -10.8453    7.7779   -0.1778 C.ar    1  LIG1        0.1431
     44 C         -10.6863    9.1313   -0.1051 C.ar    1  LIG1        0.0368
     45 C         -12.0064    9.6752   -0.2235 C.ar    1  LIG1        0.1580
     46 C         -12.8715    8.6400   -0.3480 C.ar    1  LIG1        0.1341
     47 O         -12.1697    7.4664   -0.3229 O.2     1  LIG1       -0.4589
     48 H         -13.9407    8.5642   -0.4595 H       1  LIG1        0.1068
     49 C          -9.4476    9.9414    0.0969 C.3     1  LIG1       -0.0326
     50 H          -9.6609   10.7979    0.7408 H       1  LIG1        0.0280
     51 H          -9.0618   10.3387   -0.8477 H       1  LIG1        0.0280
     52 H          -8.6566    9.3481    0.5596 H       1  LIG1        0.0280
     53 O         -12.2320   11.0126   -0.1887 O.3     1  LIG1       -0.5034
     54 H         -13.1788   11.1842   -0.2452 H       1  LIG1        0.2923
@<TRIPOS>BOND
     1    38    39    3
     2    39    30    1
     3    34    31    1
     4    16    13    1
     5    51    49    1
     6    31    30   ar
     7    31    33   ar
     8    30    32   ar
     9    24    25    1
    10    24    17    1
    11    11    10    1
    12    48    46    1
    13    10     9    3
    14     9     1    1
    15    46    47   ar
    16    46    45   ar
    17    22    17   ar
    18    22    21   ar
    19     8     2    1
    20    47    43   ar
    21    17    18   ar
    22     2     1   ar
    23     2     3   ar
    24     1     6   ar
    25    54    53    1
    26    45    53    1
    27    45    44   ar
    28    14    13    1
    29    13    12    1
    30    13    15    1
    31     7     3    1
    32     3     4   ar
    33    43    33    1
    34    43    44   ar
    35     6     5   ar
    36    33    36   ar
    37    44    49    1
    38     4     5   ar
    39     4    12    1
    40     5    18    1
    41    32    21    1
    42    32    35   ar
    43    18    19   ar
    44    21    20   ar
    45    49    52    1
    46    49    50    1
    47    28    26    1
    48    36    35   ar
    49    36    40    1
    50    19    20   ar
    51    19    23    1
    52    35    37    1
    53    20    26    1
    54    41    40    1
    55    26    27    1
    56    26    29    1
    57    40    42    1
