@<TRIPOS>MOLECULE
mol_data/opt/cam/geoms/mol2/6el6el-.out
 32 33 0 0 0
SMALL
GASTEIGER

@<TRIPOS>ATOM
      1 C          -4.4723   -2.0583    0.5192 C.ar    1  LIG1        0.1141
      2 C          -3.1696   -2.1574    0.0378 C.ar    1  LIG1       -0.0243
      3 C          -2.5460   -1.0239   -0.4630 C.ar    1  LIG1       -0.0152
      4 C          -3.2404    0.1792   -0.4567 C.ar    1  LIG1        0.1461
      5 C          -4.5363    0.2043    0.0994 C.ar    1  LIG1        0.1166
      6 N          -5.1337   -0.8915    0.5456 N.ar    1  LIG1       -0.2347
      7 H          -1.5421   -1.0884   -0.8632 H       1  LIG1        0.0656
      8 H          -2.6605   -3.1138    0.0466 H       1  LIG1        0.0646
      9 C          -5.1549   -3.2211    1.0146 C.1     1  LIG1       -0.0498
     10 C          -5.7021   -4.2123    1.4213 C.1     1  LIG1       -0.1124
     11 H          -6.1992   -5.0811    1.7867 H       1  LIG1        0.1232
     12 O          -2.7830    1.3368   -0.9760 O.3     1  LIG1       -0.4930
     13 C          -1.4223    1.4167   -1.3482 C.3     1  LIG1        0.0789
     14 H          -1.2530    2.4496   -1.6489 H       1  LIG1        0.0660
     15 H          -0.7667    1.1728   -0.5052 H       1  LIG1        0.0660
     16 H          -1.1953    0.7542   -2.1913 H       1  LIG1        0.0660
     17 C          -4.8662    2.6285    0.8155 C.ar    1  LIG1        0.1226
     18 C          -5.3249    1.4645    0.1643 C.ar    1  LIG1        0.0412
     19 C          -6.5919    1.4902   -0.3911 C.ar    1  LIG1       -0.0065
     20 C          -7.3504    2.6554   -0.3307 C.ar    1  LIG1        0.1388
     21 C          -6.7977    3.7664    0.3062 C.ar    1  LIG1        0.0706
     22 N          -5.5951    3.7446    0.8719 N.ar    1  LIG1       -0.2424
     23 H          -7.0020    0.6092   -0.8708 H       1  LIG1        0.0662
     24 H          -7.3384    4.7044    0.3772 H       1  LIG1        0.0867
     25 C          -3.6078    2.6591    1.5115 C.1     1  LIG1       -0.0491
     26 C          -2.5724    2.6864    2.1239 C.1     1  LIG1       -0.1124
     27 H          -1.6635    2.7217    2.6787 H       1  LIG1        0.1232
     28 O          -8.5762    2.6159   -0.9032 O.3     1  LIG1       -0.4936
     29 C          -9.3734    3.7825   -0.8482 C.3     1  LIG1        0.0789
     30 H         -10.3072    3.5344   -1.3516 H       1  LIG1        0.0660
     31 H          -9.5873    4.0745    0.1861 H       1  LIG1        0.0660
     32 H          -8.8957    4.6212   -1.3671 H       1  LIG1        0.0660
@<TRIPOS>BOND
     1    16    13    1
     2    14    13    1
     3    32    29    1
     4    30    29    1
     5    13    12    1
     6    13    15    1
     7    12     4    1
     8    28    29    1
     9    28    20    1
    10    23    19    1
    11     7     3    1
    12    29    31    1
    13     3     4   ar
    14     3     2   ar
    15     4     5   ar
    16    19    20   ar
    17    19    18   ar
    18    20    21   ar
    19     2     8    1
    20     2     1   ar
    21     5    18    1
    22     5     6   ar
    23    18    17   ar
    24    21    24    1
    25    21    22   ar
    26     1     6   ar
    27     1     9    1
    28    17    22   ar
    29    17    25    1
    30     9    10    3
    31    10    11    1
    32    25    26    3
    33    26    27    1
