@<TRIPOS>MOLECULE
mol_data/opt/cam/geoms/mol2/6el6el6el6el-.out
 62 65 0 0 0
SMALL
GASTEIGER

@<TRIPOS>ATOM
      1 C          -3.9076   -1.9142   -1.3074 C.ar    1  LIG1        0.1141
      2 C          -2.9184   -2.2508   -0.3867 C.ar    1  LIG1       -0.0243
      3 C          -2.6826   -1.4076    0.6889 C.ar    1  LIG1       -0.0152
      4 C          -3.4432   -0.2513    0.8123 C.ar    1  LIG1        0.1461
      5 C          -4.4296    0.0127   -0.1612 C.ar    1  LIG1        0.1166
      6 N          -4.6425   -0.8005   -1.1853 N.ar    1  LIG1       -0.2347
      7 H          -1.9197   -1.6576    1.4151 H       1  LIG1        0.0656
      8 H          -2.3442   -3.1605   -0.5157 H       1  LIG1        0.0646
      9 C          -4.1703   -2.7655   -2.4344 C.1     1  LIG1       -0.0498
     10 C          -4.3654   -3.4979   -3.3685 C.1     1  LIG1       -0.1124
     11 H          -4.5526   -4.1364   -4.2009 H       1  LIG1        0.1232
     12 O          -3.3117    0.6527    1.8122 O.3     1  LIG1       -0.4930
     13 C          -2.3982    0.3700    2.8541 C.3     1  LIG1        0.0789
     14 H          -2.4855    1.1925    3.5628 H       1  LIG1        0.0660
     15 H          -2.6471   -0.5695    3.3595 H       1  LIG1        0.0660
     16 H          -1.3677    0.3196    2.4842 H       1  LIG1        0.0660
     17 C          -6.6804    1.1518   -0.0557 C.ar    1  LIG1        0.1233
     18 C          -5.2815    1.2304   -0.0809 C.ar    1  LIG1        0.0413
     19 C          -4.6998    2.4951   -0.0612 C.ar    1  LIG1       -0.0059
     20 C          -5.5043    3.6237   -0.0415 C.ar    1  LIG1        0.1467
     21 C          -6.9020    3.4501   -0.0280 C.ar    1  LIG1        0.1167
     22 N          -7.4520    2.2462   -0.0300 N.ar    1  LIG1       -0.2340
     23 H          -3.6212    2.5781   -0.0599 H       1  LIG1        0.0662
     24 C          -7.3686   -0.1089   -0.0182 C.1     1  LIG1       -0.0491
     25 C          -7.9609   -1.1537    0.0383 C.1     1  LIG1       -0.1124
     26 H          -8.4870   -2.0795    0.0720 H       1  LIG1        0.1232
     27 O          -5.0401    4.8976   -0.0311 O.3     1  LIG1       -0.4929
     28 C          -3.6431    5.0973    0.0441 C.3     1  LIG1        0.0789
     29 H          -3.4944    6.1758    0.0855 H       1  LIG1        0.0660
     30 H          -3.2217    4.6395    0.9459 H       1  LIG1        0.0660
     31 H          -3.1299    4.6957   -0.8373 H       1  LIG1        0.0660
     32 C          -8.8083    4.7714    0.9728 C.ar    1  LIG1        0.1233
     33 C          -7.8250    4.6169   -0.0137 C.ar    1  LIG1        0.0413
     34 C          -7.7587    5.5731   -1.0239 C.ar    1  LIG1       -0.0059
     35 C          -8.6567    6.6288   -1.0341 C.ar    1  LIG1        0.1467
     36 C          -9.5847    6.7268    0.0197 C.ar    1  LIG1        0.1167
     37 N          -9.6573    5.8093    0.9721 N.ar    1  LIG1       -0.2340
     38 H          -7.0144    5.4676   -1.8019 H       1  LIG1        0.0662
     39 C          -8.9384    3.8526    2.0695 C.1     1  LIG1       -0.0491
     40 C          -9.0511    3.1113    3.0096 C.1     1  LIG1       -0.1124
     41 H          -9.1591    2.4416    3.8309 H       1  LIG1        0.1232
     42 O          -8.7373    7.5625   -2.0064 O.3     1  LIG1       -0.4929
     43 C          -7.7085    7.6160   -2.9722 C.3     1  LIG1        0.0789
     44 H          -7.9271    8.4805   -3.5975 H       1  LIG1        0.0660
     45 H          -6.7285    7.7480   -2.5003 H       1  LIG1        0.0660
     46 H          -7.6935    6.7146   -3.5956 H       1  LIG1        0.0660
     47 C         -10.2022    9.2005    0.0979 C.ar    1  LIG1        0.1226
     48 C         -10.5704    7.8389    0.0901 C.ar    1  LIG1        0.0412
     49 C         -11.9149    7.5321    0.2055 C.ar    1  LIG1       -0.0065
     50 C         -12.8543    8.5558    0.2817 C.ar    1  LIG1        0.1388
     51 C         -12.3955    9.8725    0.2484 C.ar    1  LIG1        0.0706
     52 N         -11.1048   10.1806    0.1712 N.ar    1  LIG1       -0.2424
     53 H         -12.2432    6.4999    0.2397 H       1  LIG1        0.0662
     54 H         -13.0816   10.7117    0.2961 H       1  LIG1        0.0867
     55 C          -8.8241    9.6127    0.0912 C.1     1  LIG1       -0.0491
     56 C          -7.6761    9.9719    0.1197 C.1     1  LIG1       -0.1124
     57 H          -6.6640   10.3024    0.1532 H       1  LIG1        0.1232
     58 O         -14.1531    8.1865    0.3808 O.3     1  LIG1       -0.4936
     59 C         -15.1290    9.2057    0.4652 C.3     1  LIG1        0.0789
     60 H         -16.0900    8.6984    0.5433 H       1  LIG1        0.0660
     61 H         -14.9794    9.8335    1.3509 H       1  LIG1        0.0660
     62 H         -15.1275    9.8397   -0.4288 H       1  LIG1        0.0660
@<TRIPOS>BOND
     1    11    10    1
     2    44    43    1
     3    46    43    1
     4    10     9    3
     5    43    45    1
     6    43    42    1
     7     9     1    1
     8    42    35    1
     9    38    34    1
    10     1     6   ar
    11     1     2   ar
    12     6     5   ar
    13    35    34   ar
    14    35    36   ar
    15    34    33   ar
    16    31    28    1
    17     8     2    1
    18    62    59    1
    19     2     3   ar
    20     5    18    1
    21     5     4   ar
    22    18    19   ar
    23    18    17   ar
    24    19    23    1
    25    19    20   ar
    26    17    22   ar
    27    17    24    1
    28    20    27    1
    29    20    21   ar
    30    27    28    1
    31    22    21   ar
    32    21    33    1
    33    24    25    3
    34    33    32   ar
    35    36    48    1
    36    36    37   ar
    37    25    26    1
    38    28    29    1
    39    28    30    1
    40    48    47   ar
    41    48    49   ar
    42    55    47    1
    43    55    56    3
    44    47    52   ar
    45    56    57    1
    46    52    51   ar
    47    49    53    1
    48    49    50   ar
    49    51    50   ar
    50    51    54    1
    51    50    58    1
    52    58    59    1
    53    59    60    1
    54    59    61    1
    55     3     4   ar
    56     3     7    1
    57     4    12    1
    58    37    32   ar
    59    32    39    1
    60    12    13    1
    61    39    40    3
    62    16    13    1
    63    13    15    1
    64    13    14    1
    65    40    41    1
