@<TRIPOS>MOLECULE
mol_data/opt/cam/geoms/mol2/6el6eh6ea-13fh4ff4ii-12de6fa.out
 100 107 0 0 0
SMALL
GASTEIGER

@<TRIPOS>ATOM
      1 C          -3.3181   -1.9141   -0.6702 C.ar    1  LIG1        0.1141
      2 C          -2.4801   -2.0863    0.4282 C.ar    1  LIG1       -0.0243
      3 C          -2.4526   -1.1121    1.4154 C.ar    1  LIG1       -0.0152
      4 C          -3.2739    0.0004    1.2813 C.ar    1  LIG1        0.1461
      5 C          -4.1377    0.0688    0.1676 C.ar    1  LIG1        0.1166
      6 N          -4.1291   -0.8520   -0.7866 N.ar    1  LIG1       -0.2347
      7 H          -1.7879   -1.2169    2.2635 H       1  LIG1        0.0656
      8 H          -1.8513   -2.9660    0.4974 H       1  LIG1        0.0646
      9 C          -3.3427   -2.8885   -1.7257 C.1     1  LIG1       -0.0498
     10 C          -3.3401   -3.7198   -2.5954 C.1     1  LIG1       -0.1124
     11 H          -3.3505   -4.4505   -3.3710 H       1  LIG1        0.1232
     12 O          -3.2877    1.0532    2.1231 O.3     1  LIG1       -0.4930
     13 C          -2.6132    0.9373    3.3591 C.3     1  LIG1        0.0789
     14 H          -2.8316    1.8524    3.9076 H       1  LIG1        0.0660
     15 H          -2.9792    0.0769    3.9298 H       1  LIG1        0.0660
     16 H          -1.5294    0.8499    3.2205 H       1  LIG1        0.0660
     17 C          -6.0196    1.6063    0.9353 C.ar    1  LIG1        0.1232
     18 C          -5.0688    1.2124   -0.0229 C.ar    1  LIG1        0.0396
     19 C          -5.0485    1.8946   -1.2287 C.ar    1  LIG1       -0.0270
     20 C          -5.9137    2.9612   -1.4589 C.ar    1  LIG1        0.0517
     21 C          -6.7967    3.3113   -0.4152 C.ar    1  LIG1        0.0956
     22 N          -6.8448    2.6349    0.7255 N.ar    1  LIG1       -0.2358
     23 H          -4.3547    1.5779   -2.0010 H       1  LIG1        0.0644
     24 C          -6.2024    0.8892    2.1680 C.1     1  LIG1       -0.0491
     25 C          -6.3846    0.2767    3.1880 C.1     1  LIG1       -0.1124
     26 H          -6.5649   -0.2599    4.0904 H       1  LIG1        0.1232
     27 N          -5.8743    3.6660   -2.6516 N.pl3   1  LIG1       -0.3563
     28 H          -5.4748    3.1661   -3.4322 H       1  LIG1        0.1424
     29 H          -6.7198    4.1622   -2.8926 H       1  LIG1        0.1424
     30 C          -9.1141    4.3367   -0.3870 C.ar    1  LIG1        0.1231
     31 C          -7.7244    4.4659   -0.5513 C.ar    1  LIG1        0.0360
     32 C          -7.2367    5.7487   -0.8184 C.ar    1  LIG1       -0.0478
     33 C          -8.0956    6.8267   -0.8921 C.ar    1  LIG1       -0.0334
     34 C          -9.4635    6.5978   -0.6949 C.ar    1  LIG1        0.0922
     35 N          -9.9546    5.3744   -0.4565 N.ar    1  LIG1       -0.2362
     36 H          -6.1700    5.8903   -0.9598 H       1  LIG1        0.0626
     37 C          -9.7256    3.0526   -0.1709 C.1     1  LIG1       -0.0491
     38 C         -10.2619    1.9870   -0.0204 C.1     1  LIG1       -0.1124
     39 H         -10.7192    1.0360    0.1275 H       1  LIG1        0.1232
     40 H          -7.7400    7.8309   -1.0884 H       1  LIG1        0.0640
     41 C         -10.4395    7.6647   -0.7445 C.ar    1  LIG1        0.1093
     42 C         -10.3569    9.0200   -1.0016 C.ar    1  LIG1        0.1650
     43 C         -11.6566    9.5671   -0.9522 C.ar    1  LIG1        0.0931
     44 C         -12.5326    8.5232   -0.6721 C.ar    1  LIG1        0.0752
     45 N         -11.7744    7.3959   -0.5353 N.ar    1  LIG1       -0.3484
     46 H         -12.0984    6.4446   -0.4448 H       1  LIG1        0.1661
     47 O          -9.2487    9.7521   -1.2544 O.3     1  LIG1       -0.5030
     48 H          -9.5873   10.6453   -1.4429 H       1  LIG1        0.2923
     49 N         -11.8470   10.9607   -1.1456 N.pl3   1  LIG1       -0.3535
     50 H         -12.6303   11.1216   -1.7713 H       1  LIG1        0.1425
     51 H         -12.0505   11.4349   -0.2707 H       1  LIG1        0.1425
     52 C         -14.8798    9.2323   -1.2333 C.ar    1  LIG1        0.1268
     53 C         -16.2443    9.1406   -0.9977 C.ar    1  LIG1       -0.0083
     54 C         -13.9799    8.4849   -0.4625 C.ar    1  LIG1        0.0451
     55 C         -16.7781    8.3027   -0.0196 C.ar    1  LIG1        0.0273
     56 H         -16.9265    9.7190   -1.6155 H       1  LIG1        0.0661
     57 C         -14.5159    7.6467    0.5204 C.ar    1  LIG1       -0.0069
     58 C         -15.8825    7.5405    0.7402 C.ar    1  LIG1        0.1254
     59 H         -13.8321    7.0810    1.1478 H       1  LIG1        0.0662
     60 O         -14.3846   10.0280   -2.2348 O.3     1  LIG1       -0.5061
     61 H         -15.1182   10.3626   -2.7634 H       1  LIG1        0.2922
     62 O         -16.3955    6.7216    1.7022 O.3     1  LIG1       -0.5061
     63 H         -15.6729    6.2806    2.1639 H       1  LIG1        0.2922
     64 C         -19.0247    9.3309    0.5179 C.ar    1  LIG1       -0.0419
     65 C         -20.3980    9.1573    0.6487 C.ar    1  LIG1       -0.0473
     66 C         -18.2489    8.2102    0.1851 C.ar    1  LIG1       -0.0111
     67 C         -21.0193    7.9191    0.4737 C.ar    1  LIG1        0.0218
     68 H         -21.0067   10.0200    0.8974 H       1  LIG1        0.0627
     69 C         -18.8728    6.9708    0.0327 C.ar    1  LIG1       -0.0501
     70 C         -20.2424    6.7848    0.1689 C.ar    1  LIG1       -0.0392
     71 H         -18.2525    6.1088   -0.1880 H       1  LIG1        0.0627
     72 C         -18.4307   10.6962    0.7547 C.3     1  LIG1       -0.0391
     73 H         -19.0939   11.2965    1.3808 H       1  LIG1        0.0278
     74 H         -18.2803   11.2456   -0.1802 H       1  LIG1        0.0278
     75 H         -17.4597   10.6298    1.2489 H       1  LIG1        0.0278
     76 C         -20.8151    5.3970    0.0264 C.3     1  LIG1       -0.0390
     77 H         -20.0123    4.6582    0.0479 H       1  LIG1        0.0278
     78 H         -21.3620    5.2600   -0.9107 H       1  LIG1        0.0278
     79 H         -21.5096    5.1618    0.8367 H       1  LIG1        0.0278
     80 C         -22.4687    7.8530    0.6394 C.ar    1  LIG1        0.1545
     81 C         -23.3622    8.5011    1.4462 C.ar    1  LIG1        0.1134
     82 C         -24.6830    8.0216    1.1082 C.ar    1  LIG1        0.0885
     83 C         -24.5079    7.0946    0.1145 C.ar    1  LIG1        0.1574
     84 O         -23.1693    7.0042   -0.1605 O.2     1  LIG1       -0.4521
     85 N         -22.8323   10.2514    3.2620 N.1     1  LIG1       -0.1907
     86 C         -23.0651    9.4610    2.4498 C.1     1  LIG1        0.1042
     87 C         -25.8859    8.4655    1.7134 C.1     1  LIG1       -0.0645
     88 C         -26.8845    8.8690    2.2507 C.1     1  LIG1       -0.1138
     89 H         -27.7644    9.2364    2.7277 H       1  LIG1        0.1232
     90 C         -25.0091    5.5847   -1.8517 C.ar    1  LIG1        0.2233
     91 C         -25.4003    6.2369   -0.6528 C.ar    1  LIG1        0.0798
     92 C         -26.7121    6.0263   -0.2219 C.ar    1  LIG1       -0.0445
     93 C         -27.5649    5.2182   -0.9534 C.ar    1  LIG1       -0.0427
     94 C         -27.0669    4.6319   -2.1086 C.ar    1  LIG1        0.0314
     95 N         -25.8247    4.8087   -2.5461 N.ar    1  LIG1       -0.2209
     96 H         -27.0518    6.4995    0.6912 H       1  LIG1        0.0627
     97 H         -27.6955    3.9849   -2.7161 H       1  LIG1        0.0831
     98 O         -23.7827    5.7021   -2.3896 O.3     1  LIG1       -0.4919
     99 H         -23.2336    6.2816   -1.8442 H       1  LIG1        0.2937
    100 H         -28.5845    5.0419   -0.6337 H       1  LIG1        0.0633
@<TRIPOS>BOND
     1    28    27    1
     2    11    10    1
     3    29    27    1
     4    61    60    1
     5    97    94    1
     6    27    20    1
     7    10     9    3
     8    95    94   ar
     9    95    90   ar
    10    98    90    1
    11    98    99    1
    12    60    52    1
    13    94    93   ar
    14    23    19    1
    15    90    91   ar
    16    50    49    1
    17     9     1    1
    18    56    53    1
    19    20    19   ar
    20    20    21   ar
    21    48    47    1
    22    47    42    1
    23    52    53   ar
    24    52    54   ar
    25    19    18   ar
    26    49    43    1
    27    49    51    1
    28    40    33    1
    29    42    43   ar
    30    42    41   ar
    31    53    55   ar
    32    36    32    1
    33    93   100    1
    34    93    92   ar
    35    43    44   ar
    36    78    76    1
    37    33    32   ar
    38    33    34   ar
    39    32    31   ar
    40     6     1   ar
    41     6     5   ar
    42    41    34    1
    43    41    45   ar
    44    34    35   ar
    45    44    45   ar
    46    44    54    1
    47     1     2   ar
    48    91    92   ar
    49    91    83    1
    50    31    21    1
    51    31    30   ar
    52    45    46    1
    53    54    57   ar
    54    35    30   ar
    55    21    22   ar
    56    30    37    1
    57    92    96    1
    58    71    69    1
    59    74    72    1
    60    37    38    3
    61    84    83   ar
    62    84    80   ar
    63    18     5    1
    64    18    17   ar
    65    38    39    1
    66    55    66    1
    67    55    58   ar
    68    76    77    1
    69    76    70    1
    70    76    79    1
    71    69    70   ar
    72    69    66   ar
    73    83    82   ar
    74     5     4   ar
    75    70    67   ar
    76    66    64   ar
    77     2     8    1
    78     2     3   ar
    79    67    80    1
    80    67    65   ar
    81    64    65   ar
    82    64    72    1
    83    57    58   ar
    84    57    59    1
    85    80    81   ar
    86    65    68    1
    87    22    17   ar
    88    58    62    1
    89    72    75    1
    90    72    73    1
    91    17    24    1
    92    82    81   ar
    93    82    87    1
    94     4     3   ar
    95     4    12    1
    96     3     7    1
    97    81    86    1
    98    62    63    1
    99    87    88    3
   100    12    13    1
   101    24    25    3
   102    88    89    1
   103    86    85    3
   104    25    26    1
   105    16    13    1
   106    13    14    1
   107    13    15    1
