@<TRIPOS>MOLECULE
mol_data/opt/cam/geoms/mol2/6fa12fe-13ef4fi-13el4fe13fe6il-.out
 101 108 0 0 0
SMALL
GASTEIGER

@<TRIPOS>ATOM
      1 C          -5.2625   -0.1177    3.5849 C.ar    1  LIG1        0.2129
      2 C          -4.0995    0.1734    4.3049 C.ar    1  LIG1       -0.0001
      3 C          -3.4352    1.3495    3.9957 C.ar    1  LIG1       -0.0546
      4 C          -3.9294    2.1835    3.0048 C.ar    1  LIG1       -0.0323
      5 C          -5.1010    1.7915    2.3493 C.ar    1  LIG1        0.1135
      6 N          -5.7552    0.6577    2.6388 N.ar    1  LIG1       -0.2098
      7 H          -2.5284    1.6154    4.5294 H       1  LIG1        0.0620
      8 H          -3.7338   -0.4975    5.0756 H       1  LIG1        0.0671
      9 O          -5.9812   -1.2432    3.8167 O.3     1  LIG1       -0.4924
     10 H          -5.5571   -1.7491    4.5197 H       1  LIG1        0.2937
     11 H          -3.4360    3.1087    2.7376 H       1  LIG1        0.0640
     12 C          -5.6745    2.6199    1.3054 C.ar    1  LIG1        0.1964
     13 C          -5.3531    3.8335    0.7710 C.ar    1  LIG1        0.1806
     14 C          -6.3279    4.1477   -0.2328 C.ar    1  LIG1        0.1140
     15 C          -7.1919    3.0742   -0.2536 C.ar    1  LIG1        0.1722
     16 O          -6.7988    2.1653    0.6655 O.2     1  LIG1       -0.4467
     17 O          -4.3194    4.6232    1.1208 O.3     1  LIG1       -0.5023
     18 H          -4.3712    5.4303    0.5863 H       1  LIG1        0.2923
     19 C          -6.3051    5.3927   -0.9062 C.1     1  LIG1       -0.0621
     20 C          -6.1585    6.4951   -1.3719 C.1     1  LIG1       -0.1137
     21 H          -6.0849    7.4594   -1.8196 H       1  LIG1        0.1232
     22 C          -8.3913    2.6999   -0.9532 C.ar    1  LIG1        0.1031
     23 C          -9.0351    3.1570   -2.1040 C.ar    1  LIG1        0.0949
     24 C         -10.2069    2.3645   -2.2536 C.ar    1  LIG1        0.1582
     25 C         -10.2530    1.4429   -1.2140 C.ar    1  LIG1        0.0938
     26 N          -9.1308    1.6736   -0.4478 N.ar    1  LIG1       -0.3477
     27 H          -8.9113    1.2211    0.4258 H       1  LIG1        0.1661
     28 C          -8.6086    4.1416   -3.0295 C.1     1  LIG1       -0.0637
     29 C          -8.2690    4.9571   -3.8474 C.1     1  LIG1       -0.1137
     30 H          -7.9582    5.6744   -4.5703 H       1  LIG1        0.1232
     31 O         -11.0420    2.5043   -3.2990 O.3     1  LIG1       -0.5035
     32 H         -11.9078    2.1480   -3.0353 H       1  LIG1        0.2923
     33 C         -12.5155    0.3376   -1.2149 C.ar    1  LIG1        0.1267
     34 C         -13.3246   -0.7372   -0.9002 C.ar    1  LIG1       -0.0101
     35 C         -11.1498    0.3331   -0.9049 C.ar    1  LIG1        0.0436
     36 C         -12.8279   -1.8598   -0.2315 C.ar    1  LIG1        0.0060
     37 H         -14.3775   -0.7036   -1.1607 H       1  LIG1        0.0661
     38 C         -10.6715   -0.8014   -0.2401 C.ar    1  LIG1       -0.0455
     39 C         -11.4642   -1.8870    0.1166 C.ar    1  LIG1       -0.0405
     40 H          -9.6141   -0.8468    0.0024 H       1  LIG1        0.0628
     41 O         -13.0355    1.4480   -1.8386 O.3     1  LIG1       -0.5061
     42 H         -13.9887    1.3451   -1.9449 H       1  LIG1        0.2922
     43 C         -10.8254   -3.0266    0.8728 C.3     1  LIG1       -0.0391
     44 H          -9.9173   -2.6861    1.3738 H       1  LIG1        0.0278
     45 H         -10.5234   -3.8492    0.2126 H       1  LIG1        0.0278
     46 H         -11.4945   -3.4367    1.6321 H       1  LIG1        0.0278
     47 C         -13.7672   -2.9462    0.0723 C.ar    1  LIG1        0.0665
     48 C         -15.1034   -2.8944    0.4671 C.ar    1  LIG1        0.0921
     49 C         -15.5508   -4.2453    0.6045 C.ar    1  LIG1        0.1613
     50 C         -14.5030   -5.0810    0.2915 C.ar    1  LIG1        0.0940
     51 N         -13.4372   -4.2665   -0.0251 N.ar    1  LIG1       -0.3501
     52 H         -12.5278   -4.6110   -0.2833 H       1  LIG1        0.1660
     53 C         -15.8730   -1.7341    0.7461 C.1     1  LIG1       -0.0638
     54 C         -16.5460   -0.7608    0.9776 C.1     1  LIG1       -0.1137
     55 H         -17.1324    0.0946    1.2211 H       1  LIG1        0.1232
     56 O         -16.7863   -4.6577    0.9884 O.3     1  LIG1       -0.4917
     57 C         -17.8280   -4.3360    0.0772 C.3     1  LIG1        0.0789
     58 H         -18.7474   -4.7376    0.5052 H       1  LIG1        0.0660
     59 H         -17.9317   -3.2544   -0.0497 H       1  LIG1        0.0660
     60 H         -17.6505   -4.8002   -0.9001 H       1  LIG1        0.0660
     61 C         -14.8408   -7.3785    1.2511 C.ar    1  LIG1        0.1268
     62 C         -14.7235   -8.7562    1.1464 C.ar    1  LIG1       -0.0091
     63 C         -14.3996   -6.5398    0.2121 C.ar    1  LIG1        0.0445
     64 C         -14.1522   -9.3780    0.0295 C.ar    1  LIG1        0.0208
     65 H         -15.0680   -9.3743    1.9671 H       1  LIG1        0.0661
     66 C         -13.8310   -7.1537   -0.8948 C.ar    1  LIG1       -0.0330
     67 C         -13.6908   -8.5418   -1.0157 C.ar    1  LIG1        0.0347
     68 H         -13.4996   -6.5370   -1.7238 H       1  LIG1        0.0638
     69 O         -15.3463   -6.7941    2.3584 O.3     1  LIG1       -0.5061
     70 H         -15.6434   -7.4746    2.9742 H       1  LIG1        0.2922
     71 C         -13.1068   -9.0174   -2.2337 C.1     1  LIG1       -0.0690
     72 C         -12.6110   -9.3557   -3.2811 C.1     1  LIG1       -0.1139
     73 H         -12.1927   -9.6420   -4.2191 H       1  LIG1        0.1232
     74 C         -14.0619  -10.8330    0.0193 C.ar    1  LIG1        0.0915
     75 C         -14.5785  -11.7732    0.8962 C.ar    1  LIG1        0.1580
     76 C         -14.2045  -13.0682    0.4539 C.ar    1  LIG1        0.0919
     77 C         -13.4419  -12.8968   -0.7028 C.ar    1  LIG1        0.0680
     78 N         -13.3706  -11.5646   -0.9328 N.ar    1  LIG1       -0.3502
     79 H         -12.9545  -11.1414   -1.7497 H       1  LIG1        0.1660
     80 O         -15.3135  -11.5201    2.0065 O.3     1  LIG1       -0.5035
     81 H         -15.5329  -12.3711    2.4128 H       1  LIG1        0.2923
     82 C         -14.5569  -14.2505    1.1519 C.1     1  LIG1       -0.0639
     83 C         -14.9116  -15.1993    1.8082 C.1     1  LIG1       -0.1137
     84 H         -15.1950  -16.0523    2.3808 H       1  LIG1        0.1232
     85 C         -11.5715  -13.7419   -2.1776 C.ar    1  LIG1        0.0476
     86 C         -12.8310  -13.9035   -1.5771 C.ar    1  LIG1        0.0241
     87 C         -13.5375  -15.0906   -1.8078 C.ar    1  LIG1       -0.0076
     88 C         -12.9847  -16.0618   -2.6249 C.ar    1  LIG1        0.1387
     89 C         -11.7386  -15.8006   -3.1997 C.ar    1  LIG1        0.0695
     90 N         -11.0616  -14.6870   -2.9780 N.ar    1  LIG1       -0.2559
     91 H         -14.5062  -15.2248   -1.3453 H       1  LIG1        0.0662
     92 H         -11.2924  -16.5455   -3.8538 H       1  LIG1        0.0867
     93 C         -10.6885  -12.5416   -1.9560 C.3     1  LIG1       -0.0217
     94 H         -10.7248  -12.1896   -0.9228 H       1  LIG1        0.0293
     95 H         -10.9619  -11.6974   -2.5999 H       1  LIG1        0.0293
     96 H          -9.6648  -12.8186   -2.2072 H       1  LIG1        0.0293
     97 O         -13.5546  -17.2536   -2.9281 O.3     1  LIG1       -0.4936
     98 C         -14.8060  -17.5504   -2.3430 C.3     1  LIG1        0.0789
     99 H         -15.0716  -18.5506   -2.6836 H       1  LIG1        0.0660
    100 H         -14.7498  -17.5428   -1.2483 H       1  LIG1        0.0660
    101 H         -15.5788  -16.8429   -2.6656 H       1  LIG1        0.0660
@<TRIPOS>BOND
     1    30    29    1
     2    73    72    1
     3    92    89    1
     4    29    28    3
     5    31    32    1
     6    31    24    1
     7    72    71    3
     8    89    90   ar
     9    89    88   ar
    10    28    23    1
    11    90    85   ar
    12    97    88    1
    13    97    98    1
    14    99    98    1
    15   101    98    1
    16    88    87   ar
    17    95    93    1
    18    98   100    1
    19    24    23   ar
    20    24    25   ar
    21    71    67    1
    22    96    93    1
    23    85    93    1
    24    85    86   ar
    25    23    22   ar
    26    93    94    1
    27    42    41    1
    28    41    33    1
    29    21    20    1
    30    87    86   ar
    31    87    91    1
    32    79    78    1
    33    68    66    1
    34    86    77    1
    35    20    19    3
    36    33    35   ar
    37    33    34   ar
    38    25    35    1
    39    25    26   ar
    40    37    34    1
    41    67    66   ar
    42    67    64   ar
    43    22    26   ar
    44    22    15    1
    45    78    77   ar
    46    78    74   ar
    47    19    14    1
    48    35    38   ar
    49    34    36   ar
    50    60    57    1
    51    66    63   ar
    52    77    76   ar
    53    26    27    1
    54    52    51    1
    55    15    14   ar
    56    15    16   ar
    57    38    40    1
    58    38    39   ar
    59    14    13   ar
    60    36    47    1
    61    36    39   ar
    62    59    57    1
    63    51    47   ar
    64    51    50   ar
    65    74    64    1
    66    74    75   ar
    67    64    62   ar
    68    47    48   ar
    69    57    58    1
    70    57    56    1
    71    39    43    1
    72    63    50    1
    73    63    61   ar
    74    45    43    1
    75    50    49   ar
    76    76    75   ar
    77    76    82    1
    78    48    49   ar
    79    48    53    1
    80    18    17    1
    81    49    56    1
    82    16    12   ar
    83    53    54    3
    84    13    17    1
    85    13    12   ar
    86    43    44    1
    87    43    46    1
    88    75    80    1
    89    54    55    1
    90    62    61   ar
    91    62    65    1
    92    82    83    3
    93    61    69    1
    94    12     5    1
    95    83    84    1
    96    80    81    1
    97     5     6   ar
    98     5     4   ar
    99    69    70    1
   100     6     1   ar
   101    11     4    1
   102     4     3   ar
   103     1     9    1
   104     1     2   ar
   105     9    10    1
   106     3     2   ar
   107     3     7    1
   108     2     8    1
