@<TRIPOS>MOLECULE
mol_data/opt/cam/geoms/mol2/6fa4ef6fl-4fe-.out
 52 55 0 0 0
SMALL
GASTEIGER

@<TRIPOS>ATOM
      1 C          -4.2231   -2.2409   -0.1974 C.ar    1  LIG1        0.2128
      2 C          -2.8385   -2.2644    0.0032 C.ar    1  LIG1       -0.0001
      3 C          -2.2039   -1.0508    0.1871 C.ar    1  LIG1       -0.0547
      4 C          -2.9383    0.1295    0.1533 C.ar    1  LIG1       -0.0354
      5 C          -4.3094    0.0465   -0.0755 C.ar    1  LIG1        0.0761
      6 N          -4.9319   -1.1311   -0.2337 N.ar    1  LIG1       -0.2130
      7 H          -1.1336   -1.0198    0.3636 H       1  LIG1        0.0620
      8 H          -2.2894   -3.2004    0.0225 H       1  LIG1        0.0671
      9 O          -4.9430   -3.3740   -0.3666 O.3     1  LIG1       -0.4924
     10 H          -4.3529   -4.1362   -0.3348 H       1  LIG1        0.2937
     11 H          -2.4576    1.0841    0.3054 H       1  LIG1        0.0639
     12 C          -4.8150    2.5380   -0.4753 C.ar    1  LIG1        0.0346
     13 C          -5.7608    3.5689   -0.4339 C.ar    1  LIG1       -0.0343
     14 C          -5.2047    1.2371   -0.0993 C.ar    1  LIG1        0.0193
     15 C          -7.0836    3.3851   -0.0400 C.ar    1  LIG1        0.0299
     16 H          -5.4494    4.5572   -0.7516 H       1  LIG1        0.0637
     17 C          -6.5328    1.0386    0.2702 C.ar    1  LIG1       -0.0092
     18 C          -7.4463    2.0769    0.3047 C.ar    1  LIG1        0.1254
     19 H          -6.8394    0.0302    0.5292 H       1  LIG1        0.0661
     20 C          -3.5126    2.8835   -0.9641 C.1     1  LIG1       -0.0690
     21 C          -2.4489    3.2519   -1.3927 C.1     1  LIG1       -0.1139
     22 H          -1.5058    3.5598   -1.7819 H       1  LIG1        0.1232
     23 O          -8.7429    1.8542    0.6927 O.3     1  LIG1       -0.5061
     24 H          -8.8689    0.9167    0.8860 H       1  LIG1        0.2922
     25 C          -9.2879    4.5930   -0.5376 C.ar    1  LIG1        0.2211
     26 C          -7.9955    4.5555    0.0179 C.ar    1  LIG1        0.0505
     27 C          -7.5252    5.7406    0.5905 C.ar    1  LIG1       -0.0049
     28 C          -8.2897    6.8963    0.5582 C.ar    1  LIG1        0.1469
     29 C          -9.5230    6.8481   -0.1100 C.ar    1  LIG1        0.1198
     30 N          -9.9981    5.7092   -0.6035 N.ar    1  LIG1       -0.2087
     31 H          -6.5566    5.7330    1.0747 H       1  LIG1        0.0662
     32 O          -9.8778    3.5166   -1.0989 O.3     1  LIG1       -0.4920
     33 H          -9.6142    2.7234   -0.6043 H       1  LIG1        0.2937
     34 O          -7.9491    8.0662    1.1583 O.3     1  LIG1       -0.4929
     35 C          -6.6533    8.1796    1.6974 C.3     1  LIG1        0.0789
     36 H          -6.5659    9.2001    2.0700 H       1  LIG1        0.0660
     37 H          -6.4955    7.4828    2.5301 H       1  LIG1        0.0660
     38 H          -5.8828    8.0065    0.9364 H       1  LIG1        0.0660
     39 C          -9.9421    9.2492   -0.7888 C.ar    1  LIG1        0.1262
     40 C         -10.8052   10.3380   -0.8982 C.ar    1  LIG1       -0.0184
     41 C         -10.3968    8.0434   -0.2376 C.ar    1  LIG1        0.0466
     42 C         -12.1213   10.2371   -0.4822 C.ar    1  LIG1       -0.0429
     43 H         -10.4402   11.2684   -1.3259 H       1  LIG1        0.0655
     44 C         -11.7289    7.9510    0.1469 C.ar    1  LIG1       -0.0335
     45 C         -12.6054    9.0346    0.0414 C.ar    1  LIG1        0.0255
     46 H         -12.0881    7.0051    0.5345 H       1  LIG1        0.0637
     47 H         -12.7863   11.0888   -0.5699 H       1  LIG1        0.0631
     48 O          -8.6644    9.3085   -1.2431 O.3     1  LIG1       -0.5061
     49 H          -8.5054   10.1800   -1.6236 H       1  LIG1        0.2922
     50 C         -13.9688    8.9169    0.4614 C.1     1  LIG1       -0.0696
     51 C         -15.1162    8.8228    0.8146 C.1     1  LIG1       -0.1139
     52 H         -16.1311    8.7338    1.1257 H       1  LIG1        0.1232
@<TRIPOS>BOND
     1    22    21    1
     2    49    48    1
     3    21    20    3
     4    43    40    1
     5    48    39    1
     6    32    33    1
     7    32    25    1
     8    20    12    1
     9    40    39   ar
    10    40    42   ar
    11    39    41   ar
    12    16    13    1
    13    30    25   ar
    14    30    29   ar
    15    47    42    1
    16    25    26   ar
    17    42    45   ar
    18    12    13   ar
    19    12    14   ar
    20    13    15   ar
    21     9    10    1
    22     9     1    1
    23    41    29    1
    24    41    44   ar
    25     6     1   ar
    26     6     5   ar
    27     1     2   ar
    28    29    28   ar
    29    14     5    1
    30    14    17   ar
    31     5     4   ar
    32    15    26    1
    33    15    18   ar
    34     2     8    1
    35     2     3   ar
    36    26    27   ar
    37    45    44   ar
    38    45    50    1
    39    44    46    1
    40     4     3   ar
    41     4    11    1
    42     3     7    1
    43    17    18   ar
    44    17    19    1
    45    18    23    1
    46    50    51    3
    47    28    27   ar
    48    28    34    1
    49    27    31    1
    50    23    24    1
    51    51    52    1
    52    38    35    1
    53    34    35    1
    54    35    36    1
    55    35    37    1
