@<TRIPOS>MOLECULE
mol_data/opt/cam/geoms/mol2/6fa6fa6fa-6fa.out
 42 45 0 0 0
SMALL
GASTEIGER

@<TRIPOS>ATOM
      1 C          -4.4641   -2.2577   -0.1952 C.ar    1  LIG1        0.2128
      2 C          -3.0826   -2.3513   -0.0374 C.ar    1  LIG1       -0.0001
      3 C          -2.3871   -1.1678    0.1517 C.ar    1  LIG1       -0.0547
      4 C          -3.0582    0.0446    0.1786 C.ar    1  LIG1       -0.0353
      5 C          -4.4464    0.0507    0.0113 C.ar    1  LIG1        0.0799
      6 N          -5.1120   -1.1051   -0.1711 N.ar    1  LIG1       -0.2129
      7 H          -1.3098   -1.1916    0.2797 H       1  LIG1        0.0620
      8 H          -2.5777   -3.3108   -0.0618 H       1  LIG1        0.0671
      9 O          -5.2556   -3.3318   -0.3856 O.3     1  LIG1       -0.4924
     10 H          -4.7203   -4.1342   -0.3917 H       1  LIG1        0.2937
     11 H          -2.5065    0.9620    0.3272 H       1  LIG1        0.0639
     12 C          -6.6752    1.2631   -0.1465 C.ar    1  LIG1        0.2223
     13 C          -5.2594    1.2822    0.0213 C.ar    1  LIG1        0.0618
     14 C          -4.6918    2.5418    0.1946 C.ar    1  LIG1       -0.0454
     15 C          -5.4577    3.6938    0.2037 C.ar    1  LIG1       -0.0347
     16 C          -6.8380    3.5623    0.0326 C.ar    1  LIG1        0.0799
     17 N          -7.4074    2.3662   -0.1362 N.ar    1  LIG1       -0.2123
     18 H          -3.6203    2.6389    0.3265 H       1  LIG1        0.0626
     19 O          -7.3585    0.1401   -0.3241 O.3     1  LIG1       -0.4919
     20 H          -6.7065   -0.6105   -0.3144 H       1  LIG1        0.2937
     21 H          -5.0014    4.6611    0.3380 H       1  LIG1        0.0639
     22 C          -7.4612    6.0623    0.2035 C.ar    1  LIG1        0.2223
     23 C          -7.7899    4.7045    0.0166 C.ar    1  LIG1        0.0618
     24 C          -9.1412    4.4580   -0.2088 C.ar    1  LIG1       -0.0454
     25 C         -10.0741    5.4852   -0.2248 C.ar    1  LIG1       -0.0347
     26 C          -9.6365    6.7911   -0.0020 C.ar    1  LIG1        0.0799
     27 N          -8.3376    7.0517    0.1986 N.ar    1  LIG1       -0.2123
     28 H          -9.4358    3.4296   -0.3802 H       1  LIG1        0.0626
     29 O          -6.1826    6.4378    0.4123 O.3     1  LIG1       -0.4919
     30 H          -6.2148    7.4004    0.5243 H       1  LIG1        0.2937
     31 H         -11.1113    5.2777   -0.4611 H       1  LIG1        0.0639
     32 C         -11.8625    7.9253    0.4946 C.ar    1  LIG1        0.2217
     33 C         -10.5464    7.9597   -0.0142 C.ar    1  LIG1        0.0618
     34 C         -10.1091    9.1747   -0.5327 C.ar    1  LIG1       -0.0460
     35 C         -10.9680   10.2617   -0.5858 C.ar    1  LIG1       -0.0427
     36 C         -12.2556   10.0877   -0.0993 C.ar    1  LIG1        0.0314
     37 N         -12.6926    8.9531    0.4415 N.ar    1  LIG1       -0.2209
     38 H          -9.0912    9.2403   -0.9003 H       1  LIG1        0.0626
     39 H         -12.9754   10.9023   -0.1358 H       1  LIG1        0.0831
     40 O         -12.3793    6.8327    1.0989 O.3     1  LIG1       -0.4919
     41 H         -11.6774    6.1877    1.2566 H       1  LIG1        0.2937
     42 H         -10.6540   11.2125   -0.9995 H       1  LIG1        0.0633
@<TRIPOS>BOND
     1    42    35    1
     2    38    34    1
     3    35    34   ar
     4    35    36   ar
     5    34    33   ar
     6    31    25    1
     7    10     9    1
     8     9     1    1
     9    28    24    1
    10    19    20    1
    11    19    12    1
    12    25    24   ar
    13    25    26   ar
    14    24    23   ar
    15     1     6   ar
    16     1     2   ar
    17     6     5   ar
    18    12    17   ar
    19    12    13   ar
    20    17    16   ar
    21    39    36    1
    22    36    37   ar
    23     8     2    1
    24     2     3   ar
    25    33    26    1
    26    33    32   ar
    27    26    27   ar
    28     5    13    1
    29     5     4   ar
    30    23    16    1
    31    23    22   ar
    32    13    14   ar
    33    16    15   ar
    34     3     4   ar
    35     3     7    1
    36     4    11    1
    37    14    15   ar
    38    14    18    1
    39    27    22   ar
    40    22    29    1
    41    15    21    1
    42    29    30    1
    43    37    32   ar
    44    32    40    1
    45    40    41    1
