@<TRIPOS>MOLECULE
mol_data/opt/cam/geoms/mol2/6fa6fa.out
 22 23 0 0 0
SMALL
GASTEIGER

@<TRIPOS>ATOM
      1 C          -4.4739   -2.0787    0.0002 C.ar    1  LIG1        0.2128
      2 C          -3.0806   -2.0931    0.0000 C.ar    1  LIG1       -0.0001
      3 C          -2.4376   -0.8657   -0.0003 C.ar    1  LIG1       -0.0547
      4 C          -3.1695    0.3111   -0.0004 C.ar    1  LIG1       -0.0353
      5 C          -4.5662    0.2378   -0.0003 C.ar    1  LIG1        0.0799
      6 N          -5.1795   -0.9601    0.0000 N.ar    1  LIG1       -0.2129
      7 H          -1.3531   -0.8267   -0.0004 H       1  LIG1        0.0620
      8 H          -2.5276   -3.0261    0.0001 H       1  LIG1        0.0671
      9 O          -5.2197   -3.2014    0.0005 O.3     1  LIG1       -0.4924
     10 H          -4.6436   -3.9751    0.0006 H       1  LIG1        0.2937
     11 H          -2.6564    1.2622   -0.0006 H       1  LIG1        0.0639
     12 C          -6.8656    1.3218   -0.0003 C.ar    1  LIG1        0.2217
     13 C          -5.4430    1.4274   -0.0004 C.ar    1  LIG1        0.0618
     14 C          -4.9188    2.7203   -0.0005 C.ar    1  LIG1       -0.0460
     15 C          -5.7503    3.8255   -0.0004 C.ar    1  LIG1       -0.0427
     16 C          -7.1207    3.5942   -0.0002 C.ar    1  LIG1        0.0314
     17 N          -7.6659    2.3865   -0.0002 N.ar    1  LIG1       -0.2209
     18 H          -3.8454    2.8705   -0.0006 H       1  LIG1        0.0626
     19 H          -7.8184    4.4296   -0.0002 H       1  LIG1        0.0831
     20 O          -7.4948    0.1552   -0.0005 O.3     1  LIG1       -0.4919
     21 H          -6.8039   -0.5590   -0.0008 H       1  LIG1        0.2937
     22 H          -5.3533    4.8333   -0.0005 H       1  LIG1        0.0633
@<TRIPOS>BOND
     1    21    20    1
     2    18    14    1
     3    11     4    1
     4    14    15   ar
     5    14    13   ar
     6    22    15    1
     7    20    12    1
     8    15    16   ar
     9     4     5   ar
    10     4     3   ar
    11    13     5    1
    12    13    12   ar
    13     7     3    1
    14     5     6   ar
    15    12    17   ar
    16     3     2   ar
    17    16    17   ar
    18    16    19    1
    19     2     8    1
    20     2     1   ar
    21     6     1   ar
    22     1     9    1
    23     9    10    1
