@<TRIPOS>MOLECULE
mol_data/opt/cam/geoms/mol2/6fa6fa6fa6fa-.out
 42 45 0 0 0
SMALL
GASTEIGER

@<TRIPOS>ATOM
      1 C          -4.4332   -2.2653   -0.0003 C.ar    1  LIG1        0.2128
      2 C          -3.0405   -2.3248   -0.0005 C.ar    1  LIG1       -0.0001
      3 C          -2.3562   -1.1199   -0.0006 C.ar    1  LIG1       -0.0547
      4 C          -3.0478    0.0815   -0.0005 C.ar    1  LIG1       -0.0353
      5 C          -4.4452    0.0530   -0.0003 C.ar    1  LIG1        0.0799
      6 N          -5.1008   -1.1234   -0.0002 N.ar    1  LIG1       -0.2129
      7 H          -1.2711   -1.1179   -0.0007 H       1  LIG1        0.0620
      8 H          -2.5190   -3.2755   -0.0005 H       1  LIG1        0.0671
      9 O          -5.2160   -3.3611   -0.0002 O.3     1  LIG1       -0.4924
     10 H          -4.6683   -4.1551   -0.0002 H       1  LIG1        0.2937
     11 H          -2.5048    1.0161   -0.0006 H       1  LIG1        0.0639
     12 C          -6.7015    1.1990   -0.0000 C.ar    1  LIG1        0.2223
     13 C          -5.2828    1.2655   -0.0002 C.ar    1  LIG1        0.0618
     14 C          -4.7388    2.5513   -0.0003 C.ar    1  LIG1       -0.0454
     15 C          -5.5313    3.6798   -0.0002 C.ar    1  LIG1       -0.0347
     16 C          -6.9233    3.5219    0.0000 C.ar    1  LIG1        0.0799
     17 N          -7.4587    2.2925    0.0001 N.ar    1  LIG1       -0.2123
     18 H          -3.6624    2.6796   -0.0005 H       1  LIG1        0.0626
     19 O          -7.3725    0.0608    0.0001 O.3     1  LIG1       -0.4919
     20 H          -6.7009   -0.6783   -0.0001 H       1  LIG1        0.2937
     21 H          -5.0732    4.6585   -0.0003 H       1  LIG1        0.0639
     22 C          -9.2811    4.4587    0.0004 C.ar    1  LIG1        0.2223
     23 C          -7.8676    4.6510    0.0001 C.ar    1  LIG1        0.0618
     24 C          -7.4397    5.9770    0.0000 C.ar    1  LIG1       -0.0454
     25 C          -8.3332    7.0319    0.0001 C.ar    1  LIG1       -0.0347
     26 C          -9.6996    6.7333    0.0004 C.ar    1  LIG1        0.0799
     27 N         -10.1355    5.4712    0.0005 N.ar    1  LIG1       -0.2123
     28 H          -6.3793    6.2027   -0.0002 H       1  LIG1        0.0626
     29 O          -9.8352    3.2555    0.0006 O.3     1  LIG1       -0.4919
     30 H          -9.0942    2.5870    0.0005 H       1  LIG1        0.2937
     31 H          -7.9869    8.0525    0.0000 H       1  LIG1        0.0639
     32 C         -10.5873    9.1554    0.0005 C.ar    1  LIG1        0.2217
     33 C         -10.7772    7.7597    0.0005 C.ar    1  LIG1        0.0618
     34 C         -12.1073    7.3404    0.0007 C.ar    1  LIG1       -0.0460
     35 C         -13.1494    8.2565    0.0008 C.ar    1  LIG1       -0.0427
     36 C         -12.8285    9.6030    0.0008 C.ar    1  LIG1        0.0314
     37 N         -11.5707   10.0431    0.0006 N.ar    1  LIG1       -0.2209
     38 H         -12.2890    6.2725    0.0008 H       1  LIG1        0.0626
     39 H         -13.6014   10.3674    0.0009 H       1  LIG1        0.0831
     40 O          -9.3449    9.6873    0.0003 O.3     1  LIG1       -0.4919
     41 H          -9.4854   10.6467    0.0003 H       1  LIG1        0.2937
     42 H         -14.1830    7.9320    0.0010 H       1  LIG1        0.0633
@<TRIPOS>BOND
     1     7     3    1
     2     3     4   ar
     3     3     2   ar
     4    11     4    1
     5     8     2    1
     6     4     5   ar
     7    18    14    1
     8     2     1   ar
     9    14    13   ar
    10    14    15   ar
    11     5    13    1
    12     5     6   ar
    13    21    15    1
    14     1     6   ar
    15     1     9    1
    16    13    12   ar
    17    10     9    1
    18    15    16   ar
    19    28    24    1
    20    20    19    1
    21    12    19    1
    22    12    17   ar
    23    24    25   ar
    24    24    23   ar
    25    16    17   ar
    26    16    23    1
    27    31    25    1
    28    25    26   ar
    29    23    22   ar
    30    40    41    1
    31    40    32    1
    32    26    27   ar
    33    26    33    1
    34    22    27   ar
    35    22    29    1
    36    32    33   ar
    37    32    37   ar
    38    30    29    1
    39    33    34   ar
    40    37    36   ar
    41    34    38    1
    42    34    35   ar
    43    36    35   ar
    44    36    39    1
    45    35    42    1
