@<TRIPOS>MOLECULE
mol_data/opt/cam/geoms/mol2/6fa6he-13ih-6ea-.out
 49 52 0 0 0
SMALL
GASTEIGER

@<TRIPOS>ATOM
      1 C          -4.3466   -2.2184    0.3528 C.ar    1  LIG1        0.2128
      2 C          -2.9523   -2.2064    0.3687 C.ar    1  LIG1       -0.0001
      3 C          -2.3326   -0.9687    0.3086 C.ar    1  LIG1       -0.0547
      4 C          -3.0929    0.1867    0.2233 C.ar    1  LIG1       -0.0353
      5 C          -4.4880    0.0767    0.1819 C.ar    1  LIG1        0.0781
      6 N          -5.0830   -1.1256    0.2589 N.ar    1  LIG1       -0.2129
      7 H          -1.2497   -0.9045    0.3399 H       1  LIG1        0.0620
      8 H          -2.3812   -3.1260    0.4407 H       1  LIG1        0.0671
      9 O          -5.0638   -3.3620    0.4338 O.3     1  LIG1       -0.4924
     10 H          -4.4638   -4.1135    0.5066 H       1  LIG1        0.2937
     11 H          -2.6112    1.1549    0.2153 H       1  LIG1        0.0639
     12 C          -6.7462    1.2725    0.3933 C.ar    1  LIG1        0.1262
     13 C          -5.3554    1.2669    0.0597 C.ar    1  LIG1        0.0412
     14 C          -4.8522    2.4625   -0.4255 C.ar    1  LIG1       -0.0317
     15 C          -5.6182    3.6283   -0.5138 C.ar    1  LIG1        0.0528
     16 C          -6.9421    3.5543   -0.0326 C.ar    1  LIG1        0.1049
     17 N          -7.4726    2.3957    0.3641 N.ar    1  LIG1       -0.2291
     18 H          -3.8348    2.5061   -0.7958 H       1  LIG1        0.0638
     19 N          -7.4017    0.1618    0.7838 N.pl3   1  LIG1       -0.3426
     20 H          -8.3863    0.2557    0.9682 H       1  LIG1        0.1437
     21 H          -6.9400   -0.7336    0.6833 H       1  LIG1        0.1437
     22 C          -5.0657    4.7620   -1.1834 C.1     1  LIG1       -0.0674
     23 C          -4.5464    5.6646   -1.7899 C.1     1  LIG1       -0.1138
     24 H          -4.1058    6.4710   -2.3285 H       1  LIG1        0.1232
     25 C          -7.8687    4.6869    0.0169 C.ar    1  LIG1        0.0714
     26 C          -7.7305    6.0464    0.2839 C.ar    1  LIG1       -0.0024
     27 C          -9.0321    6.5983    0.2271 C.ar    1  LIG1        0.0539
     28 C          -9.9373    5.5724   -0.0441 C.ar    1  LIG1        0.0708
     29 N          -9.1918    4.4280   -0.1650 N.ar    1  LIG1       -0.3512
     30 H          -9.5474    3.5019   -0.3421 H       1  LIG1        0.1660
     31 C          -6.5167    6.8211    0.6904 C.3     1  LIG1       -0.0359
     32 H          -6.7590    7.4899    1.5235 H       1  LIG1        0.0279
     33 H          -6.1113    7.4288   -0.1259 H       1  LIG1        0.0279
     34 H          -5.7118    6.1645    1.0195 H       1  LIG1        0.0279
     35 N          -9.3291    7.9537    0.4602 N.pl3   1  LIG1       -0.3561
     36 H          -8.5115    8.5373    0.3354 H       1  LIG1        0.1424
     37 H         -10.0701    8.2990   -0.1379 H       1  LIG1        0.1424
     38 C         -12.1818    4.6855   -0.8532 C.ar    1  LIG1        0.1222
     39 C         -11.3914    5.6159   -0.1371 C.ar    1  LIG1        0.0339
     40 C         -12.0939    6.6280    0.5354 C.ar    1  LIG1       -0.0485
     41 C         -13.4716    6.6957    0.4570 C.ar    1  LIG1       -0.0429
     42 C         -14.1435    5.7332   -0.2889 C.ar    1  LIG1        0.0290
     43 N         -13.5188    4.7493   -0.9204 N.ar    1  LIG1       -0.2460
     44 H         -11.5427    7.3384    1.1409 H       1  LIG1        0.0625
     45 H         -15.2269    5.7503   -0.3772 H       1  LIG1        0.0830
     46 C         -11.6053    3.5847   -1.5805 C.1     1  LIG1       -0.0491
     47 C         -11.1524    2.6515   -2.1920 C.1     1  LIG1       -0.1124
     48 H         -10.7566    1.8340   -2.7499 H       1  LIG1        0.1232
     49 H         -14.0214    7.4719    0.9781 H       1  LIG1        0.0633
@<TRIPOS>BOND
     1    48    47    1
     2    24    23    1
     3    47    46    3
     4    23    22    3
     5    46    38    1
     6    22    15    1
     7    43    38   ar
     8    43    42   ar
     9    38    39   ar
    10    18    14    1
    11    15    14   ar
    12    15    16   ar
    13    14    13   ar
    14    45    42    1
    15    30    29    1
    16    42    41   ar
    17    29    28   ar
    18    29    25   ar
    19    37    35    1
    20    39    28    1
    21    39    40   ar
    22    33    31    1
    23    28    27   ar
    24    16    25    1
    25    16    17   ar
    26    25    26   ar
    27    13     5    1
    28    13    12   ar
    29     5     4   ar
    30     5     6   ar
    31    11     4    1
    32     4     3   ar
    33    27    26   ar
    34    27    35    1
    35     6     1   ar
    36    26    31    1
    37     3     7    1
    38     3     2   ar
    39    36    35    1
    40     1     2   ar
    41     1     9    1
    42    17    12   ar
    43     2     8    1
    44    12    19    1
    45     9    10    1
    46    41    40   ar
    47    41    49    1
    48    40    44    1
    49    21    19    1
    50    31    34    1
    51    31    32    1
    52    19    20    1
