@<TRIPOS>MOLECULE
mol_data/opt/cam/geoms/mol2/6fa6fa6fa-6fa-.out
 42 45 0 0 0
SMALL
GASTEIGER

@<TRIPOS>ATOM
      1 C          -4.5094   -2.2731    0.2055 C.ar    1  LIG1        0.2128
      2 C          -3.1327   -2.3868    0.0226 C.ar    1  LIG1       -0.0001
      3 C          -2.4263   -1.2143   -0.1946 C.ar    1  LIG1       -0.0547
      4 C          -3.0825    0.0057   -0.2243 C.ar    1  LIG1       -0.0353
      5 C          -4.4678    0.0323   -0.0313 C.ar    1  LIG1        0.0799
      6 N          -5.1437   -1.1131    0.1788 N.ar    1  LIG1       -0.2129
      7 H          -1.3520   -1.2531   -0.3424 H       1  LIG1        0.0620
      8 H          -2.6396   -3.3524    0.0498 H       1  LIG1        0.0671
      9 O          -5.3102   -3.3354    0.4250 O.3     1  LIG1       -0.4924
     10 H          -4.7835   -4.1433    0.4316 H       1  LIG1        0.2937
     11 H          -2.5226    0.9143   -0.3944 H       1  LIG1        0.0639
     12 C          -6.6756    1.2776    0.1569 C.ar    1  LIG1        0.2223
     13 C          -5.2642    1.2736   -0.0425 C.ar    1  LIG1        0.0618
     14 C          -4.6837    2.5233   -0.2486 C.ar    1  LIG1       -0.0454
     15 C          -5.4338    3.6846   -0.2591 C.ar    1  LIG1       -0.0347
     16 C          -6.8126    3.5762   -0.0543 C.ar    1  LIG1        0.0799
     17 N          -7.3931    2.3901    0.1467 N.ar    1  LIG1       -0.2123
     18 H          -3.6142    2.6036   -0.4061 H       1  LIG1        0.0626
     19 O          -7.3705    0.1661    0.3666 O.3     1  LIG1       -0.4919
     20 H          -6.7298   -0.5931    0.3517 H       1  LIG1        0.2937
     21 H          -4.9694    4.6440   -0.4196 H       1  LIG1        0.0639
     22 C          -7.3994    6.0784   -0.2712 C.ar    1  LIG1        0.2223
     23 C          -7.7443    4.7337   -0.0337 C.ar    1  LIG1        0.0618
     24 C          -9.0929    4.5145    0.2432 C.ar    1  LIG1       -0.0454
     25 C         -10.0010    5.5600    0.2779 C.ar    1  LIG1       -0.0347
     26 C          -9.5427    6.8491    0.0183 C.ar    1  LIG1        0.0799
     27 N          -8.2557    7.0846   -0.2530 N.ar    1  LIG1       -0.2123
     28 H          -9.4000    3.4941    0.4383 H       1  LIG1        0.0626
     29 O          -6.1244    6.4277   -0.5505 O.3     1  LIG1       -0.4919
     30 H          -6.1504    7.3911   -0.6599 H       1  LIG1        0.2937
     31 H         -11.0414    5.3833    0.5220 H       1  LIG1        0.0639
     32 C         -10.1725    9.2440    0.5934 C.ar    1  LIG1        0.2217
     33 C         -10.4737    8.0015    0.0000 C.ar    1  LIG1        0.0618
     34 C         -11.7185    7.9018   -0.6072 C.ar    1  LIG1       -0.0460
     35 C         -12.5915    8.9858   -0.6266 C.ar    1  LIG1       -0.0427
     36 C         -12.1756   10.1569   -0.0206 C.ar    1  LIG1        0.0314
     37 N         -10.9915   10.2842    0.5827 N.ar    1  LIG1       -0.2209
     38 H         -11.9949    6.9681   -1.0865 H       1  LIG1        0.0626
     39 H         -12.8117   11.0383   -0.0104 H       1  LIG1        0.0831
     40 O          -9.0086    9.4083    1.2440 O.3     1  LIG1       -0.4919
     41 H          -9.0365   10.3125    1.5919 H       1  LIG1        0.2937
     42 H         -13.5605    8.9214   -1.1064 H       1  LIG1        0.0633
@<TRIPOS>BOND
     1    42    35    1
     2    38    34    1
     3    30    29    1
     4    35    34   ar
     5    35    36   ar
     6    34    33   ar
     7    29    22    1
     8    21    15    1
     9    18    14    1
    10    11     4    1
    11     7     3    1
    12    22    27   ar
    13    22    23   ar
    14    15    14   ar
    15    15    16   ar
    16    27    26   ar
    17    14    13   ar
    18     4     3   ar
    19     4     5   ar
    20     3     2   ar
    21    16    23    1
    22    16    17   ar
    23    13     5    1
    24    13    12   ar
    25    23    24   ar
    26     5     6   ar
    27    36    39    1
    28    36    37   ar
    29    33    26    1
    30    33    32   ar
    31    26    25   ar
    32     2     8    1
    33     2     1   ar
    34    17    12   ar
    35    12    19    1
    36     6     1   ar
    37     1     9    1
    38    24    25   ar
    39    24    28    1
    40    25    31    1
    41    20    19    1
    42     9    10    1
    43    37    32   ar
    44    32    40    1
    45    40    41    1
