@<TRIPOS>MOLECULE
mol_data/opt/cam/geoms/mol2/6fa6fa-6fa.out
 32 34 0 0 0
SMALL
GASTEIGER

@<TRIPOS>ATOM
      1 C          -4.4957   -2.1209   -0.2140 C.ar    1  LIG1        0.2128
      2 C          -3.1127   -2.2408   -0.0345 C.ar    1  LIG1       -0.0001
      3 C          -2.4013   -1.0748    0.1695 C.ar    1  LIG1       -0.0547
      4 C          -3.0571    0.1520    0.1927 C.ar    1  LIG1       -0.0353
      5 C          -4.4391    0.1638    0.0061 C.ar    1  LIG1        0.0799
      6 N          -5.1310   -0.9694   -0.1938 N.ar    1  LIG1       -0.2129
      7 H          -1.3261   -1.1144    0.3119 H       1  LIG1        0.0620
      8 H          -2.6239   -3.2095   -0.0557 H       1  LIG1        0.0671
      9 O          -5.2875   -3.1983   -0.4235 O.3     1  LIG1       -0.4924
     10 H          -4.7471   -3.9970   -0.4228 H       1  LIG1        0.2937
     11 H          -2.5127    1.0691    0.3499 H       1  LIG1        0.0639
     12 C          -4.8156    2.7055    0.2586 C.ar    1  LIG1        0.2223
     13 C          -5.2712    1.3970   -0.0000 C.ar    1  LIG1        0.0618
     14 C          -6.6293    1.3007   -0.2879 C.ar    1  LIG1       -0.0454
     15 C          -7.4517    2.4187   -0.2973 C.ar    1  LIG1       -0.0347
     16 C          -6.8942    3.6630   -0.0023 C.ar    1  LIG1        0.0799
     17 N          -5.5857    3.7794    0.2613 N.ar    1  LIG1       -0.2123
     18 H          -7.0227    0.3169   -0.5130 H       1  LIG1        0.0626
     19 O          -3.5163    2.9372    0.5371 O.3     1  LIG1       -0.4919
     20 H          -3.4543    3.8923    0.6921 H       1  LIG1        0.2937
     21 H          -8.4933    2.3283   -0.5826 H       1  LIG1        0.0639
     22 C          -9.0134    5.0019    0.4491 C.ar    1  LIG1        0.2217
     23 C          -7.6789    4.9192   -0.0023 C.ar    1  LIG1        0.0618
     24 C          -7.0970    6.1012   -0.4504 C.ar    1  LIG1       -0.0460
     25 C          -7.8378    7.2722   -0.4939 C.ar    1  LIG1       -0.0427
     26 C          -9.1576    7.2138   -0.0699 C.ar    1  LIG1        0.0314
     27 N          -9.7319    6.1110    0.4040 N.ar    1  LIG1       -0.2209
     28 H          -6.0619    6.0752   -0.7721 H       1  LIG1        0.0626
     29 H          -9.7886    8.0991   -0.1027 H       1  LIG1        0.0831
     30 O          -9.6659    3.9464    0.9848 O.3     1  LIG1       -0.4919
     31 H          -9.0398    3.2293    1.1498 H       1  LIG1        0.2937
     32 H          -7.4101    8.2003   -0.8535 H       1  LIG1        0.0633
@<TRIPOS>BOND
     1    32    25    1
     2    28    24    1
     3    21    15    1
     4    18    14    1
     5    25    24   ar
     6    25    26   ar
     7    24    23   ar
     8     9    10    1
     9     9     1    1
    10    15    14   ar
    11    15    16   ar
    12    14    13   ar
    13     1     6   ar
    14     1     2   ar
    15     6     5   ar
    16    29    26    1
    17    26    27   ar
    18     8     2    1
    19     2     3   ar
    20    23    16    1
    21    23    22   ar
    22    16    17   ar
    23    13     5    1
    24    13    12   ar
    25     5     4   ar
    26     3     4   ar
    27     3     7    1
    28     4    11    1
    29    12    17   ar
    30    12    19    1
    31    27    22   ar
    32    22    30    1
    33    19    20    1
    34    30    31    1
