@<TRIPOS>MOLECULE
mol_data/opt/cam/geoms/mol2/6fa6fa-6fa6fa-.out
 42 45 0 0 0
SMALL
GASTEIGER

@<TRIPOS>ATOM
      1 C          -4.4765   -2.2088   -0.3777 C.ar    1  LIG1        0.2128
      2 C          -3.1220   -2.3759   -0.0670 C.ar    1  LIG1       -0.0001
      3 C          -2.4160   -1.2461    0.2968 C.ar    1  LIG1       -0.0547
      4 C          -3.0497   -0.0085    0.3457 C.ar    1  LIG1       -0.0353
      5 C          -4.4045    0.0516    0.0198 C.ar    1  LIG1        0.0799
      6 N          -5.0909   -1.0465   -0.3353 N.ar    1  LIG1       -0.2129
      7 H          -1.3623   -1.3227    0.5452 H       1  LIG1        0.0620
      8 H          -2.6502   -3.3523   -0.1116 H       1  LIG1        0.0671
      9 O          -5.2607   -3.2480   -0.7481 O.3     1  LIG1       -0.4924
     10 H          -4.7367   -4.0576   -0.7528 H       1  LIG1        0.2937
     11 H          -2.5091    0.8808    0.6270 H       1  LIG1        0.0639
     12 C          -4.7609    2.5767    0.4222 C.ar    1  LIG1        0.2223
     13 C          -5.2102    1.3019    0.0226 C.ar    1  LIG1        0.0618
     14 C          -6.5336    1.2605   -0.4063 C.ar    1  LIG1       -0.0454
     15 C          -7.3314    2.3958   -0.4141 C.ar    1  LIG1       -0.0347
     16 C          -6.7861    3.6019    0.0283 C.ar    1  LIG1        0.0799
     17 N          -5.5089    3.6659    0.4292 N.ar    1  LIG1       -0.2123
     18 H          -6.9187    0.3059   -0.7434 H       1  LIG1        0.0626
     19 O          -3.4924    2.7559    0.8446 O.3     1  LIG1       -0.4919
     20 H          -3.4301    3.6960    1.0742 H       1  LIG1        0.2937
     21 H          -8.3389    2.3520   -0.8110 H       1  LIG1        0.0639
     22 C          -8.9193    4.9596    0.3491 C.ar    1  LIG1        0.2223
     23 C          -7.5444    4.8713    0.0462 C.ar    1  LIG1        0.0618
     24 C          -6.9078    6.0759   -0.2281 C.ar    1  LIG1       -0.0454
     25 C          -7.6111    7.2694   -0.2609 C.ar    1  LIG1       -0.0347
     26 C          -8.9824    7.2345   -0.0009 C.ar    1  LIG1        0.0799
     27 N          -9.5976    6.0856    0.3137 N.ar    1  LIG1       -0.2123
     28 H          -5.8427    6.0591   -0.4303 H       1  LIG1        0.0626
     29 O          -9.6535    3.8855    0.7214 O.3     1  LIG1       -0.4919
     30 H          -9.0647    3.1407    0.9006 H       1  LIG1        0.2937
     31 H          -7.1153    8.1987   -0.4907 H       1  LIG1        0.0639
     32 C          -9.4870    9.7293   -0.3980 C.ar    1  LIG1        0.2217
     33 C          -9.8712    8.4265   -0.0245 C.ar    1  LIG1        0.0618
     34 C         -11.2088    8.2834    0.3428 C.ar    1  LIG1       -0.0460
     35 C         -12.0760    9.3665    0.3343 C.ar    1  LIG1       -0.0427
     36 C         -11.5727   10.5966   -0.0524 C.ar    1  LIG1        0.0314
     37 N         -10.3020   10.7731   -0.4123 N.ar    1  LIG1       -0.2209
     38 H         -11.5419    7.2944    0.6331 H       1  LIG1        0.0626
     39 H         -12.2036   11.4814   -0.0787 H       1  LIG1        0.0831
     40 O          -8.2187    9.9936   -0.7808 O.3     1  LIG1       -0.4919
     41 H          -8.2122   10.9406   -0.9887 H       1  LIG1        0.2937
     42 H         -13.1150    9.2568    0.6207 H       1  LIG1        0.0633
@<TRIPOS>BOND
     1    41    40    1
     2    21    15    1
     3    40    32    1
     4    10     9    1
     5     9     1    1
     6    18    14    1
     7    31    25    1
     8    28    24    1
     9    15    14   ar
    10    15    16   ar
    11    37    32   ar
    12    37    36   ar
    13    14    13   ar
    14    32    33   ar
    15     1     6   ar
    16     1     2   ar
    17     6     5   ar
    18    25    24   ar
    19    25    26   ar
    20    24    23   ar
    21     8     2    1
    22    39    36    1
    23     2     3   ar
    24    36    35   ar
    25    33    26    1
    26    33    34   ar
    27    26    27   ar
    28     5    13    1
    29     5     4   ar
    30    13    12   ar
    31    16    23    1
    32    16    17   ar
    33    23    22   ar
    34     3     4   ar
    35     3     7    1
    36    27    22   ar
    37    35    34   ar
    38    35    42    1
    39    34    38    1
    40     4    11    1
    41    22    29    1
    42    12    17   ar
    43    12    19    1
    44    29    30    1
    45    19    20    1
