@<TRIPOS>MOLECULE
mol_data/opt/cam/geoms/mol2/6fa6fa6fa.out
 32 34 0 0 0
SMALL
GASTEIGER

@<TRIPOS>ATOM
      1 C          -4.4241   -2.1580   -0.0001 C.ar    1  LIG1        0.2128
      2 C          -3.0304   -2.1864   -0.0002 C.ar    1  LIG1       -0.0001
      3 C          -2.3730   -0.9668   -0.0003 C.ar    1  LIG1       -0.0547
      4 C          -3.0913    0.2190   -0.0003 C.ar    1  LIG1       -0.0353
      5 C          -4.4874    0.1593   -0.0002 C.ar    1  LIG1        0.0799
      6 N          -5.1169   -1.0311   -0.0001 N.ar    1  LIG1       -0.2129
      7 H          -1.2882   -0.9408   -0.0004 H       1  LIG1        0.0620
      8 H          -2.4880   -3.1254   -0.0002 H       1  LIG1        0.0671
      9 O          -5.1822   -3.2708    0.0000 O.3     1  LIG1       -0.4924
     10 H          -4.6171   -4.0526    0.0000 H       1  LIG1        0.2937
     11 H          -2.5691    1.1654   -0.0004 H       1  LIG1        0.0639
     12 C          -6.7687    1.2544   -0.0001 C.ar    1  LIG1        0.2223
     13 C          -5.3522    1.3529   -0.0002 C.ar    1  LIG1        0.0618
     14 C          -4.8378    2.6504   -0.0003 C.ar    1  LIG1       -0.0454
     15 C          -5.6558    3.7609   -0.0003 C.ar    1  LIG1       -0.0347
     16 C          -7.0437    3.5719   -0.0002 C.ar    1  LIG1        0.0799
     17 N          -7.5501    2.3310   -0.0001 N.ar    1  LIG1       -0.2123
     18 H          -3.7646    2.8032   -0.0004 H       1  LIG1        0.0626
     19 O          -7.4142    0.1018   -0.0000 O.3     1  LIG1       -0.4919
     20 H          -6.7267   -0.6224   -0.0000 H       1  LIG1        0.2937
     21 H          -5.2182    4.7488   -0.0004 H       1  LIG1        0.0639
     22 C          -9.4241    4.4510    0.0000 C.ar    1  LIG1        0.2217
     23 C          -8.0153    4.6815   -0.0002 C.ar    1  LIG1        0.0618
     24 C          -7.6040    6.0149   -0.0003 C.ar    1  LIG1       -0.0460
     25 C          -8.5282    7.0434   -0.0003 C.ar    1  LIG1       -0.0427
     26 C          -9.8739    6.6932   -0.0001 C.ar    1  LIG1        0.0314
     27 N         -10.3139    5.4437    0.0001 N.ar    1  LIG1       -0.2209
     28 H          -6.5471    6.2560   -0.0005 H       1  LIG1        0.0626
     29 H         -10.6408    7.4657   -0.0001 H       1  LIG1        0.0831
     30 O          -9.9450    3.2351    0.0002 O.3     1  LIG1       -0.4919
     31 H          -9.1881    2.5846    0.0002 H       1  LIG1        0.2937
     32 H          -8.2211    8.0821   -0.0004 H       1  LIG1        0.0633
@<TRIPOS>BOND
     1    28    24    1
     2    32    25    1
     3    18    14    1
     4    21    15    1
     5    11     4    1
     6     7     3    1
     7    14    15   ar
     8    14    13   ar
     9    24    25   ar
    10    24    23   ar
    11    15    16   ar
    12     4     3   ar
    13     4     5   ar
    14    25    26   ar
    15     3     2   ar
    16     5    13    1
    17     5     6   ar
    18    13    12   ar
    19     2     8    1
    20     2     1   ar
    21    16    23    1
    22    16    17   ar
    23    23    22   ar
    24     6     1   ar
    25     1     9    1
    26    12    17   ar
    27    12    19    1
    28    26    29    1
    29    26    27   ar
    30    20    19    1
    31     9    10    1
    32    22    27   ar
    33    22    30    1
    34    31    30    1
