@<TRIPOS>MOLECULE
mol_data/opt/cam/geoms/mol2/6fa6la-12hi12ae-4fi13ll-4di-4ai.out
 103 110 0 0 0
SMALL
GASTEIGER

@<TRIPOS>ATOM
      1 C          -3.0661   -1.3309   -0.6091 C.ar    1  LIG1        0.2128
      2 C          -1.7248   -1.0493   -0.8950 C.ar    1  LIG1       -0.0001
      3 C          -1.3451    0.2796   -0.9312 C.ar    1  LIG1       -0.0547
      4 C          -2.2916    1.2678   -0.6898 C.ar    1  LIG1       -0.0353
      5 C          -3.6018    0.8782   -0.4106 C.ar    1  LIG1        0.0799
      6 N          -3.9753   -0.4062   -0.3705 N.ar    1  LIG1       -0.2129
      7 H          -0.3172    0.5459   -1.1558 H       1  LIG1        0.0620
      8 H          -1.0122   -1.8462   -1.0835 H       1  LIG1        0.0671
      9 O          -3.5276   -2.6028   -0.5489 O.3     1  LIG1       -0.4924
     10 H          -2.8029   -3.2123   -0.7310 H       1  LIG1        0.2937
     11 H          -2.0308    2.3180   -0.7353 H       1  LIG1        0.0639
     12 C          -5.9182    1.9057   -0.6933 C.ar    1  LIG1        0.2245
     13 C          -4.6307    1.9011   -0.1049 C.ar    1  LIG1        0.0620
     14 C          -4.3763    2.9230    0.7952 C.ar    1  LIG1       -0.0453
     15 C          -5.3446    3.8746    1.0978 C.ar    1  LIG1       -0.0317
     16 C          -6.5786    3.7822    0.4547 C.ar    1  LIG1        0.1117
     17 N          -6.8444    2.8041   -0.4289 N.ar    1  LIG1       -0.2092
     18 H          -3.4141    2.9536    1.2972 H       1  LIG1        0.0626
     19 O          -6.1844    0.9600   -1.6033 O.3     1  LIG1       -0.4792
     20 C          -7.4804    0.9708   -2.1891 C.3     1  LIG1        0.0804
     21 H          -7.4956    0.1199   -2.8695 H       1  LIG1        0.0660
     22 H          -8.2567    0.8661   -1.4282 H       1  LIG1        0.0660
     23 H          -7.6597    1.9004   -2.7342 H       1  LIG1        0.0660
     24 H          -5.1688    4.6202    1.8629 H       1  LIG1        0.0640
     25 C          -7.6345    4.7455    0.7060 C.ar    1  LIG1        0.1748
     26 C          -7.6323    6.0243    1.2073 C.ar    1  LIG1        0.0762
     27 C          -8.9914    6.4656    1.2325 C.ar    1  LIG1        0.0197
     28 C          -9.7173    5.4248    0.7182 C.ar    1  LIG1        0.1754
     29 O          -8.9175    4.3883    0.3944 O.2     1  LIG1       -0.4480
     30 N          -6.5451    6.7747    1.6538 N.pl3   1  LIG1       -0.3548
     31 H          -5.6776    6.5424    1.1882 H       1  LIG1        0.1424
     32 H          -6.7112    7.7710    1.6068 H       1  LIG1        0.1424
     33 C          -9.4824    7.7807    1.7436 C.3     1  LIG1       -0.0342
     34 H         -10.5086    7.6995    2.1088 H       1  LIG1        0.0279
     35 H          -9.4676    8.5613    0.9741 H       1  LIG1        0.0279
     36 H          -8.8658    8.1263    2.5787 H       1  LIG1        0.0279
     37 C         -11.1305    5.2646    0.4805 C.ar    1  LIG1        0.1721
     38 C         -12.1663    6.1409    0.3814 C.ar    1  LIG1        0.0033
     39 C         -13.3456    5.3588    0.1545 C.ar    1  LIG1        0.0712
     40 C         -12.9336    4.0469    0.1114 C.ar    1  LIG1        0.1546
     41 O         -11.5902    3.9950    0.3182 O.2     1  LIG1       -0.4503
     42 H         -12.1219    7.2166    0.4404 H       1  LIG1        0.0669
     43 C         -14.6633    5.8863    0.0872 C.1     1  LIG1       -0.0658
     44 C         -15.7567    6.3892    0.0697 C.1     1  LIG1       -0.1138
     45 H         -16.7303    6.8206    0.0471 H       1  LIG1        0.1232
     46 C         -14.6803    2.5364   -0.8796 C.ar    1  LIG1        0.1282
     47 C         -15.2545    1.2771   -0.9641 C.ar    1  LIG1       -0.0100
     48 C         -13.5882    2.7511   -0.0289 C.ar    1  LIG1        0.0601
     49 C         -14.7660    0.1908   -0.2315 C.ar    1  LIG1        0.0084
     50 H         -16.1034    1.1241   -1.6219 H       1  LIG1        0.0661
     51 C         -13.1016    1.6556    0.6877 C.ar    1  LIG1       -0.0440
     52 C         -13.6563    0.3841    0.6181 C.ar    1  LIG1       -0.0403
     53 H         -12.2528    1.8197    1.3429 H       1  LIG1        0.0629
     54 O         -15.1193    3.5732   -1.6341 O.3     1  LIG1       -0.5060
     55 H         -15.8915    3.2966   -2.1412 H       1  LIG1        0.2922
     56 C         -13.0666   -0.7037    1.4826 C.3     1  LIG1       -0.0391
     57 H         -12.4700   -0.2641    2.2841 H       1  LIG1        0.0278
     58 H         -12.3914   -1.3654    0.9251 H       1  LIG1        0.0278
     59 H         -13.8392   -1.3261    1.9402 H       1  LIG1        0.0278
     60 C         -15.4534   -1.0931   -0.3934 C.ar    1  LIG1        0.0933
     61 C         -16.7777   -1.3548   -0.7086 C.ar    1  LIG1        0.1875
     62 C         -16.9421   -2.7606   -0.8251 C.ar    1  LIG1        0.1875
     63 C         -15.7126   -3.3435   -0.5774 C.ar    1  LIG1        0.0942
     64 N         -14.8392   -2.3165   -0.2859 N.ar    1  LIG1       -0.3482
     65 H         -13.8409   -2.4404   -0.2644 H       1  LIG1        0.1661
     66 O         -17.7664   -0.4201   -0.8525 O.3     1  LIG1       -0.4895
     67 C         -18.6609   -0.3723    0.2554 C.3     1  LIG1        0.0791
     68 H         -19.4202    0.3733    0.0153 H       1  LIG1        0.0660
     69 H         -19.1382   -1.3446    0.4151 H       1  LIG1        0.0660
     70 H         -18.1325   -0.0752    1.1676 H       1  LIG1        0.0660
     71 O         -18.1065   -3.4387   -0.9940 O.3     1  LIG1       -0.4895
     72 C         -18.8829   -3.0471   -2.1291 C.3     1  LIG1        0.0791
     73 H         -19.7934   -3.6453   -2.0903 H       1  LIG1        0.0660
     74 H         -19.1318   -1.9843   -2.0874 H       1  LIG1        0.0660
     75 H         -18.3477   -3.2717   -3.0542 H       1  LIG1        0.0660
     76 C         -15.7002   -5.7619   -1.3091 C.ar    1  LIG1        0.0616
     77 C         -15.2636   -7.0704   -1.0995 C.ar    1  LIG1       -0.0357
     78 C         -15.2943   -4.7360   -0.4376 C.ar    1  LIG1        0.0196
     79 C         -14.4025   -7.4059   -0.0591 C.ar    1  LIG1       -0.0137
     80 H         -15.5830   -7.8424   -1.7907 H       1  LIG1        0.0637
     81 C         -14.4355   -5.0912    0.6064 C.ar    1  LIG1       -0.0478
     82 C         -13.9756   -6.3880    0.8141 C.ar    1  LIG1       -0.0420
     83 H         -14.1461   -4.3208    1.3146 H       1  LIG1        0.0627
     84 N         -17.0979   -5.3632   -3.4517 N.1     1  LIG1       -0.1908
     85 C         -16.4964   -5.5073   -2.4737 C.1     1  LIG1        0.0998
     86 C         -13.0759   -6.6614    1.9915 C.3     1  LIG1       -0.0391
     87 H         -13.1967   -5.8887    2.7535 H       1  LIG1        0.0278
     88 H         -12.0213   -6.6691    1.6989 H       1  LIG1        0.0278
     89 H         -13.2897   -7.6313    2.4437 H       1  LIG1        0.0278
     90 C         -14.9523   -9.8309    0.1813 C.ar    1  LIG1       -0.0540
     91 C         -14.5692  -11.1621    0.2918 C.ar    1  LIG1       -0.0609
     92 C         -13.9871   -8.8275    0.0888 C.ar    1  LIG1       -0.0173
     93 C         -13.2246  -11.5046    0.3053 C.ar    1  LIG1       -0.0588
     94 H         -15.3258  -11.9358    0.3728 H       1  LIG1        0.0618
     95 C         -12.6380   -9.1916    0.1002 C.ar    1  LIG1       -0.0511
     96 C         -12.2391  -10.5212    0.2043 C.ar    1  LIG1       -0.0499
     97 H         -11.8799   -8.4199    0.0048 H       1  LIG1        0.0626
     98 H         -12.9327  -12.5472    0.3939 H       1  LIG1        0.0620
     99 H         -16.0040   -9.5629    0.1822 H       1  LIG1        0.0624
    100 C         -10.7803  -10.8958    0.1813 C.3     1  LIG1       -0.0397
    101 H         -10.1420  -10.0286    0.3641 H       1  LIG1        0.0278
    102 H         -10.4966  -11.3154   -0.7895 H       1  LIG1        0.0278
    103 H         -10.5515  -11.6500    0.9391 H       1  LIG1        0.0278
@<TRIPOS>BOND
     1    84    85    3
     2    75    72    1
     3    21    20    1
     4    23    20    1
     5    85    76    1
     6    20    19    1
     7    20    22    1
     8    55    54    1
     9    72    73    1
    10    72    74    1
    11    72    71    1
    12    80    77    1
    13    54    46    1
    14    50    47    1
    15    19    12    1
    16    76    77   ar
    17    76    78   ar
    18     7     3    1
    19    77    79   ar
    20     8     2    1
    21    71    62    1
    22    47    46   ar
    23    47    49   ar
    24     3     2   ar
    25     3     4   ar
    26     2     1   ar
    27    46    48   ar
    28    66    61    1
    29    66    67    1
    30    62    61   ar
    31    62    63   ar
    32   102   100    1
    33    11     4    1
    34    10     9    1
    35    61    60   ar
    36    12    17   ar
    37    12    13   ar
    38     4     5   ar
    39     1     9    1
    40     1     6   ar
    41    63    78    1
    42    63    64   ar
    43    78    81   ar
    44    17    16   ar
    45     5     6   ar
    46     5    13    1
    47    60    64   ar
    48    60    49    1
    49    64    65    1
    50    49    52   ar
    51    13    14   ar
    52    79    92    1
    53    79    82   ar
    54    48    40    1
    55    48    51   ar
    56    97    95    1
    57    68    67    1
    58    45    44    1
    59    44    43    3
    60    43    39    1
    61    92    95   ar
    62    92    90   ar
    63    95    96   ar
    64    40    39   ar
    65    40    41   ar
    66    39    38   ar
    67   100    96    1
    68   100   101    1
    69   100   103    1
    70    90    99    1
    71    90    91   ar
    72    96    93   ar
    73    67    69    1
    74    67    70    1
    75    91    93   ar
    76    91    94    1
    77    93    98    1
    78    41    37   ar
    79    38    42    1
    80    38    37   ar
    81    29    25   ar
    82    29    28   ar
    83    16    25    1
    84    16    15   ar
    85    37    28    1
    86    81    82   ar
    87    81    83    1
    88    52    51   ar
    89    52    56    1
    90    51    53    1
    91    25    26   ar
    92    28    27   ar
    93    14    15   ar
    94    14    18    1
    95    82    86    1
    96    58    56    1
    97    35    33    1
    98    15    24    1
    99    31    30    1
   100    26    27   ar
   101    26    30    1
   102    27    33    1
   103    56    59    1
   104    56    57    1
   105    32    30    1
   106    88    86    1
   107    33    34    1
   108    33    36    1
   109    86    89    1
   110    86    87    1
