@<TRIPOS>MOLECULE
mol_data/opt/cam/geoms/mol2/6fa6fa6fa6fa.out
 42 45 0 0 0
SMALL
GASTEIGER

@<TRIPOS>ATOM
      1 C          -4.3874   -2.2405   -0.0003 C.ar    1  LIG1        0.2128
      2 C          -2.9940   -2.2855   -0.0004 C.ar    1  LIG1       -0.0001
      3 C          -2.3216   -1.0745   -0.0005 C.ar    1  LIG1       -0.0547
      4 C          -3.0250    0.1207   -0.0005 C.ar    1  LIG1       -0.0353
      5 C          -4.4212    0.0776   -0.0003 C.ar    1  LIG1        0.0799
      6 N          -5.0657   -1.1046   -0.0002 N.ar    1  LIG1       -0.2129
      7 H          -1.2367   -1.0620   -0.0007 H       1  LIG1        0.0620
      8 H          -2.4630   -3.2310   -0.0005 H       1  LIG1        0.0671
      9 O          -5.1597   -3.3428   -0.0001 O.3     1  LIG1       -0.4924
     10 H          -4.6059   -4.1327   -0.0002 H       1  LIG1        0.2937
     11 H          -2.4909    1.0604   -0.0006 H       1  LIG1        0.0639
     12 C          -6.6911    1.1953    0.0000 C.ar    1  LIG1        0.2223
     13 C          -5.2730    1.2814   -0.0002 C.ar    1  LIG1        0.0618
     14 C          -4.7452    2.5728   -0.0004 C.ar    1  LIG1       -0.0454
     15 C          -5.5520    3.6926   -0.0003 C.ar    1  LIG1       -0.0347
     16 C          -6.9399    3.5158   -0.0000 C.ar    1  LIG1        0.0799
     17 N          -7.4614    2.2801    0.0001 N.ar    1  LIG1       -0.2123
     18 H          -3.6706    2.7143   -0.0005 H       1  LIG1        0.0626
     19 O          -7.3472    0.0502    0.0002 O.3     1  LIG1       -0.4919
     20 H          -6.6656   -0.6813    0.0001 H       1  LIG1        0.2937
     21 H          -5.1060    4.6772   -0.0004 H       1  LIG1        0.0639
     22 C          -9.3051    4.4022    0.0003 C.ar    1  LIG1        0.2223
     23 C          -7.9021    4.6286    0.0001 C.ar    1  LIG1        0.0618
     24 C          -7.5040    5.9664   -0.0000 C.ar    1  LIG1       -0.0454
     25 C          -8.4178    6.9994    0.0001 C.ar    1  LIG1       -0.0347
     26 C          -9.7836    6.6868    0.0004 C.ar    1  LIG1        0.0799
     27 N         -10.1792    5.4063    0.0004 N.ar    1  LIG1       -0.2123
     28 H          -6.4482    6.2123   -0.0002 H       1  LIG1        0.0626
     29 O          -9.8402    3.1974    0.0004 O.3     1  LIG1       -0.4919
     30 H          -9.0826    2.5386    0.0003 H       1  LIG1        0.2937
     31 H          -8.0707    8.0227    0.0001 H       1  LIG1        0.0639
     32 C         -12.2326    7.3511    0.0008 C.ar    1  LIG1        0.2217
     33 C         -10.8497    7.7060    0.0005 C.ar    1  LIG1        0.0618
     34 C         -10.5587    9.0707    0.0004 C.ar    1  LIG1       -0.0460
     35 C         -11.5708   10.0130    0.0006 C.ar    1  LIG1       -0.0427
     36 C         -12.8799    9.5445    0.0008 C.ar    1  LIG1        0.0314
     37 N         -13.2073    8.2609    0.0010 N.ar    1  LIG1       -0.2209
     38 H          -9.5274    9.4046    0.0002 H       1  LIG1        0.0626
     39 H         -13.7125   10.2459    0.0010 H       1  LIG1        0.0831
     40 O         -12.6428    6.0939    0.0009 O.3     1  LIG1       -0.4919
     41 H         -11.8299    5.5135    0.0008 H       1  LIG1        0.2937
     42 H         -11.3573   11.0749    0.0005 H       1  LIG1        0.0633
@<TRIPOS>BOND
     1     7     3    1
     2    11     4    1
     3     3     4   ar
     4     3     2   ar
     5    18    14    1
     6     8     2    1
     7     4     5   ar
     8     2     1   ar
     9    21    15    1
    10    14    15   ar
    11    14    13   ar
    12     5    13    1
    13     5     6   ar
    14    15    16   ar
    15     1     6   ar
    16     1     9    1
    17    13    12   ar
    18    10     9    1
    19    28    24    1
    20    16    23    1
    21    16    17   ar
    22    24    23   ar
    23    24    25   ar
    24    12    17   ar
    25    12    19    1
    26    31    25    1
    27    20    19    1
    28    23    22   ar
    29    25    26   ar
    30    38    34    1
    31    30    29    1
    32    22    29    1
    33    22    27   ar
    34    26    27   ar
    35    26    33    1
    36    34    33   ar
    37    34    35   ar
    38    42    35    1
    39    33    32   ar
    40    35    36   ar
    41    41    40    1
    42    32    40    1
    43    32    37   ar
    44    36    37   ar
    45    36    39    1
