@<TRIPOS>MOLECULE
mol_data/opt/cam/geoms/mol2/6fa6fa-6fa-6fa.out
 42 45 0 0 0
SMALL
GASTEIGER

@<TRIPOS>ATOM
      1 C          -4.5325   -2.2228    0.1645 C.ar    1  LIG1        0.2128
      2 C          -3.1541   -2.3919   -0.0086 C.ar    1  LIG1       -0.0001
      3 C          -2.3997   -1.2506   -0.1990 C.ar    1  LIG1       -0.0547
      4 C          -3.0104   -0.0009   -0.2153 C.ar    1  LIG1       -0.0353
      5 C          -4.3924    0.0605   -0.0354 C.ar    1  LIG1        0.0799
      6 N          -5.1257   -1.0490    0.1514 N.ar    1  LIG1       -0.2129
      7 H          -1.3258   -1.3281   -0.3359 H       1  LIG1        0.0620
      8 H          -2.7010   -3.3780    0.0073 H       1  LIG1        0.0671
      9 O          -5.3642   -3.2733    0.3601 O.3     1  LIG1       -0.4924
     10 H          -4.8517   -4.0902    0.3556 H       1  LIG1        0.2937
     11 H          -2.4330    0.8975   -0.3621 H       1  LIG1        0.0639
     12 C          -4.6678    2.6149   -0.2681 C.ar    1  LIG1        0.2223
     13 C          -5.1766    1.3244   -0.0226 C.ar    1  LIG1        0.0618
     14 C          -6.5414    1.2759    0.2535 C.ar    1  LIG1       -0.0454
     15 C          -7.3137    2.4263    0.2821 C.ar    1  LIG1       -0.0347
     16 C          -6.6988    3.6465    0.0169 C.ar    1  LIG1        0.0799
     17 N          -5.3927    3.7195   -0.2553 N.ar    1  LIG1       -0.2123
     18 H          -6.9754    0.3040    0.4534 H       1  LIG1        0.0626
     19 O          -3.3603    2.7995   -0.5508 O.3     1  LIG1       -0.4919
     20 H          -3.2626    3.7572   -0.6687 H       1  LIG1        0.2937
     21 H          -8.3679    2.3799    0.5268 H       1  LIG1        0.0639
     22 C          -7.0196    6.1138    0.5587 C.ar    1  LIG1        0.2223
     23 C          -7.4788    4.9050   -0.0063 C.ar    1  LIG1        0.0618
     24 C          -8.7310    4.9613   -0.5980 C.ar    1  LIG1       -0.0454
     25 C          -9.4678    6.1424   -0.6186 C.ar    1  LIG1       -0.0347
     26 C          -8.9214    7.2773   -0.0221 C.ar    1  LIG1        0.0799
     27 N          -7.7085    7.2413    0.5517 N.ar    1  LIG1       -0.2123
     28 H          -9.1257    4.0722   -1.0790 H       1  LIG1        0.0626
     29 O          -5.8319    6.1467    1.1798 O.3     1  LIG1       -0.4919
     30 H          -5.7433    7.0487    1.5236 H       1  LIG1        0.2937
     31 H         -10.4134    6.1902   -1.1453 H       1  LIG1        0.0639
     32 C         -11.0052    8.7365    0.1210 C.ar    1  LIG1        0.2217
     33 C          -9.6087    8.5900   -0.0169 C.ar    1  LIG1        0.0618
     34 C          -8.8672    9.7612   -0.1384 C.ar    1  LIG1       -0.0460
     35 C          -9.5060   10.9910   -0.1792 C.ar    1  LIG1       -0.0427
     36 C         -10.8902   11.0002   -0.0861 C.ar    1  LIG1        0.0314
     37 N         -11.6257    9.9028    0.0745 N.ar    1  LIG1       -0.2209
     38 H          -7.7884    9.6818   -0.2110 H       1  LIG1        0.0626
     39 H         -11.4415   11.9365   -0.1337 H       1  LIG1        0.0831
     40 O         -11.8280    7.6836    0.3298 O.3     1  LIG1       -0.4919
     41 H         -11.3011    6.9011    0.5384 H       1  LIG1        0.2937
     42 H          -8.9504   11.9146   -0.2888 H       1  LIG1        0.0633
@<TRIPOS>BOND
     1    31    25    1
     2    28    24    1
     3    20    19    1
     4    25    24   ar
     5    25    26   ar
     6    24    23   ar
     7    19    12    1
     8    11     4    1
     9     7     3    1
    10    42    35    1
    11    12    17   ar
    12    12    13   ar
    13    17    16   ar
    14     4     3   ar
    15     4     5   ar
    16    38    34    1
    17     3     2   ar
    18    35    34   ar
    19    35    36   ar
    20    34    33   ar
    21    39    36    1
    22    36    37   ar
    23     5    13    1
    24     5     6   ar
    25    13    14   ar
    26    26    33    1
    27    26    27   ar
    28    33    32   ar
    29     2     8    1
    30     2     1   ar
    31    23    16    1
    32    23    22   ar
    33    16    15   ar
    34    37    32   ar
    35    32    40    1
    36     6     1   ar
    37     1     9    1
    38    14    15   ar
    39    14    18    1
    40    15    21    1
    41    40    41    1
    42    10     9    1
    43    27    22   ar
    44    22    29    1
    45    29    30    1
