@<TRIPOS>MOLECULE
mol_data/opt/cam/geoms/mol2/6fa6fa-4fa6fa.out
 43 46 0 0 0
SMALL
GASTEIGER

@<TRIPOS>ATOM
      1 C          -4.5052   -2.2126    0.2092 C.ar    1  LIG1        0.2128
      2 C          -3.1396   -2.3822   -0.0447 C.ar    1  LIG1       -0.0001
      3 C          -2.4045   -1.2439   -0.3136 C.ar    1  LIG1       -0.0547
      4 C          -3.0211    0.0028   -0.3246 C.ar    1  LIG1       -0.0353
      5 C          -4.3893    0.0653   -0.0586 C.ar    1  LIG1        0.0799
      6 N          -5.1038   -1.0416    0.2023 N.ar    1  LIG1       -0.2129
      7 H          -1.3413   -1.3217   -0.5172 H       1  LIG1        0.0620
      8 H          -2.6814   -3.3660   -0.0302 H       1  LIG1        0.0671
      9 O          -5.3183   -3.2605    0.4839 O.3     1  LIG1       -0.4924
     10 H          -4.8026   -4.0752    0.4696 H       1  LIG1        0.2937
     11 H          -2.4587    0.8986   -0.5325 H       1  LIG1        0.0639
     12 C          -4.6750    2.6204   -0.2706 C.ar    1  LIG1        0.2223
     13 C          -5.1784    1.3261   -0.0363 C.ar    1  LIG1        0.0618
     14 C          -6.5430    1.2707    0.2410 C.ar    1  LIG1       -0.0454
     15 C          -7.3192    2.4180    0.2779 C.ar    1  LIG1       -0.0347
     16 C          -6.7092    3.6433    0.0254 C.ar    1  LIG1        0.0783
     17 N          -5.4029    3.7229   -0.2459 N.ar    1  LIG1       -0.2124
     18 H          -6.9731    0.2960    0.4356 H       1  LIG1        0.0626
     19 O          -3.3671    2.8137   -0.5506 O.3     1  LIG1       -0.4919
     20 H          -3.2760    3.7731   -0.6586 H       1  LIG1        0.2937
     21 H          -8.3744    2.3674    0.5171 H       1  LIG1        0.0639
     22 C          -7.0636    6.0673    0.6675 C.ar    1  LIG1        0.1266
     23 C          -7.8392    7.2219    0.6310 C.ar    1  LIG1       -0.0116
     24 C          -7.4964    4.9011    0.0131 C.ar    1  LIG1        0.0419
     25 C          -9.0558    7.2613   -0.0514 C.ar    1  LIG1       -0.0093
     26 H          -7.5010    8.1054    1.1668 H       1  LIG1        0.0660
     27 C          -8.7175    4.9496   -0.6545 C.ar    1  LIG1       -0.0485
     28 C          -9.4932    6.1014   -0.6977 C.ar    1  LIG1       -0.0530
     29 H          -9.0526    4.0623   -1.1815 H       1  LIG1        0.0625
     30 O          -5.9027    6.0243    1.3641 O.3     1  LIG1       -0.5061
     31 H          -5.7655    6.8725    1.8026 H       1  LIG1        0.2922
     32 H         -10.4119    6.1127   -1.2749 H       1  LIG1        0.0624
     33 C         -11.2244    8.5409    0.2215 C.ar    1  LIG1        0.2202
     34 C          -9.8468    8.5157   -0.0905 C.ar    1  LIG1        0.0436
     35 C          -9.2623    9.7323   -0.4207 C.ar    1  LIG1       -0.0475
     36 C         -10.0267   10.8921   -0.4543 C.ar    1  LIG1       -0.0428
     37 C         -11.3736   10.7820   -0.1477 C.ar    1  LIG1        0.0314
     38 N         -11.9631    9.6360    0.1898 N.ar    1  LIG1       -0.2209
     39 H          -8.2066    9.7582   -0.6732 H       1  LIG1        0.0626
     40 H         -12.0188   11.6572   -0.1697 H       1  LIG1        0.0831
     41 O         -11.8915    7.4281    0.5937 O.3     1  LIG1       -0.4920
     42 H         -11.2665    6.6939    0.6717 H       1  LIG1        0.2937
     43 H          -9.5928   11.8484   -0.7203 H       1  LIG1        0.0633
@<TRIPOS>BOND
     1    32    28    1
     2    29    27    1
     3    43    36    1
     4    28    27   ar
     5    28    25   ar
     6    39    35    1
     7    20    19    1
     8    27    24   ar
     9    19    12    1
    10    11     4    1
    11     7     3    1
    12    36    35   ar
    13    36    37   ar
    14    35    34   ar
    15     4     3   ar
    16     4     5   ar
    17     3     2   ar
    18    12    17   ar
    19    12    13   ar
    20    17    16   ar
    21    40    37    1
    22    37    38   ar
    23    34    25    1
    24    34    33   ar
    25     5    13    1
    26     5     6   ar
    27    25    23   ar
    28     2     8    1
    29     2     1   ar
    30    13    14   ar
    31    24    16    1
    32    24    22   ar
    33    16    15   ar
    34    38    33   ar
    35     6     1   ar
    36     1     9    1
    37    33    41    1
    38    14    15   ar
    39    14    18    1
    40    15    21    1
    41    10     9    1
    42    41    42    1
    43    23    22   ar
    44    23    26    1
    45    22    30    1
    46    30    31    1
