@<TRIPOS>MOLECULE
mol_data/opt/cam/geoms/mol2/6fa6fa-.out
 22 23 0 0 0
SMALL
GASTEIGER

@<TRIPOS>ATOM
      1 C          -4.5445   -2.0514   -0.0001 C.ar    1  LIG1        0.2128
      2 C          -3.1480   -2.1406   -0.0000 C.ar    1  LIG1       -0.0001
      3 C          -2.4429   -0.9527   -0.0001 C.ar    1  LIG1       -0.0547
      4 C          -3.1179    0.2635   -0.0002 C.ar    1  LIG1       -0.0353
      5 C          -4.5130    0.2449   -0.0002 C.ar    1  LIG1        0.0799
      6 N          -5.1979   -0.9101   -0.0001 N.ar    1  LIG1       -0.2129
      7 H          -1.3576   -0.9671   -0.0001 H       1  LIG1        0.0620
      8 H          -2.6444   -3.1020    0.0000 H       1  LIG1        0.0671
      9 O          -5.3328   -3.1530   -0.0000 O.3     1  LIG1       -0.4924
     10 H          -4.7772   -3.9411    0.0000 H       1  LIG1        0.2937
     11 H          -2.5792    1.1971   -0.0002 H       1  LIG1        0.0639
     12 C          -4.8986    2.7946   -0.0004 C.ar    1  LIG1        0.2217
     13 C          -5.3654    1.4657   -0.0003 C.ar    1  LIG1        0.0618
     14 C          -6.7525    1.3239   -0.0003 C.ar    1  LIG1       -0.0460
     15 C          -7.5887    2.4313   -0.0004 C.ar    1  LIG1       -0.0427
     16 C          -7.0033    3.6854   -0.0004 C.ar    1  LIG1        0.0314
     17 N          -5.6826    3.8621   -0.0004 N.ar    1  LIG1       -0.2209
     18 H          -7.1495    0.3162   -0.0003 H       1  LIG1        0.0626
     19 H          -7.6062    4.5899   -0.0005 H       1  LIG1        0.0831
     20 O          -3.5743    3.0639   -0.0003 O.3     1  LIG1       -0.4919
     21 H          -3.5163    4.0318   -0.0004 H       1  LIG1        0.2937
     22 H          -8.6665    2.3214   -0.0004 H       1  LIG1        0.0633
@<TRIPOS>BOND
     1    19    16    1
     2    16    17   ar
     3    16    15   ar
     4    17    12   ar
     5    21    20    1
     6    22    15    1
     7    15    14   ar
     8    12    20    1
     9    12    13   ar
    10    14    13   ar
    11    14    18    1
    12    13     5    1
    13    11     4    1
    14     5     4   ar
    15     5     6   ar
    16     4     3   ar
    17     6     1   ar
    18     3     7    1
    19     3     2   ar
    20     1     2   ar
    21     1     9    1
    22     2     8    1
    23     9    10    1
