@<TRIPOS>MOLECULE
mol_data/opt/cam/geoms/mol2/6fa6fa-6fa-6fa-.out
 42 45 0 0 0
SMALL
GASTEIGER

@<TRIPOS>ATOM
      1 C          -4.4764   -2.1778    0.5352 C.ar    1  LIG1        0.2128
      2 C          -3.2138   -2.4295   -0.0126 C.ar    1  LIG1       -0.0001
      3 C          -2.5672   -1.3674   -0.6150 C.ar    1  LIG1       -0.0547
      4 C          -3.1701   -0.1152   -0.6621 C.ar    1  LIG1       -0.0353
      5 C          -4.4336    0.0318   -0.0884 C.ar    1  LIG1        0.0799
      6 N          -5.0611   -1.0002    0.4991 N.ar    1  LIG1       -0.2129
      7 H          -1.5843   -1.5099   -1.0527 H       1  LIG1        0.0620
      8 H          -2.7648   -3.4164    0.0358 H       1  LIG1        0.0671
      9 O          -5.1963   -3.1467    1.1503 O.3     1  LIG1       -0.4924
     10 H          -4.6979   -3.9721    1.1322 H       1  LIG1        0.2937
     11 H          -2.6765    0.7223   -1.1283 H       1  LIG1        0.0639
     12 C          -4.8089    2.5115   -0.6873 C.ar    1  LIG1        0.2223
     13 C          -5.1909    1.3109   -0.0581 C.ar    1  LIG1        0.0618
     14 C          -6.3936    1.3752    0.6433 C.ar    1  LIG1       -0.0454
     15 C          -7.1324    2.5456    0.7038 C.ar    1  LIG1       -0.0347
     16 C          -6.6558    3.6699    0.0342 C.ar    1  LIG1        0.0799
     17 N          -5.5083    3.6316   -0.6496 N.ar    1  LIG1       -0.2123
     18 H          -6.7259    0.4759    1.1473 H       1  LIG1        0.0626
     19 O          -3.6650    2.5837   -1.4027 O.3     1  LIG1       -0.4919
     20 H          -3.6276    3.5002   -1.7183 H       1  LIG1        0.2937
     21 H          -8.0500    2.5927    1.2774 H       1  LIG1        0.0639
     22 C          -6.8211    6.2040    0.1873 C.ar    1  LIG1        0.2223
     23 C          -7.4201    4.9378    0.0285 C.ar    1  LIG1        0.0618
     24 C          -8.8001    4.9414   -0.1219 C.ar    1  LIG1       -0.0454
     25 C          -9.5178    6.1315   -0.1254 C.ar    1  LIG1       -0.0347
     26 C          -8.8182    7.3248    0.0191 C.ar    1  LIG1        0.0799
     27 N          -7.4890    7.3436    0.1751 N.ar    1  LIG1       -0.2123
     28 H          -9.3178    3.9961   -0.2493 H       1  LIG1        0.0626
     29 O          -5.4969    6.2953    0.3919 O.3     1  LIG1       -0.4919
     30 H          -5.3253    7.2412    0.5185 H       1  LIG1        0.2937
     31 H         -10.5961    6.1322   -0.2261 H       1  LIG1        0.0639
     32 C          -9.2660    9.6702    0.8875 C.ar    1  LIG1        0.2217
     33 C          -9.5223    8.6285   -0.0265 C.ar    1  LIG1        0.0618
     34 C         -10.4937    8.8827   -0.9851 C.ar    1  LIG1       -0.0460
     35 C         -11.1493   10.1101   -1.0273 C.ar    1  LIG1       -0.0427
     36 C         -10.7995   11.0583   -0.0836 C.ar    1  LIG1        0.0314
     37 N          -9.8798   10.8427    0.8599 N.ar    1  LIG1       -0.2209
     38 H         -10.7216    8.1148   -1.7176 H       1  LIG1        0.0626
     39 H         -11.2719   12.0372   -0.0722 H       1  LIG1        0.0831
     40 O          -8.3765    9.4838    1.8764 O.3     1  LIG1       -0.4919
     41 H          -8.3863   10.3067    2.3886 H       1  LIG1        0.2937
     42 H         -11.9012   10.3230   -1.7773 H       1  LIG1        0.0633
@<TRIPOS>BOND
     1    42    35    1
     2    20    19    1
     3    38    34    1
     4    19    12    1
     5    11     4    1
     6     7     3    1
     7    35    34   ar
     8    35    36   ar
     9    34    33   ar
    10    12    17   ar
    11    12    13   ar
    12     4     3   ar
    13     4     5   ar
    14    17    16   ar
    15     3     2   ar
    16    28    24    1
    17    31    25    1
    18    25    24   ar
    19    25    26   ar
    20    24    23   ar
    21     5    13    1
    22     5     6   ar
    23    36    39    1
    24    36    37   ar
    25    13    14   ar
    26    33    26    1
    27    33    32   ar
    28     2     8    1
    29     2     1   ar
    30    26    27   ar
    31    23    16    1
    32    23    22   ar
    33    16    15   ar
    34    27    22   ar
    35    22    29    1
    36    29    30    1
    37     6     1   ar
    38     1     9    1
    39    14    15   ar
    40    14    18    1
    41    15    21    1
    42    37    32   ar
    43    32    40    1
    44    10     9    1
    45    40    41    1
