@<TRIPOS>MOLECULE
mol_data/opt/cam/geoms/mol2/6fd13df4ai-4di-.out
 50 53 0 0 0
SMALL
GASTEIGER

@<TRIPOS>ATOM
      1 C          -4.2047   -1.8167    0.9170 C.ar    1  LIG1        0.2129
      2 C          -2.8139   -1.7768    1.0910 C.ar    1  LIG1        0.0011
      3 C          -2.1817   -0.5759    0.8652 C.ar    1  LIG1       -0.0372
      4 C          -2.9152    0.5391    0.4375 C.ar    1  LIG1        0.0794
      5 C          -4.2904    0.3670    0.2057 C.ar    1  LIG1        0.1096
      6 N          -4.9079   -0.7907    0.4809 N.ar    1  LIG1       -0.2102
      7 H          -1.1160   -0.4728    1.0352 H       1  LIG1        0.0633
      8 H          -2.2613   -2.6500    1.4201 H       1  LIG1        0.0671
      9 O          -4.9287   -2.9192    1.1810 O.3     1  LIG1       -0.4924
     10 H          -4.3502   -3.6233    1.4984 H       1  LIG1        0.2937
     11 N          -1.6753    2.8067    0.4252 N.1     1  LIG1       -0.1908
     12 C          -2.2547    1.8064    0.3853 C.1     1  LIG1        0.1014
     13 C          -5.1854    1.4066   -0.2960 C.ar    1  LIG1        0.0880
     14 C          -5.0373    2.4946   -1.1605 C.ar    1  LIG1        0.1204
     15 C          -6.3130    3.1034   -1.2707 C.ar    1  LIG1        0.1601
     16 C          -7.2075    2.3868   -0.4949 C.ar    1  LIG1        0.0903
     17 N          -6.4932    1.3553    0.0611 N.ar    1  LIG1       -0.3490
     18 H          -6.8497    0.6368    0.6736 H       1  LIG1        0.1661
     19 N          -3.0303    3.1071   -2.6542 N.1     1  LIG1       -0.1907
     20 C          -3.9144    2.8402   -1.9571 C.1     1  LIG1        0.1050
     21 O          -6.5508    4.1793   -2.0542 O.3     1  LIG1       -0.5034
     22 H          -7.4998    4.2476   -2.2193 H       1  LIG1        0.2923
     23 C          -9.1814    3.8720   -0.2655 C.ar    1  LIG1       -0.0519
     24 C         -10.5457    4.0471   -0.0913 C.ar    1  LIG1       -0.0531
     25 C          -8.6404    2.5835   -0.2915 C.ar    1  LIG1        0.0022
     26 C         -11.4016    2.9587    0.0675 C.ar    1  LIG1       -0.0137
     27 H         -10.9567    5.0511   -0.0647 H       1  LIG1        0.0624
     28 C          -9.5028    1.4954   -0.1245 C.ar    1  LIG1       -0.0490
     29 C         -10.8712    1.6568    0.0625 C.ar    1  LIG1       -0.0421
     30 H          -9.0996    0.4871   -0.1589 H       1  LIG1        0.0627
     31 H          -8.5300    4.7371   -0.3345 H       1  LIG1        0.0624
     32 C         -11.7480    0.4475    0.2619 C.3     1  LIG1       -0.0391
     33 H         -11.1439   -0.4541    0.3785 H       1  LIG1        0.0278
     34 H         -12.4221    0.2899   -0.5846 H       1  LIG1        0.0278
     35 H         -12.3743    0.5544    1.1515 H       1  LIG1        0.0278
     36 C         -13.3796    3.7780    1.4067 C.ar    1  LIG1        0.0595
     37 C         -14.7533    4.0144    1.5287 C.ar    1  LIG1       -0.0435
     38 C         -12.8628    3.2010    0.2368 C.ar    1  LIG1       -0.0000
     39 C         -15.6112    3.6814    0.4971 C.ar    1  LIG1       -0.0576
     40 H         -15.1349    4.4574    2.4416 H       1  LIG1        0.0631
     41 C         -13.7540    2.8769   -0.7854 C.ar    1  LIG1       -0.0499
     42 C         -15.1229    3.1079   -0.6796 C.ar    1  LIG1       -0.0498
     43 H         -13.3581    2.4422   -1.6983 H       1  LIG1        0.0627
     44 H         -16.6753    3.8684    0.6030 H       1  LIG1        0.0621
     45 N         -11.8498    4.4057    3.4036 N.1     1  LIG1       -0.1909
     46 C         -12.5174    4.1214    2.5027 C.1     1  LIG1        0.0998
     47 C         -16.0570    2.7673   -1.8089 C.3     1  LIG1       -0.0397
     48 H         -15.5519    2.1913   -2.5865 H       1  LIG1        0.0278
     49 H         -16.4569    3.6748   -2.2720 H       1  LIG1        0.0278
     50 H         -16.9100    2.1832   -1.4528 H       1  LIG1        0.0278
@<TRIPOS>BOND
     1    19    20    3
     2    48    47    1
     3    49    47    1
     4    22    21    1
     5    21    15    1
     6    20    14    1
     7    47    50    1
     8    47    42    1
     9    43    41    1
    10    15    14   ar
    11    15    16   ar
    12    14    13   ar
    13    41    42   ar
    14    41    38   ar
    15    42    39   ar
    16    34    32    1
    17    16    25    1
    18    16    17   ar
    19    31    23    1
    20    13    17   ar
    21    13     5    1
    22    25    23   ar
    23    25    28   ar
    24    23    24   ar
    25    30    28    1
    26    28    29   ar
    27    24    27    1
    28    24    26   ar
    29    17    18    1
    30    29    26   ar
    31    29    32    1
    32    26    38    1
    33     5     4   ar
    34     5     6   ar
    35    38    36   ar
    36    32    33    1
    37    32    35    1
    38    12    11    3
    39    12     4    1
    40     4     3   ar
    41     6     1   ar
    42    39    44    1
    43    39    37   ar
    44     3     7    1
    45     3     2   ar
    46     1     2   ar
    47     1     9    1
    48     2     8    1
    49     9    10    1
    50    36    37   ar
    51    36    46    1
    52    37    40    1
    53    46    45    3
