@<TRIPOS>MOLECULE
mol_data/opt/cam/geoms/mol2/6fd12di13hi12ie.out
 49 52 0 0 0
SMALL
GASTEIGER

@<TRIPOS>ATOM
      1 C          -4.3445   -2.0831    0.1449 C.ar    1  LIG1        0.2129
      2 C          -3.0954   -2.1379   -0.4927 C.ar    1  LIG1        0.0011
      3 C          -2.6085   -0.9767   -1.0466 C.ar    1  LIG1       -0.0371
      4 C          -3.3478    0.2083   -0.9413 C.ar    1  LIG1        0.0810
      5 C          -4.5597    0.1614   -0.2323 C.ar    1  LIG1        0.1284
      6 N          -5.0446   -0.9729    0.2778 N.ar    1  LIG1       -0.2086
      7 H          -1.6646   -0.9705   -1.5797 H       1  LIG1        0.0633
      8 H          -2.5400   -3.0671   -0.5619 H       1  LIG1        0.0671
      9 O          -4.9191   -3.1736    0.6816 O.3     1  LIG1       -0.4924
     10 H          -4.3517   -3.9431    0.5510 H       1  LIG1        0.2937
     11 N          -2.5153    2.2924   -2.2267 N.1     1  LIG1       -0.1908
     12 C          -2.8950    1.3798   -1.6257 C.1     1  LIG1        0.1014
     13 C          -5.3819    1.3510   -0.0063 C.ar    1  LIG1        0.1728
     14 C          -5.1117    2.6346    0.3897 C.ar    1  LIG1        0.1025
     15 C          -6.3692    3.3093    0.5525 C.ar    1  LIG1        0.0149
     16 C          -7.3177    2.3838    0.2144 C.ar    1  LIG1        0.1578
     17 O          -6.7175    1.1958   -0.1121 O.2     1  LIG1       -0.4501
     18 N          -2.8370    3.6486    1.0578 N.1     1  LIG1       -0.1907
     19 C          -3.8451    3.1818    0.7351 C.1     1  LIG1        0.1033
     20 C          -6.5459    4.6942    1.0855 C.3     1  LIG1       -0.0348
     21 H          -7.5996    4.9348    1.2258 H       1  LIG1        0.0279
     22 H          -6.1090    5.4400    0.4136 H       1  LIG1        0.0279
     23 H          -6.0367    4.7985    2.0478 H       1  LIG1        0.0279
     24 C          -8.7559    2.3815    0.1454 C.ar    1  LIG1        0.1041
     25 C          -9.6736    3.3660   -0.1875 C.ar    1  LIG1        0.0569
     26 C         -10.9737    2.8039   -0.0880 C.ar    1  LIG1       -0.0008
     27 C         -10.8071    1.4738    0.2679 C.ar    1  LIG1        0.0876
     28 N          -9.4727    1.2328    0.4094 N.ar    1  LIG1       -0.3476
     29 H          -9.0643    0.3468    0.6597 H       1  LIG1        0.1661
     30 N          -9.4060    4.7003   -0.5146 N.pl3   1  LIG1       -0.3560
     31 H          -8.4977    4.8312   -0.9414 H       1  LIG1        0.1424
     32 H         -10.1215    5.1043   -1.1046 H       1  LIG1        0.1424
     33 C         -12.2528    3.5591   -0.2636 C.3     1  LIG1       -0.0358
     34 H         -13.0904    3.0146    0.1759 H       1  LIG1        0.0279
     35 H         -12.4988    3.7437   -1.3163 H       1  LIG1        0.0279
     36 H         -12.1954    4.5326    0.2338 H       1  LIG1        0.0279
     37 C         -11.7741    0.4204    0.5029 C.ar    1  LIG1        0.1553
     38 C         -12.9253    0.0353   -0.1150 C.ar    1  LIG1        0.0121
     39 C         -13.3934   -1.1168    0.6192 C.ar    1  LIG1        0.0659
     40 C         -12.4785   -1.3429    1.6005 C.ar    1  LIG1        0.1082
     41 O         -11.4933   -0.4254    1.5482 O.2     1  LIG1       -0.4599
     42 H         -12.4055   -2.0914    2.3730 H       1  LIG1        0.1042
     43 C         -13.5636    0.6032   -1.3391 C.3     1  LIG1       -0.0349
     44 H         -13.9118   -0.2019   -1.9911 H       1  LIG1        0.0279
     45 H         -12.8572    1.2199   -1.8972 H       1  LIG1        0.0279
     46 H         -14.4347    1.2200   -1.0969 H       1  LIG1        0.0279
     47 C         -14.5632   -1.8764    0.3447 C.1     1  LIG1       -0.0662
     48 C         -15.5571   -2.5077    0.0939 C.1     1  LIG1       -0.1138
     49 H         -16.4361   -3.0704   -0.1207 H       1  LIG1        0.1232
@<TRIPOS>BOND
     1    11    12    3
     2    44    43    1
     3    45    43    1
     4    12     4    1
     5     7     3    1
     6    43    46    1
     7    43    38    1
     8    35    33    1
     9    32    30    1
    10     3     4   ar
    11     3     2   ar
    12    31    30    1
    13     4     5   ar
    14     8     2    1
    15    30    25    1
    16     2     1   ar
    17    33    26    1
    18    33    34    1
    19    33    36    1
    20     5    13    1
    21     5     6   ar
    22    25    26   ar
    23    25    24   ar
    24    49    48    1
    25    38    37   ar
    26    38    39   ar
    27    17    13   ar
    28    17    16   ar
    29    26    27   ar
    30    13    14   ar
    31    48    47    3
    32     1     6   ar
    33     1     9    1
    34    24    16    1
    35    24    28   ar
    36    16    15   ar
    37    27    28   ar
    38    27    37    1
    39    47    39    1
    40    14    15   ar
    41    14    19    1
    42    28    29    1
    43    22    20    1
    44    37    41   ar
    45    10     9    1
    46    15    20    1
    47    39    40   ar
    48    19    18    3
    49    20    21    1
    50    20    23    1
    51    41    40   ar
    52    40    42    1
