@<TRIPOS>MOLECULE
mol_data/opt/cam/geoms/mol2/6fd4fe-6ii13lh.out
 55 58 0 0 0
SMALL
GASTEIGER

@<TRIPOS>ATOM
      1 C          -4.4366   -2.4613    0.3648 C.ar    1  LIG1        0.2129
      2 C          -3.0472   -2.5252    0.2031 C.ar    1  LIG1        0.0011
      3 C          -2.3798   -1.3414   -0.0200 C.ar    1  LIG1       -0.0372
      4 C          -3.0895   -0.1366   -0.0537 C.ar    1  LIG1        0.0780
      5 C          -4.4793   -0.1765    0.1637 C.ar    1  LIG1        0.0956
      6 N          -5.1205   -1.3309    0.3493 N.ar    1  LIG1       -0.2116
      7 H          -1.3076   -1.3339   -0.1816 H       1  LIG1        0.0633
      8 H          -2.5176   -3.4712    0.2364 H       1  LIG1        0.0671
      9 O          -5.1859   -3.5634    0.5524 O.3     1  LIG1       -0.4924
     10 H          -4.6220   -4.3463    0.5498 H       1  LIG1        0.2937
     11 N          -1.7840    2.0108   -0.6690 N.1     1  LIG1       -0.1908
     12 C          -2.3874    1.0683   -0.3755 C.1     1  LIG1        0.1013
     13 C          -5.0289    2.1964    0.8554 C.ar    1  LIG1        0.1267
     14 C          -5.8603    3.3095    0.7717 C.ar    1  LIG1       -0.0106
     15 C          -5.3366    1.0348    0.1373 C.ar    1  LIG1        0.0443
     16 C          -7.0193    3.2970    0.0040 C.ar    1  LIG1        0.0027
     17 H          -5.6126    4.2026    1.3386 H       1  LIG1        0.0661
     18 C          -6.5121    1.0123   -0.6046 C.ar    1  LIG1       -0.0330
     19 C          -7.3543    2.1215   -0.6967 C.ar    1  LIG1        0.0333
     20 H          -6.7696    0.1048   -1.1375 H       1  LIG1        0.0638
     21 O          -3.9379    2.1769    1.6587 O.3     1  LIG1       -0.5061
     22 H          -3.7143    3.0735    1.9352 H       1  LIG1        0.2922
     23 C          -8.5190    2.0483   -1.5264 C.1     1  LIG1       -0.0690
     24 C          -9.4905    1.9629   -2.2326 C.1     1  LIG1       -0.1139
     25 H         -10.3472    1.8958   -2.8627 H       1  LIG1        0.1232
     26 C          -9.1114    4.6276    0.5467 C.ar    1  LIG1        0.0467
     27 C          -7.8532    4.5271   -0.0649 C.ar    1  LIG1        0.0047
     28 C          -7.3836    5.6431   -0.7470 C.ar    1  LIG1       -0.0473
     29 C          -8.1143    6.8238   -0.8284 C.ar    1  LIG1       -0.0223
     30 C          -9.3403    6.8420   -0.1426 C.ar    1  LIG1        0.0939
     31 N          -9.8096    5.7572    0.4997 N.ar    1  LIG1       -0.2494
     32 H          -6.4282    5.5802   -1.2609 H       1  LIG1        0.0627
     33 C          -9.7352    3.4836    1.2977 C.3     1  LIG1       -0.0217
     34 H          -9.0114    2.9884    1.9498 H       1  LIG1        0.0293
     35 H         -10.1189    2.7291    0.6051 H       1  LIG1        0.0293
     36 H         -10.5628    3.8589    1.8994 H       1  LIG1        0.0293
     37 C          -7.6030    7.9596   -1.6688 C.3     1  LIG1       -0.0376
     38 H          -7.1867    8.7673   -1.0651 H       1  LIG1        0.0278
     39 H          -8.4072    8.4063   -2.2571 H       1  LIG1        0.0278
     40 H          -6.8292    7.6012   -2.3517 H       1  LIG1        0.0278
     41 C         -10.2646    7.9817   -0.0899 C.ar    1  LIG1        0.1093
     42 C         -10.1694    9.3656   -0.1722 C.ar    1  LIG1        0.1673
     43 C         -11.4649    9.9171    0.0048 C.ar    1  LIG1        0.0851
     44 C         -12.3221    8.8600    0.2081 C.ar    1  LIG1        0.0267
     45 N         -11.5860    7.7098    0.1445 N.ar    1  LIG1       -0.3549
     46 H         -11.8803    6.7705    0.3615 H       1  LIG1        0.1655
     47 H         -13.3866    8.8442    0.3847 H       1  LIG1        0.0827
     48 O          -9.0507   10.1358   -0.3594 O.3     1  LIG1       -0.4911
     49 C          -8.6011   10.7625    0.8380 C.3     1  LIG1        0.0790
     50 H          -9.3829   11.3979    1.2661 H       1  LIG1        0.0660
     51 H          -8.3000   10.0148    1.5805 H       1  LIG1        0.0660
     52 H          -7.7382   11.3740    0.5675 H       1  LIG1        0.0660
     53 N         -11.7232   11.2992    0.0221 N.pl3   1  LIG1       -0.3540
     54 H         -11.1557   11.7802   -0.6662 H       1  LIG1        0.1425
     55 H         -12.6985   11.5169   -0.1354 H       1  LIG1        0.1425
@<TRIPOS>BOND
     1    25    24    1
     2    40    37    1
     3    39    37    1
     4    24    23    3
     5    37    38    1
     6    37    29    1
     7    23    19    1
     8    32    28    1
     9    20    18    1
    10    29    28   ar
    11    29    30   ar
    12    28    27   ar
    13    19    18   ar
    14    19    16   ar
    15    11    12    3
    16    54    53    1
    17    18    15   ar
    18    12     4    1
    19    48    42    1
    20    48    49    1
    21     7     3    1
    22    42    41   ar
    23    42    43   ar
    24    30    41    1
    25    30    31   ar
    26    55    53    1
    27    41    45   ar
    28    27    16    1
    29    27    26   ar
    30     4     3   ar
    31     4     5   ar
    32     3     2   ar
    33    16    14   ar
    34    43    53    1
    35    43    44   ar
    36    15     5    1
    37    15    13   ar
    38    45    44   ar
    39    45    46    1
    40     5     6   ar
    41     2     8    1
    42     2     1   ar
    43    44    47    1
    44     6     1   ar
    45     1     9    1
    46    31    26   ar
    47    26    33    1
    48    10     9    1
    49    52    49    1
    50    35    33    1
    51    14    13   ar
    52    14    17    1
    53    49    50    1
    54    49    51    1
    55    13    21    1
    56    33    36    1
    57    33    34    1
    58    21    22    1
