@<TRIPOS>MOLECULE
mol_data/opt/cam/geoms/mol2/6fd6fd6fd-6fd-.out
 46 49 0 0 0
SMALL
GASTEIGER

@<TRIPOS>ATOM
      1 C          -4.3165   -2.1506   -0.5565 C.ar    1  LIG1        0.2129
      2 C          -2.9589   -2.2593   -0.2447 C.ar    1  LIG1        0.0011
      3 C          -2.3172   -1.1110    0.1593 C.ar    1  LIG1       -0.0372
      4 C          -3.0122    0.1004    0.2718 C.ar    1  LIG1        0.0781
      5 C          -4.3935    0.1130   -0.0140 C.ar    1  LIG1        0.0972
      6 N          -4.9855   -1.0168   -0.4347 N.ar    1  LIG1       -0.2116
      7 H          -1.2570   -1.1280    0.3858 H       1  LIG1        0.0633
      8 H          -2.4299   -3.2009   -0.3360 H       1  LIG1        0.0671
      9 O          -5.0524   -3.1764   -1.0019 O.3     1  LIG1       -0.4924
     10 H          -4.5110   -3.9718   -1.0811 H       1  LIG1        0.2937
     11 N          -1.5658    2.1496    0.9028 N.1     1  LIG1       -0.1908
     12 C          -2.2441    1.2548    0.6231 C.1     1  LIG1        0.1013
     13 C          -6.5482    1.3236   -0.5749 C.ar    1  LIG1        0.2224
     14 C          -5.2802    1.2899    0.0858 C.ar    1  LIG1        0.0643
     15 C          -4.9669    2.4065    0.8522 C.ar    1  LIG1       -0.0279
     16 C          -5.8025    3.5195    0.8835 C.ar    1  LIG1        0.0787
     17 C          -6.9603    3.4955    0.0837 C.ar    1  LIG1        0.0973
     18 N          -7.3134    2.4103   -0.5907 N.ar    1  LIG1       -0.2110
     19 H          -4.0727    2.4295    1.4595 H       1  LIG1        0.0639
     20 O          -7.0497    0.2887   -1.2190 O.3     1  LIG1       -0.4919
     21 H          -6.4477   -0.4853   -1.0574 H       1  LIG1        0.2937
     22 N          -5.2629    5.4376    2.5334 N.1     1  LIG1       -0.1908
     23 C          -5.5018    4.5969    1.7758 C.1     1  LIG1        0.1013
     24 C          -7.5070    5.9676   -0.2237 C.ar    1  LIG1        0.2224
     25 C          -7.9047    4.6336   -0.0126 C.ar    1  LIG1        0.0643
     26 C          -9.2667    4.4034    0.0305 C.ar    1  LIG1       -0.0279
     27 C         -10.1703    5.4673   -0.0538 C.ar    1  LIG1        0.0787
     28 C          -9.6580    6.7666   -0.1917 C.ar    1  LIG1        0.0973
     29 N          -8.3482    6.9856   -0.2879 N.ar    1  LIG1       -0.2110
     30 H          -9.6265    3.3856    0.1259 H       1  LIG1        0.0639
     31 O          -6.2119    6.2348   -0.4025 O.3     1  LIG1       -0.4919
     32 H          -6.1269    7.1974   -0.4823 H       1  LIG1        0.2937
     33 N         -12.7113    4.9815    0.0280 N.1     1  LIG1       -0.1908
     34 C         -11.5776    5.2080   -0.0125 C.1     1  LIG1        0.1013
     35 C         -10.4402    8.9162   -1.2627 C.ar    1  LIG1        0.2218
     36 C         -10.5357    7.9623   -0.2286 C.ar    1  LIG1        0.0643
     37 C         -11.4732    8.2071    0.7580 C.ar    1  LIG1       -0.0285
     38 C         -12.2541    9.3678    0.7098 C.ar    1  LIG1        0.0707
     39 C         -12.0578   10.2444   -0.3537 C.ar    1  LIG1        0.0488
     40 N         -11.1746   10.0179   -1.3192 N.ar    1  LIG1       -0.2196
     41 H         -11.5992    7.5088    1.5773 H       1  LIG1        0.0639
     42 H         -12.6378   11.1598   -0.4255 H       1  LIG1        0.0844
     43 O          -9.5878    8.7064   -2.2692 O.3     1  LIG1       -0.4919
     44 H          -9.6960    9.4551   -2.8762 H       1  LIG1        0.2937
     45 N         -13.9949    9.9112    2.5455 N.1     1  LIG1       -0.1908
     46 C         -13.2181    9.6620    1.7256 C.1     1  LIG1        0.1007
@<TRIPOS>BOND
     1    44    43    1
     2    43    35    1
     3    40    35   ar
     4    40    39   ar
     5    35    36   ar
     6    20    21    1
     7    20    13    1
     8    10     9    1
     9     9     1    1
    10    18    13   ar
    11    18    17   ar
    12    13    14   ar
    13     1     6   ar
    14     1     2   ar
    15    32    31    1
    16     6     5   ar
    17    42    39    1
    18    31    24    1
    19    39    38   ar
    20     8     2    1
    21    29    24   ar
    22    29    28   ar
    23     2     3   ar
    24    36    28    1
    25    36    37   ar
    26    24    25   ar
    27    28    27   ar
    28    27    34    1
    29    27    26   ar
    30     5    14    1
    31     5     4   ar
    32    25    26   ar
    33    25    17    1
    34    34    33    3
    35    26    30    1
    36    17    16   ar
    37    14    15   ar
    38     3     4   ar
    39     3     7    1
    40     4    12    1
    41    12    11    3
    42    38    37   ar
    43    38    46    1
    44    37    41    1
    45    15    16   ar
    46    15    19    1
    47    16    23    1
    48    46    45    3
    49    23    22    3
