@<TRIPOS>MOLECULE
mol_data/opt/cam/geoms/mol2/6fd6fd6fd.out
 35 37 0 0 0
SMALL
GASTEIGER

@<TRIPOS>ATOM
      1 C          -4.5298   -2.1627   -0.0002 C.ar    1  LIG1        0.2129
      2 C          -3.1400   -2.2955   -0.0002 C.ar    1  LIG1        0.0011
      3 C          -2.4061   -1.1321   -0.0003 C.ar    1  LIG1       -0.0372
      4 C          -3.0322    0.1222   -0.0003 C.ar    1  LIG1        0.0781
      5 C          -4.4431    0.1729   -0.0002 C.ar    1  LIG1        0.0972
      6 N          -5.1284   -0.9842   -0.0002 N.ar    1  LIG1       -0.2116
      7 H          -1.3226   -1.1707   -0.0004 H       1  LIG1        0.0633
      8 H          -2.6615   -3.2678   -0.0002 H       1  LIG1        0.0671
      9 O          -5.3713   -3.2026   -0.0001 O.3     1  LIG1       -0.4924
     10 H          -4.8831   -4.0356   -0.0001 H       1  LIG1        0.2937
     11 N          -1.3933    2.1222   -0.0004 N.1     1  LIG1       -0.1908
     12 C          -2.1596    1.2551   -0.0004 C.1     1  LIG1        0.1013
     13 C          -6.7103    1.2999   -0.0001 C.ar    1  LIG1        0.2224
     14 C          -5.2854    1.3877   -0.0002 C.ar    1  LIG1        0.0643
     15 C          -4.7839    2.6838   -0.0003 C.ar    1  LIG1       -0.0279
     16 C          -5.6016    3.8131   -0.0003 C.ar    1  LIG1        0.0787
     17 C          -7.0067    3.6361   -0.0002 C.ar    1  LIG1        0.0973
     18 N          -7.4778    2.3843   -0.0000 N.ar    1  LIG1       -0.2110
     19 H          -3.7183    2.8609   -0.0005 H       1  LIG1        0.0639
     20 O          -7.3760    0.1688    0.0001 O.3     1  LIG1       -0.4919
     21 H          -6.6985   -0.5700   -0.0000 H       1  LIG1        0.2937
     22 N          -4.3010    6.0491   -0.0006 N.1     1  LIG1       -0.1908
     23 C          -4.9170    5.0693   -0.0005 C.1     1  LIG1        0.1013
     24 C          -9.4373    4.3651    0.0002 C.ar    1  LIG1        0.2218
     25 C          -8.0377    4.6941   -0.0001 C.ar    1  LIG1        0.0643
     26 C          -7.7269    6.0537   -0.0003 C.ar    1  LIG1       -0.0285
     27 C          -8.7328    7.0125   -0.0002 C.ar    1  LIG1        0.0707
     28 C         -10.0598    6.5678    0.0001 C.ar    1  LIG1        0.0488
     29 N         -10.3962    5.2958    0.0002 N.ar    1  LIG1       -0.2196
     30 H          -6.7021    6.3937   -0.0005 H       1  LIG1        0.0639
     31 H         -10.8734    7.2896    0.0002 H       1  LIG1        0.0844
     32 O          -9.8850    3.1306    0.0003 O.3     1  LIG1       -0.4919
     33 H          -9.0877    2.5247    0.0002 H       1  LIG1        0.2937
     34 N          -8.2125    9.5470   -0.0005 N.1     1  LIG1       -0.1908
     35 C          -8.4347    8.4117   -0.0004 C.1     1  LIG1        0.1007
@<TRIPOS>BOND
     1    22    23    3
     2    34    35    3
     3    19    15    1
     4    30    26    1
     5    23    16    1
     6    11    12    3
     7    35    27    1
     8     7     3    1
     9    12     4    1
    10    15    16   ar
    11    15    14   ar
    12    16    17   ar
    13     3     4   ar
    14     3     2   ar
    15     4     5   ar
    16    26    27   ar
    17    26    25   ar
    18     8     2    1
    19     2     1   ar
    20     5    14    1
    21     5     6   ar
    22    14    13   ar
    23    27    28   ar
    24     1     6   ar
    25     1     9    1
    26    17    25    1
    27    17    18   ar
    28    25    24   ar
    29    10     9    1
    30    13    18   ar
    31    13    20    1
    32    21    20    1
    33    28    31    1
    34    28    29   ar
    35    24    29   ar
    36    24    32    1
    37    33    32    1
