@<TRIPOS>MOLECULE
mol_data/opt/cam/geoms/mol2/6fd6fd.out
 24 25 0 0 0
SMALL
GASTEIGER

@<TRIPOS>ATOM
      1 C          -4.5077   -2.0843   -0.0003 C.ar    1  LIG1        0.2129
      2 C          -3.1140   -2.1491   -0.0002 C.ar    1  LIG1        0.0011
      3 C          -2.4413   -0.9491   -0.0001 C.ar    1  LIG1       -0.0372
      4 C          -3.1292    0.2718   -0.0000 C.ar    1  LIG1        0.0781
      5 C          -4.5436    0.2542   -0.0002 C.ar    1  LIG1        0.0972
      6 N          -5.1645   -0.9380   -0.0003 N.ar    1  LIG1       -0.2116
      7 H          -1.3572   -0.9323    0.0001 H       1  LIG1        0.0633
      8 H          -2.5867   -3.0959   -0.0003 H       1  LIG1        0.0671
      9 O          -5.2961   -3.1669   -0.0004 O.3     1  LIG1       -0.4924
     10 H          -4.7636   -3.9720   -0.0004 H       1  LIG1        0.2937
     11 N          -1.5602    2.3270    0.0007 N.1     1  LIG1       -0.1908
     12 C          -2.3020    1.4387    0.0004 C.1     1  LIG1        0.1013
     13 C          -6.8733    1.2741    0.0002 C.ar    1  LIG1        0.2218
     14 C          -5.4451    1.4292   -0.0003 C.ar    1  LIG1        0.0643
     15 C          -4.9734    2.7407   -0.0008 C.ar    1  LIG1       -0.0285
     16 C          -5.8552    3.8157   -0.0007 C.ar    1  LIG1        0.0707
     17 C          -7.2254    3.5362   -0.0001 C.ar    1  LIG1        0.0488
     18 N          -7.7118    2.3131    0.0004 N.ar    1  LIG1       -0.2196
     19 H          -3.9155    2.9559   -0.0013 H       1  LIG1        0.0639
     20 H          -7.9463    4.3504    0.0000 H       1  LIG1        0.0844
     21 O          -7.4716    0.1023    0.0006 O.3     1  LIG1       -0.4919
     22 H          -6.7609   -0.5966    0.0002 H       1  LIG1        0.2937
     23 N          -5.0235    6.2657   -0.0018 N.1     1  LIG1       -0.1908
     24 C          -5.3865    5.1673   -0.0013 C.1     1  LIG1        0.1007
@<TRIPOS>BOND
     1    23    24    3
     2    24    16    1
     3    19    15    1
     4    15    16   ar
     5    15    14   ar
     6    16    17   ar
     7     9    10    1
     8     9     1    1
     9     1     6   ar
    10     1     2   ar
    11     6     5   ar
    12     8     2    1
    13    14     5    1
    14    14    13   ar
    15     2     3   ar
    16     5     4   ar
    17    17    20    1
    18    17    18   ar
    19     3     4   ar
    20     3     7    1
    21     4    12    1
    22    22    21    1
    23    13    18   ar
    24    13    21    1
    25    12    11    3
