@<TRIPOS>MOLECULE
mol_data/opt/cam/geoms/mol2/6fd6fd6fd6fd.out
 46 49 0 0 0
SMALL
GASTEIGER

@<TRIPOS>ATOM
      1 C          -4.6142   -2.2662   -0.0002 C.ar    1  LIG1        0.2129
      2 C          -3.2326   -2.4679   -0.0003 C.ar    1  LIG1        0.0011
      3 C          -2.4408   -1.3433   -0.0004 C.ar    1  LIG1       -0.0372
      4 C          -3.0032   -0.0589   -0.0004 C.ar    1  LIG1        0.0781
      5 C          -4.4090    0.0618   -0.0003 C.ar    1  LIG1        0.0972
      6 N          -5.1523   -1.0584   -0.0002 N.ar    1  LIG1       -0.2116
      7 H          -1.3607   -1.4367   -0.0005 H       1  LIG1        0.0633
      8 H          -2.8037   -3.4632   -0.0003 H       1  LIG1        0.0671
      9 O          -5.5071   -3.2613   -0.0000 O.3     1  LIG1       -0.4924
     10 H          -5.0634   -4.1189   -0.0000 H       1  LIG1        0.2937
     11 N          -1.2731    1.8629   -0.0006 N.1     1  LIG1       -0.1908
     12 C          -2.0770    1.0306   -0.0005 C.1     1  LIG1        0.1013
     13 C          -6.6190    1.2970    0.0001 C.ar    1  LIG1        0.2224
     14 C          -5.1905    1.3181   -0.0003 C.ar    1  LIG1        0.0643
     15 C          -4.6258    2.5872   -0.0006 C.ar    1  LIG1       -0.0279
     16 C          -5.3890    3.7553   -0.0006 C.ar    1  LIG1        0.0787
     17 C          -6.7973    3.6437   -0.0002 C.ar    1  LIG1        0.0973
     18 N          -7.3338    2.4177    0.0001 N.ar    1  LIG1       -0.2110
     19 H          -3.5528    2.7122   -0.0009 H       1  LIG1        0.0639
     20 O          -7.3370    0.2000    0.0004 O.3     1  LIG1       -0.4919
     21 H          -6.6940   -0.5712    0.0003 H       1  LIG1        0.2937
     22 N          -4.0171    5.9481   -0.0013 N.1     1  LIG1       -0.1908
     23 C          -4.6578    4.9844   -0.0010 C.1     1  LIG1        0.1013
     24 C          -9.1810    4.4808    0.0002 C.ar    1  LIG1        0.2224
     25 C          -7.7771    4.7461   -0.0000 C.ar    1  LIG1        0.0643
     26 C          -7.4382    6.0945   -0.0000 C.ar    1  LIG1       -0.0279
     27 C          -8.3897    7.1132    0.0002 C.ar    1  LIG1        0.0787
     28 C          -9.7626    6.7630    0.0005 C.ar    1  LIG1        0.0973
     29 N         -10.0768    5.4631    0.0004 N.ar    1  LIG1       -0.2110
     30 H          -6.4019    6.4001   -0.0002 H       1  LIG1        0.0639
     31 O          -9.6969    3.2766    0.0002 O.3     1  LIG1       -0.4919
     32 H          -8.9247    2.6288   -0.0001 H       1  LIG1        0.2937
     33 N          -7.3803    9.4948    0.0002 N.1     1  LIG1       -0.1908
     34 C          -7.8673    8.4450    0.0002 C.1     1  LIG1        0.1013
     35 C         -12.2648    7.1856    0.0009 C.ar    1  LIG1        0.2218
     36 C         -10.9165    7.6856    0.0007 C.ar    1  LIG1        0.0643
     37 C         -10.7767    9.0732    0.0006 C.ar    1  LIG1       -0.0285
     38 C         -11.8937    9.8999    0.0008 C.ar    1  LIG1        0.0707
     39 C         -13.1553    9.2943    0.0011 C.ar    1  LIG1        0.0488
     40 N         -13.3318    7.9905    0.0011 N.ar    1  LIG1       -0.2196
     41 H          -9.8019    9.5374    0.0004 H       1  LIG1        0.0639
     42 H         -14.0521    9.9098    0.0013 H       1  LIG1        0.0844
     43 O         -12.5556    5.9053    0.0011 O.3     1  LIG1       -0.4919
     44 H         -11.6881    5.4032    0.0009 H       1  LIG1        0.2937
     45 N         -11.6934   12.4795    0.0008 N.1     1  LIG1       -0.1908
     46 C         -11.7719   11.3253    0.0008 C.1     1  LIG1        0.1007
@<TRIPOS>BOND
     1    22    23    3
     2    23    16    1
     3    19    15    1
     4    15    16   ar
     5    15    14   ar
     6    11    12    3
     7    16    17   ar
     8     7     3    1
     9    12     4    1
    10     3     4   ar
    11     3     2   ar
    12     4     5   ar
    13     8     2    1
    14     2     1   ar
    15     5    14    1
    16     5     6   ar
    17    14    13   ar
    18    17    25    1
    19    17    18   ar
    20     1     6   ar
    21     1     9    1
    22    30    26    1
    23    32    31    1
    24    10     9    1
    25    26    25   ar
    26    26    27   ar
    27    25    24   ar
    28    13    18   ar
    29    13    20    1
    30    31    24    1
    31    33    34    3
    32    34    27    1
    33    27    28   ar
    34    24    29   ar
    35    21    20    1
    36    29    28   ar
    37    41    37    1
    38    28    36    1
    39    37    36   ar
    40    37    38   ar
    41    36    35   ar
    42    45    46    3
    43    46    38    1
    44    38    39   ar
    45    44    43    1
    46    35    43    1
    47    35    40   ar
    48    39    40   ar
    49    39    42    1
