@<TRIPOS>MOLECULE
mol_data/opt/cam/geoms/mol2/6fd6fd-6fd.out
 35 37 0 0 0
SMALL
GASTEIGER

@<TRIPOS>ATOM
      1 C          -4.1575   -1.8950   -1.0081 C.ar    1  LIG1        0.2129
      2 C          -3.0141   -2.1557   -0.2406 C.ar    1  LIG1        0.0011
      3 C          -2.6268   -1.2023    0.6735 C.ar    1  LIG1       -0.0372
      4 C          -3.3554   -0.0126    0.7901 C.ar    1  LIG1        0.0781
      5 C          -4.4584    0.1687   -0.0595 C.ar    1  LIG1        0.0972
      6 N          -4.8484   -0.7708   -0.9196 N.ar    1  LIG1       -0.2116
      7 H          -1.7678   -1.3673    1.3139 H       1  LIG1        0.0633
      8 H          -2.4624   -3.0830   -0.3505 H       1  LIG1        0.0671
      9 O          -4.6405   -2.7748   -1.8992 O.3     1  LIG1       -0.4924
     10 H          -4.0934   -3.5697   -1.9125 H       1  LIG1        0.2937
     11 N          -2.7186    1.6582    2.6596 N.1     1  LIG1       -0.1908
     12 C          -3.0034    0.9300    1.8073 C.1     1  LIG1        0.1013
     13 C          -4.8032    2.6972   -0.0646 C.ar    1  LIG1        0.2224
     14 C          -5.3106    1.3834   -0.0291 C.ar    1  LIG1        0.0643
     15 C          -6.6851    1.2642   -0.0526 C.ar    1  LIG1       -0.0279
     16 C          -7.5021    2.4023   -0.0160 C.ar    1  LIG1        0.0787
     17 C          -6.8880    3.6646    0.0472 C.ar    1  LIG1        0.0973
     18 N          -5.5592    3.7807   -0.0067 N.ar    1  LIG1       -0.2110
     19 H          -7.1297    0.2775   -0.1120 H       1  LIG1        0.0639
     20 O          -3.4879    2.8750   -0.1916 O.3     1  LIG1       -0.4919
     21 H          -3.3158    3.8275   -0.1327 H       1  LIG1        0.2937
     22 N         -10.0679    2.1030   -0.1863 N.1     1  LIG1       -0.1908
     23 C          -8.9232    2.2499   -0.1095 C.1     1  LIG1        0.1013
     24 C          -8.6392    5.2142    1.0814 C.ar    1  LIG1        0.2218
     25 C          -7.6449    4.9389    0.1155 C.ar    1  LIG1        0.0643
     26 C          -7.3198    5.9581   -0.7662 C.ar    1  LIG1       -0.0285
     27 C          -8.0098    7.1674   -0.7173 C.ar    1  LIG1        0.0707
     28 C          -9.0078    7.3053    0.2513 C.ar    1  LIG1        0.0488
     29 N          -9.3010    6.3620    1.1297 N.ar    1  LIG1       -0.2196
     30 H          -6.5318    5.8013   -1.4933 H       1  LIG1        0.0639
     31 H          -9.5814    8.2262    0.3148 H       1  LIG1        0.0844
     32 O          -8.9754    4.3585    2.0545 O.3     1  LIG1       -0.4919
     33 H          -8.4507    3.5500    2.0059 H       1  LIG1        0.2937
     34 N          -7.4731    9.0949   -2.3580 N.1     1  LIG1       -0.1908
     35 C          -7.7134    8.2328   -1.6251 C.1     1  LIG1        0.1007
@<TRIPOS>BOND
     1    34    35    3
     2    10     9    1
     3     9     1    1
     4    35    27    1
     5    30    26    1
     6     1     6   ar
     7     1     2   ar
     8     6     5   ar
     9    26    27   ar
    10    26    25   ar
    11    27    28   ar
    12     8     2    1
    13     2     3   ar
    14    20    21    1
    15    20    13    1
    16    22    23    3
    17    19    15    1
    18    23    16    1
    19    13    14   ar
    20    13    18   ar
    21     5    14    1
    22     5     4   ar
    23    15    14   ar
    24    15    16   ar
    25    16    17   ar
    26    18    17   ar
    27    17    25    1
    28    25    24   ar
    29    28    31    1
    30    28    29   ar
    31     3     4   ar
    32     3     7    1
    33     4    12    1
    34    24    29   ar
    35    24    32    1
    36    12    11    3
    37    33    32    1
