@<TRIPOS>MOLECULE
mol_data/opt/cam/geoms/mol2/6fd6fd-6fd-6fd-.out
 46 49 0 0 0
SMALL
GASTEIGER

@<TRIPOS>ATOM
      1 C          -4.1112   -2.0081   -0.9867 C.ar    1  LIG1        0.2129
      2 C          -3.0078   -2.2851   -0.1686 C.ar    1  LIG1        0.0011
      3 C          -2.6443   -1.3328    0.7565 C.ar    1  LIG1       -0.0372
      4 C          -3.3553   -0.1295    0.8344 C.ar    1  LIG1        0.0781
      5 C          -4.4167    0.0675   -0.0642 C.ar    1  LIG1        0.0972
      6 N          -4.7843   -0.8712   -0.9356 N.ar    1  LIG1       -0.2116
      7 H          -1.8179   -1.5091    1.4355 H       1  LIG1        0.0633
      8 H          -2.4690   -3.2231   -0.2487 H       1  LIG1        0.0671
      9 O          -4.5703   -2.8855   -1.8939 O.3     1  LIG1       -0.4924
     10 H          -4.0384   -3.6905   -1.8755 H       1  LIG1        0.2937
     11 N          -2.7605    1.5290    2.7286 N.1     1  LIG1       -0.1908
     12 C          -3.0285    0.8091    1.8638 C.1     1  LIG1        0.1013
     13 C          -4.7168    2.6002   -0.0951 C.ar    1  LIG1        0.2224
     14 C          -5.2475    1.2965   -0.0785 C.ar    1  LIG1        0.0643
     15 C          -6.6234    1.1985   -0.1530 C.ar    1  LIG1       -0.0279
     16 C          -7.4187    2.3492   -0.1646 C.ar    1  LIG1        0.0787
     17 C          -6.7826    3.5984   -0.1075 C.ar    1  LIG1        0.0973
     18 N          -5.4549    3.6969   -0.0889 N.ar    1  LIG1       -0.2110
     19 H          -7.0820    0.2182   -0.2078 H       1  LIG1        0.0639
     20 O          -3.3920    2.7575   -0.1486 O.3     1  LIG1       -0.4919
     21 H          -3.2168    3.7103   -0.1058 H       1  LIG1        0.2937
     22 N          -9.9921    2.1149   -0.3142 N.1     1  LIG1       -0.1908
     23 C          -8.8426    2.2281   -0.2498 C.1     1  LIG1        0.1013
     24 C          -7.2838    5.9300   -0.9490 C.ar    1  LIG1        0.2224
     25 C          -7.5446    4.8698   -0.0565 C.ar    1  LIG1        0.0643
     26 C          -8.5349    5.0905    0.8797 C.ar    1  LIG1       -0.0279
     27 C          -9.2097    6.3169    0.9285 C.ar    1  LIG1        0.0787
     28 C          -8.8661    7.3026   -0.0056 C.ar    1  LIG1        0.0973
     29 N          -7.9217    7.0870   -0.9216 N.ar    1  LIG1       -0.2110
     30 H          -8.7865    4.3205    1.5998 H       1  LIG1        0.0639
     31 O          -6.3693    5.7677   -1.9077 O.3     1  LIG1       -0.4919
     32 H          -6.3594    6.5938   -2.4159 H       1  LIG1        0.2937
     33 N         -10.9888    6.7117    2.7662 N.1     1  LIG1       -0.1908
     34 C         -10.1960    6.5430    1.9409 C.1     1  LIG1        0.1013
     35 C          -8.8035    9.8252   -0.0340 C.ar    1  LIG1        0.2218
     36 C          -9.5405    8.6235   -0.0470 C.ar    1  LIG1        0.0643
     37 C         -10.9167    8.7384   -0.1202 C.ar    1  LIG1       -0.0285
     38 C         -11.5096   10.0040   -0.1987 C.ar    1  LIG1        0.0707
     39 C         -10.6759   11.1189   -0.1929 C.ar    1  LIG1        0.0488
     40 N          -9.3537   11.0283   -0.1068 N.ar    1  LIG1       -0.2196
     41 H         -11.5398    7.8515   -0.1286 H       1  LIG1        0.0639
     42 H         -11.0950   12.1186   -0.2588 H       1  LIG1        0.0844
     43 O          -7.4738    9.7745    0.0850 O.3     1  LIG1       -0.4919
     44 H          -7.1681   10.6948    0.1014 H       1  LIG1        0.2937
     45 N         -14.0737   10.2967   -0.3872 N.1     1  LIG1       -0.1908
     46 C         -12.9287   10.1598   -0.2984 C.1     1  LIG1        0.1007
@<TRIPOS>BOND
     1    32    31    1
     2    31    24    1
     3     9    10    1
     4     9     1    1
     5     1     6   ar
     6     1     2   ar
     7    24    29   ar
     8    24    25   ar
     9     6     5   ar
    10    29    28   ar
    11    45    46    3
    12    22    23    3
    13    46    38    1
    14    42    39    1
    15    23    16    1
    16     8     2    1
    17    19    15    1
    18    38    39   ar
    19    38    37   ar
    20    39    40   ar
    21     2     3   ar
    22    16    15   ar
    23    16    17   ar
    24    15    14   ar
    25    20    21    1
    26    20    13    1
    27    41    37    1
    28    37    36   ar
    29    17    18   ar
    30    17    25    1
    31    40    35   ar
    32    13    18   ar
    33    13    14   ar
    34    14     5    1
    35     5     4   ar
    36    25    26   ar
    37    36    35   ar
    38    36    28    1
    39    35    43    1
    40    28    27   ar
    41    43    44    1
    42     3     4   ar
    43     3     7    1
    44     4    12    1
    45    26    27   ar
    46    26    30    1
    47    27    34    1
    48    12    11    3
    49    34    33    3
