@<TRIPOS>MOLECULE
mol_data/opt/cam/geoms/mol2/6fd6fd6fd6fd-.out
 46 49 0 0 0
SMALL
GASTEIGER

@<TRIPOS>ATOM
      1 C          -4.5017   -2.2297   -0.2861 C.ar    1  LIG1        0.2129
      2 C          -3.1362   -2.3810   -0.0319 C.ar    1  LIG1        0.0011
      3 C          -2.4244   -1.2402    0.2595 C.ar    1  LIG1       -0.0372
      4 C          -3.0488    0.0145    0.2763 C.ar    1  LIG1        0.0781
      5 C          -4.4218    0.0861   -0.0348 C.ar    1  LIG1        0.0972
      6 N          -5.0957   -1.0481   -0.2894 N.ar    1  LIG1       -0.2116
      7 H          -1.3669   -1.2999    0.4910 H       1  LIG1        0.0633
      8 H          -2.6620   -3.3555   -0.0460 H       1  LIG1        0.0671
      9 O          -5.3210   -3.2545   -0.5459 O.3     1  LIG1       -0.4924
     10 H          -4.8388   -4.0906   -0.5218 H       1  LIG1        0.2937
     11 N          -1.5432    1.9967    0.9782 N.1     1  LIG1       -0.1908
     12 C          -2.2424    1.1324    0.6573 C.1     1  LIG1        0.1013
     13 C          -6.6586    1.2623   -0.0955 C.ar    1  LIG1        0.2224
     14 C          -5.2330    1.3188   -0.0924 C.ar    1  LIG1        0.0643
     15 C          -4.6906    2.5935   -0.1934 C.ar    1  LIG1       -0.0279
     16 C          -5.4829    3.7408   -0.2086 C.ar    1  LIG1        0.0787
     17 C          -6.8821    3.5949   -0.0799 C.ar    1  LIG1        0.0973
     18 N          -7.4014    2.3628   -0.0544 N.ar    1  LIG1       -0.2110
     19 H          -3.6219    2.7313   -0.2811 H       1  LIG1        0.0639
     20 O          -7.3431    0.1415   -0.1350 O.3     1  LIG1       -0.4919
     21 H          -6.6858   -0.6027   -0.2479 H       1  LIG1        0.2937
     22 N          -4.2324    5.9725   -0.5932 N.1     1  LIG1       -0.1908
     23 C          -4.8156    4.9897   -0.4124 C.1     1  LIG1        0.1013
     24 C          -9.2517    4.4690   -0.2334 C.ar    1  LIG1        0.2224
     25 C          -7.8584    4.6953    0.0013 C.ar    1  LIG1        0.0643
     26 C          -7.5040    5.9938    0.3530 C.ar    1  LIG1       -0.0279
     27 C          -8.4465    7.0168    0.3782 C.ar    1  LIG1        0.0787
     28 C          -9.7668    6.7057   -0.0018 C.ar    1  LIG1        0.0973
     29 N         -10.1370    5.4613   -0.2671 N.ar    1  LIG1       -0.2110
     30 H          -6.4880    6.2341    0.6344 H       1  LIG1        0.0639
     31 O          -9.7580    3.2716   -0.4387 O.3     1  LIG1       -0.4919
     32 H          -9.0233    2.6099   -0.3074 H       1  LIG1        0.2937
     33 N          -7.7462    9.3341    1.2907 N.1     1  LIG1       -0.1908
     34 C          -8.0655    8.3093    0.8596 C.1     1  LIG1        0.1013
     35 C         -10.7181    8.9652   -0.6958 C.ar    1  LIG1        0.2218
     36 C         -10.8525    7.7135   -0.0653 C.ar    1  LIG1        0.0643
     37 C         -12.0989    7.4108    0.4550 C.ar    1  LIG1       -0.0285
     38 C         -13.1252    8.3581    0.4047 C.ar    1  LIG1        0.0707
     39 C         -12.8532    9.5874   -0.1951 C.ar    1  LIG1        0.0488
     40 N         -11.6807    9.8758   -0.7442 N.ar    1  LIG1       -0.2196
     41 H         -12.2627    6.4368    0.9008 H       1  LIG1        0.0639
     42 H         -13.6172   10.3583   -0.2384 H       1  LIG1        0.0844
     43 O          -9.5736    9.2544   -1.3194 O.3     1  LIG1       -0.4919
     44 H          -9.6438   10.1681   -1.6360 H       1  LIG1        0.2937
     45 N         -15.4653    7.8795    1.4007 N.1     1  LIG1       -0.1908
     46 C         -14.4182    8.0894    0.9561 C.1     1  LIG1        0.1007
@<TRIPOS>BOND
     1    44    43    1
     2    43    35    1
     3    40    35   ar
     4    40    39   ar
     5    35    36   ar
     6    22    23    3
     7     9    10    1
     8     9     1    1
     9    31    32    1
    10    31    24    1
    11    23    16    1
    12     6     1   ar
    13     6     5   ar
    14     1     2   ar
    15    19    15    1
    16    29    24   ar
    17    29    28   ar
    18    21    20    1
    19    42    39    1
    20    24    25   ar
    21    16    15   ar
    22    16    17   ar
    23    39    38   ar
    24    15    14   ar
    25    20    13    1
    26    13    14   ar
    27    13    18   ar
    28    14     5    1
    29    17    18   ar
    30    17    25    1
    31    36    28    1
    32    36    37   ar
    33     8     2    1
    34     5     4   ar
    35     2     3   ar
    36    28    27   ar
    37    25    26   ar
    38     3     4   ar
    39     3     7    1
    40     4    12    1
    41    26    27   ar
    42    26    30    1
    43    27    34    1
    44    38    37   ar
    45    38    46    1
    46    37    41    1
    47    12    11    3
    48    34    33    3
    49    46    45    3
