@<TRIPOS>MOLECULE
mol_data/opt/cam/geoms/mol2/6fd6fd-4fd6fd.out
 47 50 0 0 0
SMALL
GASTEIGER

@<TRIPOS>ATOM
      1 C          -4.3421   -2.1614   -0.5385 C.ar    1  LIG1        0.2129
      2 C          -2.9915   -2.2713   -0.1819 C.ar    1  LIG1        0.0011
      3 C          -2.3593   -1.1390    0.2798 C.ar    1  LIG1       -0.0372
      4 C          -3.0606    0.0703    0.3535 C.ar    1  LIG1        0.0781
      5 C          -4.3986    0.0820   -0.0732 C.ar    1  LIG1        0.0972
      6 N          -5.0148   -1.0241   -0.4883 N.ar    1  LIG1       -0.2116
      7 H          -1.3238   -1.1756    0.5987 H       1  LIG1        0.0633
      8 H          -2.4663   -3.2178   -0.2507 H       1  LIG1        0.0671
      9 O          -5.0605   -3.2133   -0.9633 O.3     1  LIG1       -0.4924
     10 H          -4.5127   -4.0077   -0.9727 H       1  LIG1        0.2937
     11 N          -1.8831    2.1102    1.4235 N.1     1  LIG1       -0.1908
     12 C          -2.4200    1.2151    0.9252 C.1     1  LIG1        0.1013
     13 C          -4.8529    2.5427   -0.5656 C.ar    1  LIG1        0.2224
     14 C          -5.2487    1.2977   -0.0414 C.ar    1  LIG1        0.0643
     15 C          -6.5325    1.2283    0.4639 C.ar    1  LIG1       -0.0279
     16 C          -7.3406    2.3694    0.5055 C.ar    1  LIG1        0.0787
     17 C          -6.8228    3.5704    0.0009 C.ar    1  LIG1        0.0957
     18 N          -5.6046    3.6303   -0.5330 N.ar    1  LIG1       -0.2111
     19 H          -6.9045    0.2818    0.8379 H       1  LIG1        0.0639
     20 O          -3.6662    2.6397   -1.1700 O.3     1  LIG1       -0.4919
     21 H          -3.5444    3.5706   -1.4123 H       1  LIG1        0.2937
     22 N          -9.7022    2.2374    1.5570 N.1     1  LIG1       -0.1908
     23 C          -8.6480    2.3011    1.0849 C.1     1  LIG1        0.1013
     24 C          -7.1273    5.9760    0.6607 C.ar    1  LIG1        0.1267
     25 C          -7.8752    7.1514    0.6573 C.ar    1  LIG1       -0.0104
     26 C          -7.6130    4.8297    0.0100 C.ar    1  LIG1        0.0444
     27 C          -9.1035    7.2290    0.0092 C.ar    1  LIG1        0.0081
     28 H          -7.5027    8.0236    1.1868 H       1  LIG1        0.0661
     29 C          -8.8389    4.9028   -0.6312 C.ar    1  LIG1       -0.0310
     30 C          -9.5859    6.0846   -0.6513 C.ar    1  LIG1        0.0605
     31 H          -9.2256    4.0315   -1.1469 H       1  LIG1        0.0638
     32 O          -5.9501    5.8788    1.3054 O.3     1  LIG1       -0.5061
     33 H          -5.7320    6.7151    1.7352 H       1  LIG1        0.2922
     34 N         -11.7980    6.1407   -1.9989 N.1     1  LIG1       -0.1908
     35 C         -10.8129    6.1217   -1.3932 C.1     1  LIG1        0.0998
     36 C         -11.1230    8.6319    0.6417 C.ar    1  LIG1        0.2203
     37 C          -9.8572    8.5096    0.0216 C.ar    1  LIG1        0.0461
     38 C          -9.3152    9.6536   -0.5370 C.ar    1  LIG1       -0.0300
     39 C         -10.0251   10.8555   -0.4913 C.ar    1  LIG1        0.0706
     40 C         -11.2724   10.8483    0.1349 C.ar    1  LIG1        0.0488
     41 N         -11.8005    9.7690    0.6903 N.ar    1  LIG1       -0.2197
     42 H          -8.3452    9.6120   -1.0205 H       1  LIG1        0.0639
     43 H         -11.8601   11.7608    0.1880 H       1  LIG1        0.0844
     44 O         -11.7260    7.6073    1.2552 O.3     1  LIG1       -0.4920
     45 H         -11.1951    6.8027    1.1889 H       1  LIG1        0.2937
     46 N          -9.0585   13.0239   -1.5200 N.1     1  LIG1       -0.1908
     47 C          -9.4938   12.0545   -1.0626 C.1     1  LIG1        0.1007
@<TRIPOS>BOND
     1    34    35    3
     2    46    47    3
     3    21    20    1
     4    35    30    1
     5    20    13    1
     6    31    29    1
     7    47    39    1
     8    42    38    1
     9    10     9    1
    10     9     1    1
    11    30    29   ar
    12    30    27   ar
    13    29    26   ar
    14    13    18   ar
    15    13    14   ar
    16     1     6   ar
    17     1     2   ar
    18    38    39   ar
    19    38    37   ar
    20    18    17   ar
    21    39    40   ar
    22     6     5   ar
    23     8     2    1
    24     2     3   ar
    25     5    14    1
    26     5     4   ar
    27    14    15   ar
    28    17    26    1
    29    17    16   ar
    30    27    37    1
    31    27    25   ar
    32    26    24   ar
    33    37    36   ar
    34    40    43    1
    35    40    41   ar
    36     3     4   ar
    37     3     7    1
    38     4    12    1
    39    15    16   ar
    40    15    19    1
    41    16    23    1
    42    36    41   ar
    43    36    44    1
    44    25    24   ar
    45    25    28    1
    46    24    32    1
    47    12    11    3
    48    23    22    3
    49    45    44    1
    50    32    33    1
