@<TRIPOS>MOLECULE
mol_data/opt/cam/geoms/mol2/6fd6fd6fd-6fd.out
 46 49 0 0 0
SMALL
GASTEIGER

@<TRIPOS>ATOM
      1 C          -4.4556   -2.2373    0.0360 C.ar    1  LIG1        0.2129
      2 C          -3.0670   -2.3332    0.1586 C.ar    1  LIG1        0.0011
      3 C          -2.3652   -1.1539    0.2591 C.ar    1  LIG1       -0.0372
      4 C          -3.0247    0.0817    0.2135 C.ar    1  LIG1        0.0781
      5 C          -4.4234    0.0909    0.0362 C.ar    1  LIG1        0.0972
      6 N          -5.0848   -1.0760   -0.0276 N.ar    1  LIG1       -0.2116
      7 H          -1.2887   -1.1674    0.3868 H       1  LIG1        0.0633
      8 H          -2.5664   -3.2939    0.1936 H       1  LIG1        0.0671
      9 O          -5.2635   -3.3025   -0.0273 O.3     1  LIG1       -0.4924
     10 H          -4.7528   -4.1194    0.0342 H       1  LIG1        0.2937
     11 N          -1.5240    2.1577    0.5710 N.1     1  LIG1       -0.1908
     12 C          -2.2234    1.2511    0.4039 C.1     1  LIG1        0.1013
     13 C          -6.6793    1.2398    0.1484 C.ar    1  LIG1        0.2224
     14 C          -5.2671    1.2997   -0.0684 C.ar    1  LIG1        0.0643
     15 C          -4.7593    2.5438   -0.4225 C.ar    1  LIG1       -0.0279
     16 C          -5.5747    3.6722   -0.4620 C.ar    1  LIG1        0.0787
     17 C          -6.9239    3.5194   -0.0957 C.ar    1  LIG1        0.0973
     18 N          -7.4422    2.3287    0.1689 N.ar    1  LIG1       -0.2110
     19 H          -3.7195    2.6620   -0.6941 H       1  LIG1        0.0639
     20 O          -7.3277    0.1102    0.3477 O.3     1  LIG1       -0.4919
     21 H          -6.6831   -0.6340    0.2090 H       1  LIG1        0.2937
     22 N          -4.6094    5.8936   -1.3704 N.1     1  LIG1       -0.1908
     23 C          -5.0425    4.9102   -0.9427 C.1     1  LIG1        0.1013
     24 C          -7.6246    5.8783    0.5851 C.ar    1  LIG1        0.2224
     25 C          -7.8864    4.6468   -0.0477 C.ar    1  LIG1        0.0643
     26 C          -9.1444    4.4993   -0.5957 C.ar    1  LIG1       -0.0279
     27 C         -10.0671    5.5531   -0.5605 C.ar    1  LIG1        0.0787
     28 C          -9.6944    6.7475    0.0788 C.ar    1  LIG1        0.0973
     29 N          -8.4881    6.8798    0.6347 N.ar    1  LIG1       -0.2110
     30 H          -9.4069    3.5613   -1.0708 H       1  LIG1        0.0639
     31 O          -6.4611    6.0442    1.2121 O.3     1  LIG1       -0.4919
     32 H          -6.4353    6.9546    1.5454 H       1  LIG1        0.2937
     33 N         -12.3269    5.2747   -1.7927 N.1     1  LIG1       -0.1908
     34 C         -11.3209    5.4107   -1.2383 C.1     1  LIG1        0.1013
     35 C         -11.8860    7.9178    0.6816 C.ar    1  LIG1        0.2218
     36 C         -10.5744    7.9403    0.1565 C.ar    1  LIG1        0.0643
     37 C         -10.0688    9.1708   -0.2330 C.ar    1  LIG1       -0.0285
     38 C         -10.8709   10.3078   -0.1568 C.ar    1  LIG1        0.0707
     39 C         -12.1691   10.1533    0.3368 C.ar    1  LIG1        0.0488
     40 N         -12.6535    8.9964    0.7546 N.ar    1  LIG1       -0.2196
     41 H          -9.0511    9.2373   -0.6001 H       1  LIG1        0.0639
     42 H         -12.8328   11.0115    0.4004 H       1  LIG1        0.0844
     43 O         -12.4568    6.8169    1.1872 O.3     1  LIG1       -0.4919
     44 H         -11.8631    6.0580    1.1340 H       1  LIG1        0.2937
     45 N         -10.0054   12.6315   -0.8961 N.1     1  LIG1       -0.1908
     46 C         -10.3905   11.5915   -0.5672 C.1     1  LIG1        0.1007
@<TRIPOS>BOND
     1    33    34    3
     2    22    23    3
     3    34    27    1
     4    30    26    1
     5    23    16    1
     6    45    46    3
     7    19    15    1
     8    41    37    1
     9    26    27   ar
    10    26    25   ar
    11    46    38    1
    12    27    28   ar
    13    16    15   ar
    14    16    17   ar
    15    15    14   ar
    16    37    38   ar
    17    37    36   ar
    18    38    39   ar
    19    17    25    1
    20    17    18   ar
    21    14     5    1
    22    14    13   ar
    23    25    24   ar
    24     6     1   ar
    25     6     5   ar
    26     9    10    1
    27     9     1    1
    28     1     2   ar
    29     5     4   ar
    30    28    36    1
    31    28    29   ar
    32    13    18   ar
    33    13    20    1
    34    36    35   ar
    35     2     8    1
    36     2     3   ar
    37    21    20    1
    38     4     3   ar
    39     4    12    1
    40     3     7    1
    41    39    42    1
    42    39    40   ar
    43    12    11    3
    44    24    29   ar
    45    24    31    1
    46    35    40   ar
    47    35    43    1
    48    44    43    1
    49    31    32    1
