@<TRIPOS>MOLECULE
mol_data/opt/cam/geoms/mol2/6fd6fd-6fd6fd-.out
 46 49 0 0 0
SMALL
GASTEIGER

@<TRIPOS>ATOM
      1 C          -3.6944   -1.7807   -1.0908 C.ar    1  LIG1        0.2129
      2 C          -2.8765   -2.1908   -0.0291 C.ar    1  LIG1        0.0011
      3 C          -2.8673   -1.4146    1.1075 C.ar    1  LIG1       -0.0372
      4 C          -3.6387   -0.2475    1.1602 C.ar    1  LIG1        0.0781
      5 C          -4.3870    0.0974    0.0235 C.ar    1  LIG1        0.0972
      6 N          -4.4181   -0.6741   -1.0619 N.ar    1  LIG1       -0.2116
      7 H          -2.2761   -1.7033    1.9692 H       1  LIG1        0.0633
      8 H          -2.2838   -3.0969   -0.0933 H       1  LIG1        0.0671
      9 O          -3.8043   -2.4864   -2.2271 O.3     1  LIG1       -0.4924
     10 H          -3.2549   -3.2785   -2.1820 H       1  LIG1        0.2937
     11 N          -3.7559    1.0705    3.3830 N.1     1  LIG1       -0.1908
     12 C          -3.6981    0.5019    2.3775 C.1     1  LIG1        0.1013
     13 C          -4.8111    2.5968    0.3189 C.ar    1  LIG1        0.2224
     14 C          -5.2459    1.3060   -0.0423 C.ar    1  LIG1        0.0643
     15 C          -6.5215    1.2198   -0.5608 C.ar    1  LIG1       -0.0279
     16 C          -7.3467    2.3510   -0.6224 C.ar    1  LIG1        0.0787
     17 C          -6.8441    3.5718   -0.1413 C.ar    1  LIG1        0.0973
     18 N          -5.5842    3.6691    0.2898 N.ar    1  LIG1       -0.2110
     19 H          -6.8776    0.2665   -0.9338 H       1  LIG1        0.0639
     20 O          -3.5415    2.7670    0.6878 O.3     1  LIG1       -0.4919
     21 H          -3.4377    3.6920    0.9598 H       1  LIG1        0.2937
     22 N          -9.6808    2.1360   -1.7212 N.1     1  LIG1       -0.1908
     23 C          -8.6399    2.2445   -1.2285 C.1     1  LIG1        0.1013
     24 C          -8.9149    4.9573    0.4405 C.ar    1  LIG1        0.2224
     25 C          -7.6290    4.8294   -0.1282 C.ar    1  LIG1        0.0643
     26 C          -7.0504    5.9905   -0.6135 C.ar    1  LIG1       -0.0279
     27 C          -7.7553    7.1923   -0.6196 C.ar    1  LIG1        0.0787
     28 C          -9.0706    7.1831   -0.1208 C.ar    1  LIG1        0.0973
     29 N          -9.5974    6.0899    0.4210 N.ar    1  LIG1       -0.2110
     30 H          -6.0336    5.9580   -0.9868 H       1  LIG1        0.0639
     31 O          -9.5427    3.9627    1.0793 O.3     1  LIG1       -0.4919
     32 H          -9.0029    3.1629    1.0969 H       1  LIG1        0.2937
     33 N          -6.5164    9.3315   -1.3822 N.1     1  LIG1       -0.1908
     34 C          -7.0948    8.3844   -1.0567 C.1     1  LIG1        0.1013
     35 C         -10.1273    9.2341   -1.1975 C.ar    1  LIG1        0.2218
     36 C          -9.9400    8.3836   -0.0916 C.ar    1  LIG1        0.0643
     37 C         -10.6743    8.6724    1.0456 C.ar    1  LIG1       -0.0285
     38 C         -11.4933    9.8041    1.0788 C.ar    1  LIG1        0.0707
     39 C         -11.5543   10.6026   -0.0629 C.ar    1  LIG1        0.0488
     40 N         -10.8960   10.3140   -1.1778 N.ar    1  LIG1       -0.2196
     41 H         -10.6026    8.0144    1.9036 H       1  LIG1        0.0639
     42 H         -12.1657   11.5003   -0.0734 H       1  LIG1        0.0844
     43 O          -9.5309    8.9315   -2.3536 O.3     1  LIG1       -0.4919
     44 H          -9.7339    9.6482   -2.9743 H       1  LIG1        0.2937
     45 N         -12.8542   10.4326    3.1883 N.1     1  LIG1       -0.1908
     46 C         -12.2455   10.1479    2.2469 C.1     1  LIG1        0.1007
@<TRIPOS>BOND
     1    44    43    1
     2    43    35    1
     3     9    10    1
     4     9     1    1
     5    22    23    3
     6    33    34    3
     7    23    16    1
     8    35    40   ar
     9    35    36   ar
    10    40    39   ar
    11     1     6   ar
    12     1     2   ar
    13     6     5   ar
    14    34    27    1
    15    30    26    1
    16    19    15    1
    17    16    15   ar
    18    16    17   ar
    19    27    26   ar
    20    27    28   ar
    21    26    25   ar
    22    15    14   ar
    23    17    25    1
    24    17    18   ar
    25    25    24   ar
    26    28    36    1
    27    28    29   ar
    28     8     2    1
    29    36    37   ar
    30    42    39    1
    31    39    38   ar
    32    14     5    1
    33    14    13   ar
    34     2     3   ar
    35     5     4   ar
    36    18    13   ar
    37    13    20    1
    38    29    24   ar
    39    24    31    1
    40    20    21    1
    41    37    38   ar
    42    37    41    1
    43    38    46    1
    44    31    32    1
    45     3     4   ar
    46     3     7    1
    47     4    12    1
    48    46    45    3
    49    12    11    3
