@<TRIPOS>MOLECULE
mol_data/opt/cam/geoms/mol2/6fd6fd-6fd-6fd.out
 46 49 0 0 0
SMALL
GASTEIGER

@<TRIPOS>ATOM
      1 C          -4.3555   -2.1647   -0.5166 C.ar    1  LIG1        0.2129
      2 C          -3.0017   -2.2752   -0.1723 C.ar    1  LIG1        0.0011
      3 C          -2.3610   -1.1404    0.2709 C.ar    1  LIG1       -0.0372
      4 C          -3.0574    0.0722    0.3388 C.ar    1  LIG1        0.0781
      5 C          -4.3995    0.0835   -0.0743 C.ar    1  LIG1        0.0972
      6 N          -5.0238   -1.0245   -0.4715 N.ar    1  LIG1       -0.2116
      7 H          -1.3225   -1.1771    0.5796 H       1  LIG1        0.0633
      8 H          -2.4804   -3.2241   -0.2363 H       1  LIG1        0.0671
      9 O          -5.0817   -3.2183   -0.9230 O.3     1  LIG1       -0.4924
     10 H          -4.5369   -4.0149   -0.9297 H       1  LIG1        0.2937
     11 N          -1.8628    2.1204    1.3733 N.1     1  LIG1       -0.1908
     12 C          -2.4073    1.2210    0.8911 C.1     1  LIG1        0.1013
     13 C          -4.8538    2.5408   -0.5888 C.ar    1  LIG1        0.2224
     14 C          -5.2466    1.3018   -0.0472 C.ar    1  LIG1        0.0643
     15 C          -6.5255    1.2395    0.4701 C.ar    1  LIG1       -0.0279
     16 C          -7.3334    2.3813    0.5063 C.ar    1  LIG1        0.0787
     17 C          -6.8192    3.5759   -0.0180 C.ar    1  LIG1        0.0973
     18 N          -5.6056    3.6284   -0.5630 N.ar    1  LIG1       -0.2110
     19 H          -6.8949    0.2976    0.8581 H       1  LIG1        0.0639
     20 O          -3.6725    2.6301   -1.2027 O.3     1  LIG1       -0.4919
     21 H          -3.5478    3.5585   -1.4530 H       1  LIG1        0.2937
     22 N          -9.6889    2.2614    1.5722 N.1     1  LIG1       -0.1908
     23 C          -8.6358    2.3175    1.0966 C.1     1  LIG1        0.1013
     24 C          -7.0814    6.0353    0.5074 C.ar    1  LIG1        0.2224
     25 C          -7.6043    4.8350   -0.0197 C.ar    1  LIG1        0.0643
     26 C          -8.8727    4.9073   -0.5554 C.ar    1  LIG1       -0.0279
     27 C          -9.5802    6.1190   -0.5600 C.ar    1  LIG1        0.0787
     28 C          -8.9796    7.2458    0.0211 C.ar    1  LIG1        0.0973
     29 N          -7.7455    7.1787    0.5295 N.ar    1  LIG1       -0.2110
     30 H          -9.3288    4.0302   -0.9997 H       1  LIG1        0.0639
     31 O          -5.8644    6.0285    1.0483 O.3     1  LIG1       -0.4919
     32 H          -5.6992    6.9240    1.3828 H       1  LIG1        0.2937
     33 N         -11.8651    6.2250   -1.7721 N.1     1  LIG1       -0.1908
     34 C         -10.8473    6.1882   -1.2238 C.1     1  LIG1        0.1013
     35 C         -10.9145    8.8078    0.6188 C.ar    1  LIG1        0.2218
     36 C          -9.6286    8.5787    0.0785 C.ar    1  LIG1        0.0643
     37 C          -8.9153    9.6873   -0.3503 C.ar    1  LIG1       -0.0285
     38 C          -9.4962   10.9524   -0.2986 C.ar    1  LIG1        0.0707
     39 C         -10.7938   11.0486    0.2116 C.ar    1  LIG1        0.0488
     40 N         -11.4724   10.0101    0.6672 N.ar    1  LIG1       -0.2196
     41 H          -7.9082    9.5582   -0.7294 H       1  LIG1        0.0639
     42 H         -11.2911   12.0139    0.2564 H       1  LIG1        0.0844
     43 O         -11.6679    7.8453    1.1629 O.3     1  LIG1       -0.4919
     44 H         -11.2237    6.9888    1.1364 H       1  LIG1        0.2937
     45 N          -8.2274   13.0539   -1.1163 N.1     1  LIG1       -0.1908
     46 C          -8.7951   12.1144   -0.7516 C.1     1  LIG1        0.1007
@<TRIPOS>BOND
     1    33    34    3
     2    21    20    1
     3    34    27    1
     4    20    13    1
     5    45    46    3
     6    30    26    1
     7    10     9    1
     8     9     1    1
     9    46    38    1
    10    41    37    1
    11    13    18   ar
    12    13    14   ar
    13    18    17   ar
    14    27    26   ar
    15    27    28   ar
    16    26    25   ar
    17     1     6   ar
    18     1     2   ar
    19     6     5   ar
    20    37    38   ar
    21    37    36   ar
    22    38    39   ar
    23     8     2    1
    24     2     3   ar
    25     5    14    1
    26     5     4   ar
    27    14    15   ar
    28    25    17    1
    29    25    24   ar
    30    17    16   ar
    31    28    36    1
    32    28    29   ar
    33    36    35   ar
    34    39    42    1
    35    39    40   ar
    36     3     4   ar
    37     3     7    1
    38     4    12    1
    39    15    16   ar
    40    15    19    1
    41    16    23    1
    42    24    29   ar
    43    24    31    1
    44    35    40   ar
    45    35    43    1
    46    12    11    3
    47    31    32    1
    48    23    22    3
    49    44    43    1
