@<TRIPOS>MOLECULE
mol_data/opt/cam/geoms/mol2/6fd6ed13ei-12ai6ed12fd12ah4ld.out
 93 100 0 0 0
SMALL
GASTEIGER

@<TRIPOS>ATOM
      1 C          -5.2939   -2.7545   -0.0276 C.ar    1  LIG1        0.2129
      2 C          -3.9454   -2.8987    0.3211 C.ar    1  LIG1        0.0011
      3 C          -3.2279   -1.7517    0.5739 C.ar    1  LIG1       -0.0372
      4 C          -3.8583   -0.5067    0.4699 C.ar    1  LIG1        0.0780
      5 C          -5.2145   -0.4736    0.1019 C.ar    1  LIG1        0.0948
      6 N          -5.9044   -1.5889   -0.1334 N.ar    1  LIG1       -0.2116
      7 H          -2.1829   -1.8023    0.8577 H       1  LIG1        0.0633
      8 H          -3.4823   -3.8770    0.3924 H       1  LIG1        0.0671
      9 O          -6.0748   -3.8218   -0.2933 O.3     1  LIG1       -0.4924
     10 H          -5.5600   -4.6344   -0.2173 H       1  LIG1        0.2937
     11 N          -2.4852    1.6205    1.0070 N.1     1  LIG1       -0.1908
     12 C          -3.1161    0.6820    0.7633 C.1     1  LIG1        0.1013
     13 C          -7.1374    1.1106    0.5953 C.ar    1  LIG1        0.1231
     14 C          -5.9315    0.8161   -0.0674 C.ar    1  LIG1        0.0368
     15 C          -5.4383    1.7808   -0.9320 C.ar    1  LIG1       -0.0303
     16 C          -6.1078    2.9897   -1.1056 C.ar    1  LIG1        0.0798
     17 C          -7.2635    3.2301   -0.3363 C.ar    1  LIG1        0.1070
     18 N          -7.7600    2.2813    0.4664 N.ar    1  LIG1       -0.2350
     19 H          -4.5422    1.5901   -1.5113 H       1  LIG1        0.0638
     20 C          -7.7442    0.1864    1.5123 C.1     1  LIG1       -0.0491
     21 C          -8.2639   -0.5464    2.3118 C.1     1  LIG1       -0.1124
     22 H          -8.7262   -1.2046    3.0116 H       1  LIG1        0.1232
     23 N          -5.2528    4.4991   -3.0233 N.1     1  LIG1       -0.1908
     24 C          -5.6483    3.8691   -2.1378 C.1     1  LIG1        0.1014
     25 C          -8.0244    4.4748   -0.3603 C.ar    1  LIG1        0.0826
     26 C          -7.6675    5.8255   -0.4273 C.ar    1  LIG1        0.0550
     27 C          -8.8596    6.5926   -0.2977 C.ar    1  LIG1       -0.0061
     28 C          -9.8952    5.6855   -0.1498 C.ar    1  LIG1        0.0867
     29 N          -9.3708    4.4249   -0.1787 N.ar    1  LIG1       -0.3493
     30 H          -9.9023    3.5717   -0.0612 H       1  LIG1        0.1661
     31 C          -6.3595    6.3746   -0.4909 C.1     1  LIG1       -0.0672
     32 C          -5.2640    6.8736   -0.5192 C.1     1  LIG1       -0.1138
     33 H          -4.2841    7.2889   -0.5693 H       1  LIG1        0.1232
     34 C          -8.9582    8.0829   -0.3039 C.3     1  LIG1       -0.0364
     35 H          -9.2430    8.4749    0.6786 H       1  LIG1        0.0279
     36 H          -9.7027    8.4318   -1.0265 H       1  LIG1        0.0279
     37 H          -7.9959    8.5234   -0.5695 H       1  LIG1        0.0279
     38 C         -11.3160    5.8484    0.0232 C.ar    1  LIG1        0.1523
     39 C         -12.1809    6.8764    0.2661 C.ar    1  LIG1       -0.0109
     40 C         -13.4836    6.3030    0.3954 C.ar    1  LIG1       -0.0040
     41 C         -13.3187    4.9527    0.2179 C.ar    1  LIG1        0.1413
     42 O         -12.0050    4.6851   -0.0168 O.2     1  LIG1       -0.4530
     43 H         -11.9266    7.9202    0.3716 H       1  LIG1        0.0659
     44 C         -14.7412    7.0554    0.6990 C.3     1  LIG1       -0.0361
     45 H         -15.4397    6.4562    1.2879 H       1  LIG1        0.0279
     46 H         -15.2581    7.3695   -0.2142 H       1  LIG1        0.0279
     47 H         -14.5166    7.9590    1.2697 H       1  LIG1        0.0279
     48 C         -13.7375    2.4833    0.5006 C.ar    1  LIG1        0.1246
     49 C         -14.1975    3.7952    0.2162 C.ar    1  LIG1        0.0526
     50 C         -15.5419    3.9130   -0.1280 C.ar    1  LIG1       -0.0288
     51 C         -16.3729    2.7964   -0.1988 C.ar    1  LIG1        0.0816
     52 C         -15.8184    1.5374    0.1001 C.ar    1  LIG1        0.1284
     53 N         -14.5367    1.4219    0.4438 N.ar    1  LIG1       -0.2332
     54 H         -15.9462    4.8785   -0.4049 H       1  LIG1        0.0639
     55 C         -12.3850    2.1663    0.8741 C.1     1  LIG1       -0.0491
     56 C         -11.2814    1.7993    1.1870 C.1     1  LIG1       -0.1124
     57 H         -10.2901    1.4888    1.4444 H       1  LIG1        0.1232
     58 N         -18.7698    3.1613   -1.1033 N.1     1  LIG1       -0.1908
     59 C         -17.7099    2.9725   -0.6808 C.1     1  LIG1        0.1014
     60 C         -16.5133    0.2599   -0.0037 C.ar    1  LIG1        0.1977
     61 C         -17.7861   -0.2268    0.1329 C.ar    1  LIG1        0.1827
     62 C         -17.7106   -1.6475   -0.0652 C.ar    1  LIG1        0.1425
     63 C         -16.3800   -1.9256   -0.2932 C.ar    1  LIG1        0.1917
     64 O         -15.6755   -0.7977   -0.2527 O.2     1  LIG1       -0.4450
     65 O         -18.8718    0.4866    0.4598 O.3     1  LIG1       -0.5023
     66 H         -19.6702   -0.0491    0.3659 H       1  LIG1        0.2923
     67 N         -19.7060   -3.2679    0.0515 N.1     1  LIG1       -0.1906
     68 C         -18.7951   -2.5538   -0.0021 C.1     1  LIG1        0.1068
     69 C         -15.6169   -3.1176   -0.5419 C.ar    1  LIG1        0.1738
     70 C         -15.9090   -4.4293   -0.7695 C.ar    1  LIG1        0.0087
     71 C         -14.6565   -5.0972   -0.9431 C.ar    1  LIG1        0.0718
     72 C         -13.6775   -4.1310   -0.7936 C.ar    1  LIG1        0.1599
     73 O         -14.2853   -2.9284   -0.5473 O.2     1  LIG1       -0.4497
     74 H         -16.8913   -4.8769   -0.8136 H       1  LIG1        0.0675
     75 N         -14.5315   -6.4530   -1.1756 N.pl3   1  LIG1       -0.3550
     76 H         -15.2722   -6.8590   -1.7264 H       1  LIG1        0.1424
     77 H         -13.6022   -6.7549   -1.4316 H       1  LIG1        0.1424
     78 C         -11.3368   -5.1043   -0.7611 C.ar    1  LIG1        0.1309
     79 C          -9.9606   -4.9213   -0.8348 C.ar    1  LIG1       -0.0180
     80 C         -12.2233   -4.0232   -0.8766 C.ar    1  LIG1        0.0619
     81 C          -9.4171   -3.6596   -1.0082 C.ar    1  LIG1       -0.0409
     82 H          -9.3260   -5.7960   -0.7445 H       1  LIG1        0.0655
     83 C         -11.6629   -2.7501   -1.0530 C.ar    1  LIG1       -0.0301
     84 C         -10.2845   -2.5686   -1.1154 C.ar    1  LIG1        0.0527
     85 H         -12.3175   -1.8917   -1.1306 H       1  LIG1        0.0639
     86 H          -8.3441   -3.5125   -1.0412 H       1  LIG1        0.0631
     87 O         -11.8128   -6.3832   -0.5748 O.3     1  LIG1       -0.4944
     88 C         -12.0227   -6.7286    0.7950 C.3     1  LIG1        0.0788
     89 H         -12.4207   -7.7427    0.8030 H       1  LIG1        0.0660
     90 H         -11.0778   -6.6953    1.3471 H       1  LIG1        0.0660
     91 H         -12.7454   -6.0539    1.2633 H       1  LIG1        0.0660
     92 N          -9.3473   -0.1739   -1.4541 N.1     1  LIG1       -0.1909
     93 C          -9.7601   -1.2434   -1.3003 C.1     1  LIG1        0.0992
@<TRIPOS>BOND
     1    23    24    3
     2    24    16    1
     3    76    75    1
     4    19    15    1
     5    92    93    3
     6    77    75    1
     7    93    84    1
     8    75    71    1
     9    85    83    1
    10    84    83   ar
    11    84    81   ar
    12    16    15   ar
    13    16    17   ar
    14    58    59    3
    15    83    80   ar
    16    86    81    1
    17    36    34    1
    18    81    79   ar
    19    71    72   ar
    20    71    70   ar
    21    15    14   ar
    22    80    72    1
    23    80    78   ar
    24    79    78   ar
    25    79    82    1
    26    74    70    1
    27    72    73   ar
    28    70    69   ar
    29    78    87    1
    30    59    51    1
    31    87    88    1
    32    37    34    1
    33    33    32    1
    34    73    69   ar
    35    69    63    1
    36    32    31    3
    37    31    26    1
    38    26    25   ar
    39    26    27   ar
    40    54    50    1
    41    25    17    1
    42    25    29   ar
    43    17    18   ar
    44    34    27    1
    45    34    35    1
    46    27    28   ar
    47     9    10    1
    48     9     1    1
    49    63    64   ar
    50    63    62   ar
    51    64    60   ar
    52    46    44    1
    53    51    50   ar
    54    51    52   ar
    55    29    28   ar
    56    29    30    1
    57    28    38    1
    58     6     1   ar
    59     6     5   ar
    60    50    49   ar
    61    14     5    1
    62    14    13   ar
    63    62    68    1
    64    62    61   ar
    65     1     2   ar
    66    42    38   ar
    67    42    41   ar
    68    60    52    1
    69    60    61   ar
    70    68    67    3
    71    38    39   ar
    72    52    53   ar
    73     5     4   ar
    74    61    65    1
    75    49    41    1
    76    49    48   ar
    77    41    40   ar
    78    39    43    1
    79    39    40   ar
    80     2     8    1
    81     2     3   ar
    82    66    65    1
    83    40    44    1
    84    53    48   ar
    85    18    13   ar
    86     4     3   ar
    87     4    12    1
    88    48    55    1
    89     3     7    1
    90    13    20    1
    91    44    47    1
    92    44    45    1
    93    12    11    3
    94    88    89    1
    95    88    91    1
    96    88    90    1
    97    55    56    3
    98    56    57    1
    99    20    21    3
   100    21    22    1
