@<TRIPOS>MOLECULE
mol_data/opt/cam/geoms/mol2/6fd6fd-.out
 24 25 0 0 0
SMALL
GASTEIGER

@<TRIPOS>ATOM
      1 C          -4.4431   -2.0052   -0.5052 C.ar    1  LIG1        0.2129
      2 C          -3.1097   -2.1001   -0.0859 C.ar    1  LIG1        0.0011
      3 C          -2.5079   -0.9563    0.3881 C.ar    1  LIG1       -0.0372
      4 C          -3.2206    0.2480    0.4127 C.ar    1  LIG1        0.0781
      5 C          -4.5381    0.2443   -0.0750 C.ar    1  LIG1        0.0972
      6 N          -5.1255   -0.8730   -0.5022 N.ar    1  LIG1       -0.2116
      7 H          -1.4878   -0.9800    0.7546 H       1  LIG1        0.0633
      8 H          -2.5750   -3.0433   -0.1174 H       1  LIG1        0.0671
      9 O          -5.1336   -3.0693   -0.9480 O.3     1  LIG1       -0.4924
     10 H          -4.5786   -3.8582   -0.9207 H       1  LIG1        0.2937
     11 N          -2.1010    2.3067    1.5085 N.1     1  LIG1       -0.1908
     12 C          -2.6131    1.4041    0.9976 C.1     1  LIG1        0.1013
     13 C          -4.9829    2.6916   -0.6254 C.ar    1  LIG1        0.2218
     14 C          -5.3974    1.4539   -0.0991 C.ar    1  LIG1        0.0643
     15 C          -6.7042    1.3771    0.3493 C.ar    1  LIG1       -0.0285
     16 C          -7.5173    2.5139    0.3310 C.ar    1  LIG1        0.0707
     17 C          -6.9750    3.6993   -0.1638 C.ar    1  LIG1        0.0488
     18 N          -5.7404    3.7794   -0.6426 N.ar    1  LIG1       -0.2196
     19 H          -7.0846    0.4304    0.7146 H       1  LIG1        0.0639
     20 H          -7.5670    4.6098   -0.1802 H       1  LIG1        0.0844
     21 O          -3.7690    2.7861   -1.1757 O.3     1  LIG1       -0.4919
     22 H          -3.6439    3.7139   -1.4275 H       1  LIG1        0.2937
     23 N          -9.9553    2.4489    1.1965 N.1     1  LIG1       -0.1908
     24 C          -8.8655    2.4749    0.8099 C.1     1  LIG1        0.1007
@<TRIPOS>BOND
     1    22    21    1
     2    21    13    1
     3     9    10    1
     4     9     1    1
     5    18    13   ar
     6    18    17   ar
     7    13    14   ar
     8     1     6   ar
     9     1     2   ar
    10     6     5   ar
    11    20    17    1
    12    17    16   ar
    13     8     2    1
    14    14     5    1
    15    14    15   ar
    16     2     3   ar
    17     5     4   ar
    18    16    15   ar
    19    16    24    1
    20    15    19    1
    21     3     4   ar
    22     3     7    1
    23     4    12    1
    24    24    23    3
    25    12    11    3
