@<TRIPOS>MOLECULE
mol_data/opt/cam/geoms/mol2/6fe13de-12ad-4fh-.out
 46 49 0 0 0
SMALL
GASTEIGER

@<TRIPOS>ATOM
      1 C          -4.6501   -1.7993    1.1341 C.ar    1  LIG1        0.2129
      2 C          -3.3198   -2.0767    0.7928 C.ar    1  LIG1        0.0010
      3 C          -2.6060   -1.0836    0.1623 C.ar    1  LIG1       -0.0392
      4 C          -3.1872    0.1683   -0.0958 C.ar    1  LIG1        0.0523
      5 C          -4.5004    0.3622    0.3629 C.ar    1  LIG1        0.1075
      6 N          -5.2096   -0.6251    0.9320 N.ar    1  LIG1       -0.2103
      7 H          -1.5867   -1.2604   -0.1618 H       1  LIG1        0.0632
      8 H          -2.8764   -3.0458    0.9957 H       1  LIG1        0.0671
      9 O          -5.4576   -2.7194    1.6980 O.3     1  LIG1       -0.4924
     10 H          -4.9763   -3.5471    1.8154 H       1  LIG1        0.2937
     11 C          -2.4609    1.1249   -0.8636 C.1     1  LIG1       -0.0675
     12 C          -1.8182    1.8820   -1.5426 C.1     1  LIG1       -0.1138
     13 H          -1.2672    2.5990   -2.1071 H       1  LIG1        0.1232
     14 C          -5.2697    1.6055    0.2257 C.ar    1  LIG1        0.0856
     15 C          -4.9850    2.9670    0.1985 C.ar    1  LIG1        0.0945
     16 C          -6.2305    3.6682    0.1081 C.ar    1  LIG1        0.0709
     17 C          -7.2301    2.7058    0.0966 C.ar    1  LIG1        0.0995
     18 N          -6.6275    1.4887    0.1714 N.ar    1  LIG1       -0.3485
     19 H          -7.0893    0.5964    0.2853 H       1  LIG1        0.1661
     20 N          -2.7646    4.2269    0.5432 N.1     1  LIG1       -0.1908
     21 C          -3.7407    3.6302    0.3699 C.1     1  LIG1        0.1026
     22 C          -6.4067    5.0734    0.0566 C.1     1  LIG1       -0.0661
     23 C          -6.5553    6.2676    0.0128 C.1     1  LIG1       -0.1138
     24 H          -6.6672    7.3270   -0.0227 H       1  LIG1        0.1232
     25 C          -8.6614    2.8352    0.0203 C.ar    1  LIG1        0.1543
     26 C          -9.5158    3.8888   -0.0150 C.ar    1  LIG1        0.0037
     27 C         -10.8314    3.3282   -0.0744 C.ar    1  LIG1        0.0982
     28 C         -10.6908    1.9607   -0.0678 C.ar    1  LIG1        0.1566
     29 O          -9.3667    1.6645   -0.0141 O.2     1  LIG1       -0.4519
     30 H          -9.2509    4.9336   -0.0037 H       1  LIG1        0.0669
     31 N         -12.9704    4.7389   -0.3625 N.1     1  LIG1       -0.1907
     32 C         -12.0295    4.0821   -0.2155 C.1     1  LIG1        0.1030
     33 C         -12.8752    0.8615    0.4134 C.ar    1  LIG1        0.1276
     34 C         -13.7236   -0.2286    0.2580 C.ar    1  LIG1       -0.0177
     35 C         -11.6025    0.8264   -0.1688 C.ar    1  LIG1        0.0617
     36 C         -13.3188   -1.3489   -0.4494 C.ar    1  LIG1       -0.0376
     37 H         -14.7104   -0.2040    0.7116 H       1  LIG1        0.0655
     38 C         -11.1971   -0.3200   -0.8589 C.ar    1  LIG1       -0.0268
     39 C         -12.0407   -1.4165   -1.0127 C.ar    1  LIG1        0.0254
     40 H         -10.2047   -0.3397   -1.2969 H       1  LIG1        0.0644
     41 H         -13.9977   -2.1897   -0.5558 H       1  LIG1        0.0637
     42 O         -13.2076    1.9549    1.1523 O.3     1  LIG1       -0.5061
     43 H         -14.1646    2.0200    1.2460 H       1  LIG1        0.2922
     44 N         -11.6081   -2.5706   -1.6707 N.pl3   1  LIG1       -0.3579
     45 H         -12.3483   -3.1297   -2.0694 H       1  LIG1        0.1423
     46 H         -10.8620   -2.4223   -2.3346 H       1  LIG1        0.1423
@<TRIPOS>BOND
     1    46    44    1
     2    13    12    1
     3    45    44    1
     4    44    39    1
     5    12    11    3
     6    40    38    1
     7    39    38   ar
     8    39    36   ar
     9    11     4    1
    10    38    35   ar
    11    41    36    1
    12    36    34   ar
    13    31    32    3
    14    32    27    1
    15    35    28    1
    16    35    33   ar
    17     7     3    1
    18     4     3   ar
    19     4     5   ar
    20    27    28   ar
    21    27    26   ar
    22    28    29   ar
    23    24    23    1
    24    26    30    1
    25    26    25   ar
    26    29    25   ar
    27    23    22    3
    28    25    17    1
    29    22    16    1
    30    17    16   ar
    31    17    18   ar
    32    16    15   ar
    33     3     2   ar
    34    18    14   ar
    35    18    19    1
    36    15    14   ar
    37    15    21    1
    38    14     5    1
    39    34    33   ar
    40    34    37    1
    41     5     6   ar
    42    21    20    3
    43    33    42    1
    44     2     8    1
    45     2     1   ar
    46     6     1   ar
    47     1     9    1
    48    42    43    1
    49     9    10    1
