@<TRIPOS>MOLECULE
mol_data/opt/cam/geoms/mol2/6fe6fe6fe-6fe.out
 50 53 0 0 0
SMALL
GASTEIGER

@<TRIPOS>ATOM
      1 C          -4.3630   -2.0799   -0.9123 C.ar    1  LIG1        0.2129
      2 C          -2.9879   -2.1897   -0.7049 C.ar    1  LIG1        0.0010
      3 C          -2.3223   -1.0483   -0.3151 C.ar    1  LIG1       -0.0392
      4 C          -3.0000    0.1621   -0.1116 C.ar    1  LIG1        0.0510
      5 C          -4.4011    0.1648   -0.2940 C.ar    1  LIG1        0.0952
      6 N          -5.0220   -0.9554   -0.7058 N.ar    1  LIG1       -0.2116
      7 H          -1.2481   -1.0679   -0.1699 H       1  LIG1        0.0632
      8 H          -2.4631   -3.1253   -0.8632 H       1  LIG1        0.0671
      9 O          -5.1280   -3.1015   -1.3359 O.3     1  LIG1       -0.4924
     10 H          -4.5825   -3.8839   -1.4813 H       1  LIG1        0.2937
     11 C          -2.2042    1.3059    0.2098 C.1     1  LIG1       -0.0675
     12 C          -1.4551    2.2148    0.4603 C.1     1  LIG1       -0.1138
     13 H          -0.8170    3.0401    0.6798 H       1  LIG1        0.1232
     14 C          -6.5887    1.3909   -0.6736 C.ar    1  LIG1        0.2224
     15 C          -5.2876    1.3297   -0.0894 C.ar    1  LIG1        0.0642
     16 C          -4.9328    2.4076    0.7128 C.ar    1  LIG1       -0.0299
     17 C          -5.7596    3.5211    0.8559 C.ar    1  LIG1        0.0516
     18 C          -6.9579    3.5239    0.1192 C.ar    1  LIG1        0.0953
     19 N          -7.3544    2.4719   -0.5883 N.ar    1  LIG1       -0.2111
     20 H          -4.0021    2.3918    1.2608 H       1  LIG1        0.0639
     21 O          -7.1245    0.3828   -1.3437 O.3     1  LIG1       -0.4919
     22 H          -6.5164   -0.3947   -1.2380 H       1  LIG1        0.2937
     23 C          -5.4015    4.5585    1.7711 C.1     1  LIG1       -0.0675
     24 C          -5.0872    5.3966    2.5762 C.1     1  LIG1       -0.1138
     25 H          -4.8187    6.1475    3.2828 H       1  LIG1        0.1232
     26 C          -7.5409    5.9963   -0.1158 C.ar    1  LIG1        0.2224
     27 C          -7.9082    4.6627    0.1373 C.ar    1  LIG1        0.0642
     28 C          -9.2564    4.4399    0.3290 C.ar    1  LIG1       -0.0299
     29 C         -10.1740    5.5000    0.3563 C.ar    1  LIG1        0.0516
     30 C          -9.6813    6.8045    0.1850 C.ar    1  LIG1        0.0953
     31 N          -8.3844    7.0112   -0.0749 N.ar    1  LIG1       -0.2111
     32 H          -9.6068    3.4217    0.4510 H       1  LIG1        0.0639
     33 O          -6.2755    6.2731   -0.4549 O.3     1  LIG1       -0.4919
     34 H          -6.2260    7.2349   -0.5624 H       1  LIG1        0.2937
     35 C         -11.5641    5.2198    0.5316 C.1     1  LIG1       -0.0675
     36 C         -12.7322    4.9844    0.7126 C.1     1  LIG1       -0.1138
     37 H         -13.7702    4.7858    0.8537 H       1  LIG1        0.1232
     38 C         -11.4533    8.3887    1.1961 C.ar    1  LIG1        0.2218
     39 C         -10.5096    8.0404    0.2018 C.ar    1  LIG1        0.0641
     40 C         -10.2548    8.9925   -0.7790 C.ar    1  LIG1       -0.0305
     41 C         -10.9194   10.2170   -0.7822 C.ar    1  LIG1        0.0436
     42 C         -11.8205   10.4435    0.2618 C.ar    1  LIG1        0.0468
     43 N         -12.0735    9.5627    1.2158 N.ar    1  LIG1       -0.2197
     44 H          -9.5159    8.7733   -1.5402 H       1  LIG1        0.0638
     45 H         -12.3562   11.3880    0.3176 H       1  LIG1        0.0843
     46 O         -11.7620    7.6062    2.2431 O.3     1  LIG1       -0.4919
     47 H         -11.6253    6.6721    2.0327 H       1  LIG1        0.2937
     48 C         -10.6875   11.2032   -1.7899 C.1     1  LIG1       -0.0681
     49 C         -10.4956   12.0373   -2.6366 C.1     1  LIG1       -0.1139
     50 H         -10.3273   12.7755   -3.3862 H       1  LIG1        0.1232
@<TRIPOS>BOND
     1    50    49    1
     2    49    48    3
     3    48    41    1
     4    44    40    1
     5    10     9    1
     6    21    22    1
     7    21    14    1
     8     9     1    1
     9     1     6   ar
    10     1     2   ar
    11     8     2    1
    12    41    40   ar
    13    41    42   ar
    14    40    39   ar
    15     6     5   ar
    16     2     3   ar
    17    14    19   ar
    18    14    15   ar
    19    19    18   ar
    20    34    33    1
    21    33    26    1
    22     3     7    1
    23     3     4   ar
    24     5     4   ar
    25     5    15    1
    26    26    31   ar
    27    26    27   ar
    28     4    11    1
    29    15    16   ar
    30    31    30   ar
    31    18    27    1
    32    18    17   ar
    33    27    28   ar
    34    30    39    1
    35    30    29   ar
    36    39    38   ar
    37    11    12    3
    38    42    45    1
    39    42    43   ar
    40    28    29   ar
    41    28    32    1
    42    29    35    1
    43    12    13    1
    44    35    36    3
    45    36    37    1
    46    16    17   ar
    47    16    20    1
    48    17    23    1
    49    38    43   ar
    50    38    46    1
    51    23    24    3
    52    47    46    1
    53    24    25    1
