@<TRIPOS>MOLECULE
mol_data/opt/cam/geoms/mol2/6fe6fe.out
 26 27 0 0 0
SMALL
GASTEIGER

@<TRIPOS>ATOM
      1 C          -4.5127   -2.0638   -0.2580 C.ar    1  LIG1        0.2129
      2 C          -3.1195   -2.1131   -0.2151 C.ar    1  LIG1        0.0010
      3 C          -2.4598   -0.9194   -0.0210 C.ar    1  LIG1       -0.0392
      4 C          -3.1550    0.2920    0.1008 C.ar    1  LIG1        0.0510
      5 C          -4.5636    0.2521   -0.0118 C.ar    1  LIG1        0.0952
      6 N          -5.1840   -0.9315   -0.1672 N.ar    1  LIG1       -0.2116
      7 H          -1.3783   -0.9018    0.0535 H       1  LIG1        0.0632
      8 H          -2.5811   -3.0497   -0.3079 H       1  LIG1        0.0671
      9 O          -5.2844   -3.1570   -0.3944 O.3     1  LIG1       -0.4924
     10 H          -4.7317   -3.9465   -0.4389 H       1  LIG1        0.2937
     11 C          -2.3760    1.4569    0.3862 C.1     1  LIG1       -0.0675
     12 C          -1.6409    2.3759    0.6415 C.1     1  LIG1       -0.1138
     13 H          -1.0167    3.2088    0.8720 H       1  LIG1        0.1232
     14 C          -6.8513    1.2863    0.3528 C.ar    1  LIG1        0.2218
     15 C          -5.4623    1.4258    0.0462 C.ar    1  LIG1        0.0641
     16 C          -5.0135    2.7169   -0.2146 C.ar    1  LIG1       -0.0305
     17 C          -5.8701    3.8107   -0.1083 C.ar    1  LIG1        0.0436
     18 C          -7.1869    3.5469    0.2822 C.ar    1  LIG1        0.0468
     19 N          -7.6616    2.3329    0.4962 N.ar    1  LIG1       -0.2197
     20 H          -3.9883    2.8875   -0.5086 H       1  LIG1        0.0638
     21 H          -7.8847    4.3711    0.4118 H       1  LIG1        0.0843
     22 O          -7.4343    0.1092    0.5191 O.3     1  LIG1       -0.4919
     23 H          -6.7764   -0.5841    0.2544 H       1  LIG1        0.2937
     24 C          -5.4290    5.1430   -0.3764 C.1     1  LIG1       -0.0681
     25 C          -5.0633    6.2681   -0.6010 C.1     1  LIG1       -0.1139
     26 H          -4.7433    7.2645   -0.8007 H       1  LIG1        0.1232
@<TRIPOS>BOND
     1    26    25    1
     2    25    24    3
     3    20    16    1
     4    10     9    1
     5     9     1    1
     6    24    17    1
     7     8     2    1
     8     1     2   ar
     9     1     6   ar
    10     2     3   ar
    11    16    17   ar
    12    16    15   ar
    13     6     5   ar
    14    17    18   ar
    15     3     7    1
    16     3     4   ar
    17     5    15    1
    18     5     4   ar
    19    15    14   ar
    20     4    11    1
    21    23    22    1
    22    18    21    1
    23    18    19   ar
    24    14    19   ar
    25    14    22    1
    26    11    12    3
    27    12    13    1
