@<TRIPOS>MOLECULE
mol_data/opt/cam/geoms/mol2/6fe6fe-6fe.out
 38 40 0 0 0
SMALL
GASTEIGER

@<TRIPOS>ATOM
      1 C          -4.1154   -1.7737   -1.3100 C.ar    1  LIG1        0.2129
      2 C          -2.9354   -2.0406   -0.6071 C.ar    1  LIG1        0.0010
      3 C          -2.5304   -1.1199    0.3348 C.ar    1  LIG1       -0.0392
      4 C          -3.2748    0.0472    0.5491 C.ar    1  LIG1        0.0510
      5 C          -4.4162    0.2337   -0.2498 C.ar    1  LIG1        0.0952
      6 N          -4.8259   -0.6742   -1.1380 N.ar    1  LIG1       -0.2116
      7 H          -1.6398   -1.2944    0.9279 H       1  LIG1        0.0632
      8 H          -2.3673   -2.9479   -0.7850 H       1  LIG1        0.0671
      9 O          -4.6171   -2.6289   -2.2249 O.3     1  LIG1       -0.4924
     10 H          -4.0454   -3.4029   -2.2922 H       1  LIG1        0.2937
     11 C          -2.8976    0.9500    1.5901 C.1     1  LIG1       -0.0675
     12 C          -2.5668    1.6673    2.4983 C.1     1  LIG1       -0.1138
     13 H          -2.2815    2.3142    3.2957 H       1  LIG1        0.1232
     14 C          -4.8206    2.7496   -0.2104 C.ar    1  LIG1        0.2224
     15 C          -5.2898    1.4268   -0.1244 C.ar    1  LIG1        0.0642
     16 C          -6.6558    1.2839    0.0035 C.ar    1  LIG1       -0.0299
     17 C          -7.4974    2.3992    0.1256 C.ar    1  LIG1        0.0516
     18 C          -6.9085    3.6748    0.1186 C.ar    1  LIG1        0.0953
     19 N          -5.5912    3.8128   -0.0775 N.ar    1  LIG1       -0.2111
     20 H          -7.0839    0.2882    0.0005 H       1  LIG1        0.0639
     21 O          -3.5256    2.9662   -0.4735 O.3     1  LIG1       -0.4919
     22 H          -3.4022    3.9275   -0.4682 H       1  LIG1        0.2937
     23 C          -8.9093    2.2044    0.2270 C.1     1  LIG1       -0.0675
     24 C         -10.0969    2.0370    0.3452 C.1     1  LIG1       -0.1138
     25 H         -11.1510    1.9023    0.4328 H       1  LIG1        0.1232
     26 C          -8.6007    5.2614    1.2534 C.ar    1  LIG1        0.2218
     27 C          -7.6487    4.9583    0.2524 C.ar    1  LIG1        0.0641
     28 C          -7.2937    5.9924   -0.6066 C.ar    1  LIG1       -0.0305
     29 C          -7.8718    7.2546   -0.4894 C.ar    1  LIG1        0.0436
     30 C          -8.7922    7.4283    0.5481 C.ar    1  LIG1        0.0468
     31 N          -9.1390    6.4676    1.3887 N.ar    1  LIG1       -0.2197
     32 H          -6.5451    5.8063   -1.3672 H       1  LIG1        0.0638
     33 H          -9.2634    8.3969    0.6955 H       1  LIG1        0.0843
     34 O          -8.9997    4.3921    2.1963 O.3     1  LIG1       -0.4919
     35 H          -8.9159    3.4795    1.8877 H       1  LIG1        0.2937
     36 C          -7.5366    8.3271   -1.3720 C.1     1  LIG1       -0.0681
     37 C          -7.2576    9.2339   -2.1131 C.1     1  LIG1       -0.1139
     38 H          -7.0121   10.0369   -2.7691 H       1  LIG1        0.1232
@<TRIPOS>BOND
     1    38    37    1
     2    10     9    1
     3     9     1    1
     4    37    36    3
     5    36    29    1
     6    32    28    1
     7     1     6   ar
     8     1     2   ar
     9     6     5   ar
    10     8     2    1
    11     2     3   ar
    12    28    29   ar
    13    28    27   ar
    14    29    30   ar
    15    21    22    1
    16    21    14    1
    17     5    15    1
    18     5     4   ar
    19    14    15   ar
    20    14    19   ar
    21    15    16   ar
    22    19    18   ar
    23    20    16    1
    24    16    17   ar
    25    18    17   ar
    26    18    27    1
    27    17    23    1
    28    23    24    3
    29    27    26   ar
    30     3     4   ar
    31     3     7    1
    32    24    25    1
    33    30    33    1
    34    30    31   ar
    35     4    11    1
    36    26    31   ar
    37    26    34    1
    38    11    12    3
    39    35    34    1
    40    12    13    1
