@<TRIPOS>MOLECULE
mol_data/opt/cam/geoms/mol2/6fe6fe6fe6fe.out
 50 53 0 0 0
SMALL
GASTEIGER

@<TRIPOS>ATOM
      1 C          -4.6318   -2.2361   -0.0005 C.ar    1  LIG1        0.2129
      2 C          -3.2508   -2.4278   -0.0006 C.ar    1  LIG1        0.0010
      3 C          -2.4682   -1.2953   -0.0005 C.ar    1  LIG1       -0.0392
      4 C          -3.0264   -0.0078   -0.0004 C.ar    1  LIG1        0.0510
      5 C          -4.4368    0.0936   -0.0004 C.ar    1  LIG1        0.0952
      6 N          -5.1746   -1.0337   -0.0004 N.ar    1  LIG1       -0.2116
      7 H          -1.3876   -1.3830   -0.0004 H       1  LIG1        0.0632
      8 H          -2.8138   -3.4199   -0.0006 H       1  LIG1        0.0671
      9 O          -5.5202   -3.2431   -0.0006 O.3     1  LIG1       -0.4924
     10 H          -5.0619   -4.0922   -0.0006 H       1  LIG1        0.2937
     11 C          -2.0932    1.0759   -0.0002 C.1     1  LIG1       -0.0675
     12 C          -1.2159    1.9011   -0.0000 C.1     1  LIG1       -0.1138
     13 H          -0.4613    2.6545   -0.0003 H       1  LIG1        0.1232
     14 C          -6.6597    1.3121    0.0000 C.ar    1  LIG1        0.2224
     15 C          -5.2335    1.3401   -0.0003 C.ar    1  LIG1        0.0642
     16 C          -4.6777    2.6127   -0.0006 C.ar    1  LIG1       -0.0299
     17 C          -5.4337    3.7875   -0.0005 C.ar    1  LIG1        0.0516
     18 C          -6.8417    3.6600   -0.0001 C.ar    1  LIG1        0.0953
     19 N          -7.3755    2.4293    0.0001 N.ar    1  LIG1       -0.2111
     20 H          -3.6049    2.7256   -0.0009 H       1  LIG1        0.0639
     21 O          -7.3752    0.2076    0.0002 O.3     1  LIG1       -0.4919
     22 H          -6.7245   -0.5552   -0.0000 H       1  LIG1        0.2937
     23 C          -4.6878    5.0086   -0.0009 C.1     1  LIG1       -0.0675
     24 C          -3.9645    5.9720   -0.0012 C.1     1  LIG1       -0.1138
     25 H          -3.3522    6.8444   -0.0016 H       1  LIG1        0.1232
     26 C          -9.2334    4.4852    0.0005 C.ar    1  LIG1        0.2224
     27 C          -7.8323    4.7536    0.0002 C.ar    1  LIG1        0.0642
     28 C          -7.4992    6.1022    0.0002 C.ar    1  LIG1       -0.0299
     29 C          -8.4420    7.1319    0.0004 C.ar    1  LIG1        0.0516
     30 C          -9.8123    6.7699    0.0006 C.ar    1  LIG1        0.0953
     31 N         -10.1271    5.4668    0.0006 N.ar    1  LIG1       -0.2111
     32 H          -6.4601    6.3931   -0.0000 H       1  LIG1        0.0639
     33 O          -9.7471    3.2754    0.0006 O.3     1  LIG1       -0.4919
     34 H          -8.9680    2.6358    0.0004 H       1  LIG1        0.2937
     35 C          -7.9011    8.4572    0.0004 C.1     1  LIG1       -0.0675
     36 C          -7.3333    9.5198    0.0004 C.1     1  LIG1       -0.1138
     37 H          -6.8656   10.4774    0.0006 H       1  LIG1        0.1232
     38 C         -12.3194    7.1857    0.0012 C.ar    1  LIG1        0.2218
     39 C         -10.9737    7.6858    0.0008 C.ar    1  LIG1        0.0641
     40 C         -10.8365    9.0726    0.0006 C.ar    1  LIG1       -0.0305
     41 C         -11.9472    9.9114    0.0008 C.ar    1  LIG1        0.0436
     42 C         -13.2045    9.2978    0.0013 C.ar    1  LIG1        0.0468
     43 N         -13.3841    7.9915    0.0015 N.ar    1  LIG1       -0.2197
     44 H          -9.8553    9.5204    0.0002 H       1  LIG1        0.0638
     45 H         -14.1025    9.9122    0.0015 H       1  LIG1        0.0843
     46 O         -12.6089    5.9008    0.0014 O.3     1  LIG1       -0.4919
     47 H         -11.7356    5.4066    0.0012 H       1  LIG1        0.2937
     48 C         -11.8174   11.3345    0.0006 C.1     1  LIG1       -0.0681
     49 C         -11.7163   12.5346    0.0004 C.1     1  LIG1       -0.1139
     50 H         -11.6295   13.5963    0.0000 H       1  LIG1        0.1232
@<TRIPOS>BOND
     1    25    24    1
     2    24    23    3
     3    20    16    1
     4    23    17    1
     5     8     2    1
     6    10     9    1
     7    16    17   ar
     8    16    15   ar
     9     9     1    1
    10     2     1   ar
    11     2     3   ar
    12     1     6   ar
    13    17    18   ar
    14     3     7    1
    15     3     4   ar
    16     6     5   ar
    17     5     4   ar
    18     5    15    1
    19     4    11    1
    20    13    12    1
    21    15    14   ar
    22    11    12    3
    23    18    19   ar
    24    18    27    1
    25    22    21    1
    26    32    28    1
    27    14    19   ar
    28    14    21    1
    29    50    49    1
    30    28    27   ar
    31    28    29   ar
    32    27    26   ar
    33    44    40    1
    34    49    48    3
    35    29    35    1
    36    29    30   ar
    37    35    36    3
    38    36    37    1
    39    34    33    1
    40    26    33    1
    41    26    31   ar
    42    48    41    1
    43    40    41   ar
    44    40    39   ar
    45    30    31   ar
    46    30    39    1
    47    41    42   ar
    48    39    38   ar
    49    47    46    1
    50    38    46    1
    51    38    43   ar
    52    42    45    1
    53    42    43   ar
