@<TRIPOS>MOLECULE
mol_data/opt/cam/geoms/mol2/6fe6fe6fe6fe-.out
 50 53 0 0 0
SMALL
GASTEIGER

@<TRIPOS>ATOM
      1 C          -4.4812   -2.1921   -0.3840 C.ar    1  LIG1        0.2129
      2 C          -3.1264   -2.3316   -0.0816 C.ar    1  LIG1        0.0010
      3 C          -2.4414   -1.1861    0.2583 C.ar    1  LIG1       -0.0392
      4 C          -3.0702    0.0675    0.2779 C.ar    1  LIG1        0.0510
      5 C          -4.4328    0.1192   -0.0901 C.ar    1  LIG1        0.0952
      6 N          -5.0860   -1.0191   -0.3898 N.ar    1  LIG1       -0.2116
      7 H          -1.3934   -1.2399    0.5303 H       1  LIG1        0.0632
      8 H          -2.6391   -3.3001   -0.0950 H       1  LIG1        0.0671
      9 O          -5.2794   -3.2280   -0.6924 O.3     1  LIG1       -0.4924
     10 H          -4.7804   -4.0532   -0.6584 H       1  LIG1        0.2937
     11 C          -2.2869    1.1786    0.7205 C.1     1  LIG1       -0.0675
     12 C          -1.5567    2.0492    1.1194 C.1     1  LIG1       -0.1138
     13 H          -0.9339    2.8386    1.4740 H       1  LIG1        0.1232
     14 C          -6.6801    1.2758   -0.1949 C.ar    1  LIG1        0.2224
     15 C          -5.2582    1.3413   -0.1643 C.ar    1  LIG1        0.0642
     16 C          -4.7239    2.6199   -0.2588 C.ar    1  LIG1       -0.0299
     17 C          -5.5115    3.7721   -0.2893 C.ar    1  LIG1        0.0516
     18 C          -6.9118    3.6084   -0.1830 C.ar    1  LIG1        0.0953
     19 N          -7.4271    2.3711   -0.1686 N.ar    1  LIG1       -0.2111
     20 H          -3.6539    2.7491   -0.3282 H       1  LIG1        0.0639
     21 O          -7.3583    0.1451   -0.2471 O.3     1  LIG1       -0.4919
     22 H          -6.6911   -0.5870   -0.3636 H       1  LIG1        0.2937
     23 C          -4.8342    5.0172   -0.4818 C.1     1  LIG1       -0.0675
     24 C          -4.1899    6.0185   -0.6630 C.1     1  LIG1       -0.1138
     25 H          -3.6486    6.9212   -0.8302 H       1  LIG1        0.1232
     26 C          -9.2849    4.4712   -0.3865 C.ar    1  LIG1        0.2224
     27 C          -7.9014    4.6997   -0.1131 C.ar    1  LIG1        0.0642
     28 C          -7.5636    5.9942    0.2658 C.ar    1  LIG1       -0.0299
     29 C          -8.5040    7.0220    0.2872 C.ar    1  LIG1        0.0516
     30 C          -9.8103    6.7022   -0.1299 C.ar    1  LIG1        0.0953
     31 N         -10.1733    5.4590   -0.4222 N.ar    1  LIG1       -0.2111
     32 H          -6.5528    6.2221    0.5715 H       1  LIG1        0.0639
     33 O          -9.7790    3.2696   -0.6270 O.3     1  LIG1       -0.4919
     34 H          -9.0416    2.6155   -0.4758 H       1  LIG1        0.2937
     35 C          -8.1338    8.3109    0.7814 C.1     1  LIG1       -0.0675
     36 C          -7.7946    9.3726    1.2367 C.1     1  LIG1       -0.1138
     37 H          -7.5072   10.3192    1.6318 H       1  LIG1        0.1232
     38 C         -10.7868    8.9259   -0.8922 C.ar    1  LIG1        0.2218
     39 C         -10.8990    7.7088   -0.1984 C.ar    1  LIG1        0.0641
     40 C         -12.1259    7.4390    0.3828 C.ar    1  LIG1       -0.0305
     41 C         -13.1621    8.3791    0.3292 C.ar    1  LIG1        0.0436
     42 C         -12.9047    9.5716   -0.3457 C.ar    1  LIG1        0.0468
     43 N         -11.7509    9.8326   -0.9527 N.ar    1  LIG1       -0.2197
     44 H         -12.2727    6.4884    0.8820 H       1  LIG1        0.0638
     45 H         -13.6705   10.3400   -0.4042 H       1  LIG1        0.0843
     46 O          -9.6629    9.1917   -1.5748 O.3     1  LIG1       -0.4919
     47 H          -9.7890   10.0691   -1.9657 H       1  LIG1        0.2937
     48 C         -14.4312    8.1397    0.9414 C.1     1  LIG1       -0.0681
     49 C         -15.5014    7.9429    1.4562 C.1     1  LIG1       -0.1139
     50 H         -16.4483    7.7645    1.9110 H       1  LIG1        0.1232
@<TRIPOS>BOND
     1    47    46    1
     2    46    38    1
     3    43    38   ar
     4    43    42   ar
     5    38    39   ar
     6    25    24    1
     7     9    10    1
     8     9     1    1
     9    24    23    3
    10    33    34    1
    11    33    26    1
    12    23    17    1
    13    31    26   ar
    14    31    30   ar
    15    45    42    1
    16     6     1   ar
    17     6     5   ar
    18    26    27   ar
    19     1     2   ar
    20    22    21    1
    21    42    41   ar
    22    20    16    1
    23    17    16   ar
    24    17    18   ar
    25    16    15   ar
    26    21    14    1
    27    39    30    1
    28    39    40   ar
    29    14    19   ar
    30    14    15   ar
    31    18    19   ar
    32    18    27    1
    33    15     5    1
    34    30    29   ar
    35    27    28   ar
    36     8     2    1
    37     5     4   ar
    38     2     3   ar
    39     3     4   ar
    40     3     7    1
    41    28    29   ar
    42    28    32    1
    43     4    11    1
    44    29    35    1
    45    41    40   ar
    46    41    48    1
    47    40    44    1
    48    11    12    3
    49    35    36    3
    50    48    49    3
    51    12    13    1
    52    36    37    1
    53    49    50    1
