@<TRIPOS>MOLECULE
mol_data/opt/cam/geoms/mol2/6fe6fe6fe.out
 38 40 0 0 0
SMALL
GASTEIGER

@<TRIPOS>ATOM
      1 C          -4.5411   -2.1391   -0.0005 C.ar    1  LIG1        0.2129
      2 C          -3.1524   -2.2611   -0.0005 C.ar    1  LIG1        0.0010
      3 C          -2.4284   -1.0900   -0.0003 C.ar    1  LIG1       -0.0392
      4 C          -3.0511    0.1672   -0.0002 C.ar    1  LIG1        0.0510
      5 C          -4.4656    0.1977   -0.0003 C.ar    1  LIG1        0.0952
      6 N          -5.1446   -0.9662   -0.0004 N.ar    1  LIG1       -0.2116
      7 H          -1.3448   -1.1225   -0.0003 H       1  LIG1        0.0632
      8 H          -2.6656   -3.2298   -0.0006 H       1  LIG1        0.0671
      9 O          -5.3770   -3.1908   -0.0006 O.3     1  LIG1       -0.4924
     10 H          -4.8747   -4.0146   -0.0007 H       1  LIG1        0.2937
     11 C          -2.1731    1.2961    0.0000 C.1     1  LIG1       -0.0675
     12 C          -1.3379    2.1641    0.0003 C.1     1  LIG1       -0.1138
     13 H          -0.6236    2.9556    0.0005 H       1  LIG1        0.1232
     14 C          -6.7454    1.3062   -0.0000 C.ar    1  LIG1        0.2224
     15 C          -5.3232    1.4018   -0.0003 C.ar    1  LIG1        0.0642
     16 C          -4.8319    2.7013   -0.0005 C.ar    1  LIG1       -0.0299
     17 C          -5.6435    3.8372   -0.0004 C.ar    1  LIG1        0.0516
     18 C          -7.0471    3.6434   -0.0001 C.ar    1  LIG1        0.0953
     19 N          -7.5145    2.3868    0.0001 N.ar    1  LIG1       -0.2111
     20 H          -3.7661    2.8673   -0.0007 H       1  LIG1        0.0639
     21 O          -7.4073    0.1672    0.0001 O.3     1  LIG1       -0.4919
     22 H          -6.7218   -0.5625   -0.0001 H       1  LIG1        0.2937
     23 C          -4.9464    5.0874   -0.0006 C.1     1  LIG1       -0.0675
     24 C          -4.2542    6.0734   -0.0008 C.1     1  LIG1       -0.1138
     25 H          -3.6741    6.9676   -0.0007 H       1  LIG1        0.1232
     26 C          -9.4861    4.3571    0.0006 C.ar    1  LIG1        0.2218
     27 C          -8.0902    4.6916    0.0000 C.ar    1  LIG1        0.0641
     28 C          -7.7872    6.0521   -0.0003 C.ar    1  LIG1       -0.0305
     29 C          -8.7889    7.0182   -0.0002 C.ar    1  LIG1        0.0436
     30 C         -10.1109    6.5601    0.0004 C.ar    1  LIG1        0.0468
     31 N         -10.4460    5.2848    0.0008 N.ar    1  LIG1       -0.2197
     32 H          -6.7594    6.3788   -0.0008 H       1  LIG1        0.0638
     33 H         -10.9286    7.2778    0.0006 H       1  LIG1        0.0843
     34 O          -9.9288    3.1160    0.0009 O.3     1  LIG1       -0.4919
     35 H          -9.1233    2.5199    0.0007 H       1  LIG1        0.2937
     36 C          -8.4889    8.4153   -0.0005 C.1     1  LIG1       -0.0681
     37 C          -8.2444    9.5945   -0.0009 C.1     1  LIG1       -0.1139
     38 H          -8.0314   10.6383   -0.0010 H       1  LIG1        0.1232
@<TRIPOS>BOND
     1    38    37    1
     2    37    36    3
     3    32    28    1
     4    24    25    1
     5    24    23    3
     6    20    16    1
     7    10     9    1
     8     9     1    1
     9    23    17    1
    10     8     2    1
    11    36    29    1
    12     1     2   ar
    13     1     6   ar
    14     2     3   ar
    15    16    17   ar
    16    16    15   ar
    17     6     5   ar
    18    17    18   ar
    19     3     7    1
    20     3     4   ar
    21    28    29   ar
    22    28    27   ar
    23     5    15    1
    24     5     4   ar
    25    15    14   ar
    26     4    11    1
    27    29    30   ar
    28    18    27    1
    29    18    19   ar
    30    22    21    1
    31    14    19   ar
    32    14    21    1
    33    11    12    3
    34    27    26   ar
    35    12    13    1
    36    30    33    1
    37    30    31   ar
    38    26    31   ar
    39    26    34    1
    40    35    34    1
