@<TRIPOS>MOLECULE
mol_data/opt/cam/geoms/mol2/6fe6fe-4fe6fe.out
 51 54 0 0 0
SMALL
GASTEIGER

@<TRIPOS>ATOM
      1 C          -3.8899   -1.8724    1.2080 C.ar    1  LIG1        0.2129
      2 C          -2.8246   -2.1312    0.3388 C.ar    1  LIG1        0.0010
      3 C          -2.5590   -1.1985   -0.6404 C.ar    1  LIG1       -0.0392
      4 C          -3.3250   -0.0294   -0.7304 C.ar    1  LIG1        0.0510
      5 C          -4.3394    0.1479    0.2268 C.ar    1  LIG1        0.0952
      6 N          -4.6164   -0.7715    1.1539 N.ar    1  LIG1       -0.2116
      7 H          -1.7638   -1.3652   -1.3583 H       1  LIG1        0.0632
      8 H          -2.2381   -3.0404    0.4218 H       1  LIG1        0.0671
      9 O          -4.2547   -2.7392    2.1761 O.3     1  LIG1       -0.4924
     10 H          -3.6804   -3.5137    2.1490 H       1  LIG1        0.2937
     11 C          -3.0986    0.8852   -1.8045 C.1     1  LIG1       -0.0675
     12 C          -2.8971    1.6106   -2.7436 C.1     1  LIG1       -0.1138
     13 H          -2.7249    2.2662   -3.5657 H       1  LIG1        0.1232
     14 C          -4.7397    2.6616    0.2825 C.ar    1  LIG1        0.2224
     15 C          -5.2208    1.3421    0.2429 C.ar    1  LIG1        0.0642
     16 C          -6.5935    1.1955    0.2942 C.ar    1  LIG1       -0.0299
     17 C          -7.4431    2.3098    0.3125 C.ar    1  LIG1        0.0516
     18 C          -6.8447    3.5786    0.2882 C.ar    1  LIG1        0.0937
     19 N          -5.5183    3.7281    0.2870 N.ar    1  LIG1       -0.2111
     20 H          -7.0162    0.1981    0.3251 H       1  LIG1        0.0639
     21 O          -3.4173    2.8757    0.3522 O.3     1  LIG1       -0.4919
     22 H          -3.3028    3.8378    0.3687 H       1  LIG1        0.2937
     23 C          -8.8599    2.1226    0.3700 C.1     1  LIG1       -0.0675
     24 C         -10.0466    1.9264    0.4210 C.1     1  LIG1       -0.1138
     25 H         -11.0981    1.7596    0.4685 H       1  LIG1        0.1232
     26 C          -7.4806    5.8329    1.2163 C.ar    1  LIG1        0.1267
     27 C          -8.2306    7.0023    1.1424 C.ar    1  LIG1       -0.0105
     28 C          -7.6483    4.8289    0.2499 C.ar    1  LIG1        0.0443
     29 C          -9.1546    7.2177    0.1229 C.ar    1  LIG1        0.0061
     30 H          -8.1091    7.7629    1.9091 H       1  LIG1        0.0661
     31 C          -8.5733    5.0412   -0.7604 C.ar    1  LIG1       -0.0330
     32 C          -9.3270    6.2176   -0.8537 C.ar    1  LIG1        0.0334
     33 H          -8.7122    4.2770   -1.5158 H       1  LIG1        0.0638
     34 O          -6.6068    5.6120    2.2238 O.3     1  LIG1       -0.5061
     35 H          -6.6237    6.3588    2.8343 H       1  LIG1        0.2922
     36 C         -10.2312    6.3868   -1.9513 C.1     1  LIG1       -0.0690
     37 C         -10.9998    6.5126   -2.8693 C.1     1  LIG1       -0.1139
     38 H         -11.6842    6.6354   -3.6771 H       1  LIG1        0.1232
     39 C         -11.3141    8.5593    0.1979 C.ar    1  LIG1        0.2203
     40 C          -9.9060    8.4999    0.0954 C.ar    1  LIG1        0.0459
     41 C          -9.2315    9.7082    0.0324 C.ar    1  LIG1       -0.0320
     42 C          -9.9330   10.9178    0.0552 C.ar    1  LIG1        0.0436
     43 C         -11.3231   10.8376    0.1531 C.ar    1  LIG1        0.0468
     44 N         -11.9929    9.6951    0.2262 N.ar    1  LIG1       -0.2197
     45 H          -8.1495    9.7140   -0.0458 H       1  LIG1        0.0638
     46 H         -11.9152   11.7488    0.1747 H       1  LIG1        0.0843
     47 O         -12.0756    7.4583    0.3083 O.3     1  LIG1       -0.4920
     48 H         -11.5317    6.6682    0.1937 H       1  LIG1        0.2937
     49 C          -9.2652   12.1787   -0.0172 C.1     1  LIG1       -0.0681
     50 C          -8.7039   13.2422   -0.0765 C.1     1  LIG1       -0.1139
     51 H          -8.2102   14.1849   -0.1312 H       1  LIG1        0.1232
@<TRIPOS>BOND
     1    38    37    1
     2    13    12    1
     3    37    36    3
     4    12    11    3
     5    36    32    1
     6    11     4    1
     7    33    31    1
     8     7     3    1
     9    32    31   ar
    10    32    29   ar
    11    31    28   ar
    12     4     3   ar
    13     4     5   ar
    14     3     2   ar
    15    51    50    1
    16    50    49    3
    17    45    41    1
    18    49    42    1
    19    41    42   ar
    20    41    40   ar
    21    42    43   ar
    22    40    29    1
    23    40    39   ar
    24    29    27   ar
    25    43    46    1
    26    43    44   ar
    27    48    47    1
    28    39    44   ar
    29    39    47    1
    30     5    15    1
    31     5     6   ar
    32    15    14   ar
    33    15    16   ar
    34    28    18    1
    35    28    26   ar
    36    14    19   ar
    37    14    21    1
    38    19    18   ar
    39    18    17   ar
    40    16    17   ar
    41    16    20    1
    42    17    23    1
    43     2     8    1
    44     2     1   ar
    45    21    22    1
    46    23    24    3
    47    24    25    1
    48    27    26   ar
    49    27    30    1
    50     6     1   ar
    51     1     9    1
    52    26    34    1
    53    10     9    1
    54    34    35    1
