@<TRIPOS>MOLECULE
mol_data/opt/cam/geoms/mol2/6fe6fe-6fe6fe-.out
 50 53 0 0 0
SMALL
GASTEIGER

@<TRIPOS>ATOM
      1 C          -3.3918   -1.6063    1.1044 C.ar    1  LIG1        0.2129
      2 C          -2.5870   -1.9452    0.0111 C.ar    1  LIG1        0.0010
      3 C          -2.6804   -1.1615   -1.1184 C.ar    1  LIG1       -0.0392
      4 C          -3.5394   -0.0553   -1.1431 C.ar    1  LIG1        0.0510
      5 C          -4.2639    0.2183    0.0298 C.ar    1  LIG1        0.0952
      6 N          -4.1974   -0.5603    1.1117 N.ar    1  LIG1       -0.2116
      7 H          -2.1005   -1.3995   -2.0030 H       1  LIG1        0.0632
      8 H          -1.9244   -2.8039    0.0448 H       1  LIG1        0.0671
      9 O          -3.4023   -2.3309    2.2422 O.3     1  LIG1       -0.4924
     10 H          -2.7922   -3.0734    2.1588 H       1  LIG1        0.2937
     11 C          -3.6968    0.6957   -2.3482 C.1     1  LIG1       -0.0675
     12 C          -3.8266    1.2812   -3.3918 C.1     1  LIG1       -0.1138
     13 H          -3.9463    1.8122   -4.3080 H       1  LIG1        0.1232
     14 C          -4.8573    2.6913   -0.1444 C.ar    1  LIG1        0.2224
     15 C          -5.2079    1.3587    0.1357 C.ar    1  LIG1        0.0642
     16 C          -6.4891    1.1640    0.6081 C.ar    1  LIG1       -0.0299
     17 C          -7.3971    2.2277    0.7137 C.ar    1  LIG1        0.0516
     18 C          -6.9661    3.5055    0.3187 C.ar    1  LIG1        0.0953
     19 N          -5.7008    3.7037   -0.0722 N.ar    1  LIG1       -0.2111
     20 H          -6.7932    0.1688    0.9110 H       1  LIG1        0.0639
     21 O          -3.5914    2.9764   -0.4753 O.3     1  LIG1       -0.4919
     22 H          -3.5613    3.9295   -0.6479 H       1  LIG1        0.2937
     23 C          -8.7048    1.9834    1.2348 C.1     1  LIG1       -0.0675
     24 C          -9.8180    1.7690    1.6440 C.1     1  LIG1       -0.1138
     25 H         -10.8000    1.5963    2.0219 H       1  LIG1        0.1232
     26 C          -9.1088    4.8628   -0.1717 C.ar    1  LIG1        0.2224
     27 C          -7.8021    4.7344    0.3501 C.ar    1  LIG1        0.0642
     28 C          -7.2106    5.9032    0.8123 C.ar    1  LIG1       -0.0299
     29 C          -7.8852    7.1223    0.8058 C.ar    1  LIG1        0.0516
     30 C          -9.1978    7.1182    0.3011 C.ar    1  LIG1        0.0953
     31 N          -9.7587    6.0168   -0.1890 N.ar    1  LIG1       -0.2111
     32 H          -6.1869    5.8635    1.1636 H       1  LIG1        0.0639
     33 O          -9.7875    3.8612   -0.7556 O.3     1  LIG1       -0.4919
     34 H          -9.5062    3.0026   -0.4104 H       1  LIG1        0.2937
     35 C          -7.2099    8.3101    1.2250 C.1     1  LIG1       -0.0675
     36 C          -6.5957    9.2917    1.5537 C.1     1  LIG1       -0.1138
     37 H          -6.0661   10.1674    1.8501 H       1  LIG1        0.1232
     38 C         -10.2890    9.1806    1.3135 C.ar    1  LIG1        0.2218
     39 C         -10.0299    8.3446    0.2142 C.ar    1  LIG1        0.0641
     40 C         -10.6520    8.6771   -0.9763 C.ar    1  LIG1       -0.0305
     41 C         -11.4381    9.8321   -1.0711 C.ar    1  LIG1        0.0436
     42 C         -11.5741   10.6053    0.0811 C.ar    1  LIG1        0.0468
     43 N         -11.0240   10.2806    1.2472 N.ar    1  LIG1       -0.2197
     44 H         -10.5216    8.0319   -1.8373 H       1  LIG1        0.0638
     45 H         -12.1620   11.5185    0.0573 H       1  LIG1        0.0843
     46 O          -9.8060    8.8453    2.5195 O.3     1  LIG1       -0.4919
     47 H         -10.0848    9.5481    3.1253 H       1  LIG1        0.2937
     48 C         -12.0738   10.2140   -2.2928 C.1     1  LIG1       -0.0681
     49 C         -12.6106   10.5398   -3.3198 C.1     1  LIG1       -0.1139
     50 H         -13.0862   10.8253   -4.2295 H       1  LIG1        0.1232
@<TRIPOS>BOND
     1    13    12    1
     2    50    49    1
     3    12    11    3
     4    49    48    3
     5    11     4    1
     6    48    41    1
     7     7     3    1
     8    44    40    1
     9     4     3   ar
    10     4     5   ar
    11     3     2   ar
    12    41    40   ar
    13    41    42   ar
    14    40    39   ar
    15    33    34    1
    16    33    26    1
    17    22    21    1
    18    21    14    1
    19    31    26   ar
    20    31    30   ar
    21    26    27   ar
    22    14    19   ar
    23    14    15   ar
    24    19    18   ar
    25     2     8    1
    26     2     1   ar
    27     5    15    1
    28     5     6   ar
    29    45    42    1
    30    42    43   ar
    31    15    16   ar
    32    39    30    1
    33    39    38   ar
    34    30    29   ar
    35    18    27    1
    36    18    17   ar
    37    27    28   ar
    38    16    17   ar
    39    16    20    1
    40    17    23    1
    41    29    28   ar
    42    29    35    1
    43    28    32    1
    44     1     6   ar
    45     1     9    1
    46    35    36    3
    47    23    24    3
    48    43    38   ar
    49    38    46    1
    50    36    37    1
    51    24    25    1
    52    10     9    1
    53    46    47    1
