@<TRIPOS>MOLECULE
mol_data/opt/cam/geoms/mol2/6fe6fe-6fe-6fe-.out
 50 53 0 0 0
SMALL
GASTEIGER

@<TRIPOS>ATOM
      1 C          -4.0099   -1.9189   -1.2219 C.ar    1  LIG1        0.2129
      2 C          -2.9270   -2.1983   -0.3813 C.ar    1  LIG1        0.0010
      3 C          -2.6117   -1.2667    0.5841 C.ar    1  LIG1       -0.0392
      4 C          -3.3463   -0.0789    0.6877 C.ar    1  LIG1        0.0510
      5 C          -4.3826    0.1178   -0.2422 C.ar    1  LIG1        0.0952
      6 N          -4.7078   -0.8004   -1.1548 N.ar    1  LIG1       -0.2116
      7 H          -1.8009   -1.4485    1.2806 H       1  LIG1        0.0632
      8 H          -2.3651   -3.1220   -0.4747 H       1  LIG1        0.0671
      9 O          -4.4227   -2.7825   -2.1734 O.3     1  LIG1       -0.4924
     10 H          -3.8655   -3.5697   -2.1579 H       1  LIG1        0.2937
     11 C          -3.0682    0.8359    1.7494 C.1     1  LIG1       -0.0675
     12 C          -2.8235    1.5615    2.6781 C.1     1  LIG1       -0.1138
     13 H          -2.6127    2.2182    3.4903 H       1  LIG1        0.1232
     14 C          -4.7224    2.6406   -0.2994 C.ar    1  LIG1        0.2224
     15 C          -5.2342    1.3332   -0.2412 C.ar    1  LIG1        0.0642
     16 C          -6.6110    1.2210   -0.2568 C.ar    1  LIG1       -0.0299
     17 C          -7.4340    2.3553   -0.2574 C.ar    1  LIG1        0.0516
     18 C          -6.8043    3.6101   -0.2519 C.ar    1  LIG1        0.0953
     19 N          -5.4749    3.7251   -0.2857 N.ar    1  LIG1       -0.2111
     20 H          -7.0588    0.2342   -0.2739 H       1  LIG1        0.0639
     21 O          -3.3981    2.8229   -0.4072 O.3     1  LIG1       -0.4919
     22 H          -3.2621    3.7821   -0.4368 H       1  LIG1        0.2937
     23 C          -8.8553    2.1985   -0.2806 C.1     1  LIG1       -0.0675
     24 C         -10.0469    2.0279   -0.3017 C.1     1  LIG1       -0.1138
     25 H         -11.1029    1.8867   -0.3250 H       1  LIG1        0.1232
     26 C          -7.3423    5.9322   -1.1040 C.ar    1  LIG1        0.2224
     27 C          -7.5693    4.8799   -0.1965 C.ar    1  LIG1        0.0642
     28 C          -8.5298    5.1109    0.7688 C.ar    1  LIG1       -0.0299
     29 C          -9.2156    6.3321    0.8397 C.ar    1  LIG1        0.0516
     30 C          -8.8975    7.3077   -0.1160 C.ar    1  LIG1        0.0953
     31 N          -7.9819    7.0866   -1.0626 N.ar    1  LIG1       -0.2111
     32 H          -8.7538    4.3417    1.4981 H       1  LIG1        0.0639
     33 O          -6.4579    5.7707   -2.0982 O.3     1  LIG1       -0.4919
     34 H          -6.4771    6.5992   -2.6014 H       1  LIG1        0.2937
     35 C         -10.1735    6.5450    1.8800 C.1     1  LIG1       -0.0675
     36 C         -10.9717    6.6892    2.7697 C.1     1  LIG1       -0.1138
     37 H         -11.6778    6.8300    3.5553 H       1  LIG1        0.1232
     38 C          -8.8398    9.8325   -0.1829 C.ar    1  LIG1        0.2218
     39 C          -9.5711    8.6299   -0.1542 C.ar    1  LIG1        0.0641
     40 C         -10.9493    8.7439   -0.1891 C.ar    1  LIG1       -0.0305
     41 C         -11.5610   10.0024   -0.2672 C.ar    1  LIG1        0.0436
     42 C         -10.7238   11.1151   -0.3038 C.ar    1  LIG1        0.0468
     43 N          -9.3971   11.0317   -0.2574 N.ar    1  LIG1       -0.2197
     44 H         -11.5638    7.8520   -0.1623 H       1  LIG1        0.0638
     45 H         -11.1469   12.1133   -0.3712 H       1  LIG1        0.0843
     46 O          -7.5015    9.7937   -0.1039 O.3     1  LIG1       -0.4919
     47 H          -7.2114   10.7184   -0.1179 H       1  LIG1        0.2937
     48 C         -12.9819   10.1463   -0.3153 C.1     1  LIG1       -0.0681
     49 C         -14.1785   10.2711   -0.3560 C.1     1  LIG1       -0.1139
     50 H         -15.2377   10.3814   -0.3933 H       1  LIG1        0.1232
@<TRIPOS>BOND
     1    34    33    1
     2     9    10    1
     3     9     1    1
     4    33    26    1
     5     1     6   ar
     6     1     2   ar
     7     6     5   ar
     8    26    31   ar
     9    26    27   ar
    10    31    30   ar
    11     8     2    1
    12    22    21    1
    13    21    14    1
    14    50    49    1
    15     2     3   ar
    16    45    42    1
    17    49    48    3
    18    25    24    1
    19    48    41    1
    20    42    41   ar
    21    42    43   ar
    22    24    23    3
    23    14    19   ar
    24    14    15   ar
    25    19    18   ar
    26    23    17    1
    27    20    16    1
    28    41    40   ar
    29    43    38   ar
    30    17    16   ar
    31    17    18   ar
    32    16    15   ar
    33    18    27    1
    34     5    15    1
    35     5     4   ar
    36    27    28   ar
    37    40    44    1
    38    40    39   ar
    39    38    39   ar
    40    38    46    1
    41    39    30    1
    42    47    46    1
    43    30    29   ar
    44     3     4   ar
    45     3     7    1
    46     4    11    1
    47    28    29   ar
    48    28    32    1
    49    29    35    1
    50    11    12    3
    51    35    36    3
    52    12    13    1
    53    36    37    1
