@<TRIPOS>MOLECULE
mol_data/opt/cam/geoms/mol2/6fe6fe-.out
 26 27 0 0 0
SMALL
GASTEIGER

@<TRIPOS>ATOM
      1 C          -4.4004   -1.9976   -0.6376 C.ar    1  LIG1        0.2129
      2 C          -3.0788   -2.0684   -0.1845 C.ar    1  LIG1        0.0010
      3 C          -2.5074   -0.9115    0.2997 C.ar    1  LIG1       -0.0392
      4 C          -3.2331    0.2863    0.3077 C.ar    1  LIG1        0.0510
      5 C          -4.5374    0.2497   -0.2163 C.ar    1  LIG1        0.0952
      6 N          -5.1002   -0.8783   -0.6547 N.ar    1  LIG1       -0.2116
      7 H          -1.4960   -0.9187    0.6904 H       1  LIG1        0.0632
      8 H          -2.5278   -3.0032   -0.1986 H       1  LIG1        0.0671
      9 O          -5.0621   -3.0809   -1.0962 O.3     1  LIG1       -0.4924
     10 H          -4.4863   -3.8534   -1.0512 H       1  LIG1        0.2937
     11 C          -2.6614    1.4572    0.8937 C.1     1  LIG1       -0.0675
     12 C          -2.1546    2.4097    1.4272 C.1     1  LIG1       -0.1138
     13 H          -1.7161    3.2636    1.8897 H       1  LIG1        0.1232
     14 C          -5.0326    2.6537   -0.8809 C.ar    1  LIG1        0.2218
     15 C          -5.4116    1.4491   -0.2648 C.ar    1  LIG1        0.0641
     16 C          -6.6940    1.3950    0.2521 C.ar    1  LIG1       -0.0305
     17 C          -7.5272    2.5197    0.2106 C.ar    1  LIG1        0.0436
     18 C          -7.0126    3.6705   -0.3850 C.ar    1  LIG1        0.0468
     19 N          -5.8005    3.7318   -0.9281 N.ar    1  LIG1       -0.2197
     20 H          -7.0472    0.4699    0.6928 H       1  LIG1        0.0638
     21 H          -7.6134    4.5744   -0.4314 H       1  LIG1        0.0843
     22 O          -3.8424    2.7290   -1.4959 O.3     1  LIG1       -0.4919
     23 H          -3.7755    3.6319   -1.8409 H       1  LIG1        0.2937
     24 C          -8.8477    2.5009    0.7567 C.1     1  LIG1       -0.0681
     25 C          -9.9603    2.4894    1.2161 C.1     1  LIG1       -0.1139
     26 H         -10.9453    2.4772    1.6222 H       1  LIG1        0.1232
@<TRIPOS>BOND
     1    23    22    1
     2    22    14    1
     3     9    10    1
     4     9     1    1
     5    19    14   ar
     6    19    18   ar
     7    14    15   ar
     8     6     1   ar
     9     6     5   ar
    10     1     2   ar
    11    21    18    1
    12    18    17   ar
    13    15     5    1
    14    15    16   ar
    15     5     4   ar
    16     8     2    1
    17     2     3   ar
    18    17    16   ar
    19    17    24    1
    20    16    20    1
    21     3     4   ar
    22     3     7    1
    23     4    11    1
    24    24    25    3
    25    11    12    3
    26    25    26    1
    27    12    13    1
