@<TRIPOS>MOLECULE
mol_data/opt/cam/geoms/mol2/6fe6fe-6fe-6fe.out
 50 53 0 0 0
SMALL
GASTEIGER

@<TRIPOS>ATOM
      1 C          -3.8830   -1.8107   -1.3364 C.ar    1  LIG1        0.2129
      2 C          -2.8313   -2.1117   -0.4641 C.ar    1  LIG1        0.0010
      3 C          -2.5783   -1.2259    0.5608 C.ar    1  LIG1       -0.0392
      4 C          -3.3431   -0.0599    0.6931 C.ar    1  LIG1        0.0510
      5 C          -4.3427    0.1634   -0.2699 C.ar    1  LIG1        0.0952
      6 N          -4.6082   -0.7115   -1.2421 N.ar    1  LIG1       -0.2116
      7 H          -1.7940   -1.4276    1.2817 H       1  LIG1        0.0632
      8 H          -2.2454   -3.0177   -0.5800 H       1  LIG1        0.0671
      9 O          -4.2352   -2.6307   -2.3483 O.3     1  LIG1       -0.4924
     10 H          -3.6617   -3.4063   -2.3503 H       1  LIG1        0.2937
     11 C          -3.1308    0.8045    1.8107 C.1     1  LIG1       -0.0675
     12 C          -2.9416    1.4864    2.7843 C.1     1  LIG1       -0.1138
     13 H          -2.7787    2.1037    3.6375 H       1  LIG1        0.1232
     14 C          -4.7365    2.6787   -0.2187 C.ar    1  LIG1        0.2224
     15 C          -5.2212    1.3597   -0.2450 C.ar    1  LIG1        0.0642
     16 C          -6.5928    1.2194   -0.3257 C.ar    1  LIG1       -0.0299
     17 C          -7.4410    2.3352   -0.3092 C.ar    1  LIG1        0.0516
     18 C          -6.8400    3.6000   -0.2189 C.ar    1  LIG1        0.0953
     19 N          -5.5135    3.7457   -0.1879 N.ar    1  LIG1       -0.2111
     20 H          -7.0166    0.2254   -0.4092 H       1  LIG1        0.0639
     21 O          -3.4136    2.8919   -0.2586 O.3     1  LIG1       -0.4919
     22 H          -3.2951    3.8535   -0.2392 H       1  LIG1        0.2937
     23 C          -8.8563    2.1518   -0.4012 C.1     1  LIG1       -0.0675
     24 C         -10.0423    1.9606   -0.4819 C.1     1  LIG1       -0.1138
     25 H         -11.0926    1.7979   -0.5610 H       1  LIG1        0.1232
     26 C          -7.3954    5.9501   -0.9867 C.ar    1  LIG1        0.2224
     27 C          -7.6365    4.8492   -0.1409 C.ar    1  LIG1        0.0642
     28 C          -8.6418    5.0178    0.7880 C.ar    1  LIG1       -0.0299
     29 C          -9.3640    6.2181    0.8764 C.ar    1  LIG1        0.0516
     30 C          -9.0533    7.2432   -0.0307 C.ar    1  LIG1        0.0953
     31 N          -8.0733    7.0819   -0.9290 N.ar    1  LIG1       -0.2111
     32 H          -8.8745    4.2167    1.4792 H       1  LIG1        0.0639
     33 O          -6.4545    5.8606   -1.9341 O.3     1  LIG1       -0.4919
     34 H          -6.4860    6.6988   -2.4205 H       1  LIG1        0.2937
     35 C         -10.3522    6.3656    1.8979 C.1     1  LIG1       -0.0675
     36 C         -11.2065    6.4753    2.7407 C.1     1  LIG1       -0.1138
     37 H         -11.9547    6.5923    3.4914 H       1  LIG1        0.1232
     38 C         -11.0983    8.8196   -0.0786 C.ar    1  LIG1        0.2218
     39 C          -9.7048    8.5805   -0.0625 C.ar    1  LIG1        0.0641
     40 C          -8.8783    9.6895   -0.2021 C.ar    1  LIG1       -0.0305
     41 C          -9.4105   10.9714   -0.3245 C.ar    1  LIG1        0.0436
     42 C         -10.8044   11.0729   -0.3313 C.ar    1  LIG1        0.0468
     43 N         -11.6157   10.0343   -0.2169 N.ar    1  LIG1       -0.2197
     44 H          -7.8052    9.5424   -0.2271 H       1  LIG1        0.0638
     45 H         -11.2745   12.0476   -0.4367 H       1  LIG1        0.0843
     46 O         -12.0262    7.8501   -0.0228 O.3     1  LIG1       -0.4919
     47 H         -11.6776    7.0581    0.4077 H       1  LIG1        0.2937
     48 C          -8.5810   12.1282   -0.4496 C.1     1  LIG1       -0.0681
     49 C          -7.8866   13.1060   -0.5547 C.1     1  LIG1       -0.1139
     50 H          -7.2732   13.9722   -0.6478 H       1  LIG1        0.1232
@<TRIPOS>BOND
     1    34    33    1
     2    10     9    1
     3     9     1    1
     4    33    26    1
     5     1     6   ar
     6     1     2   ar
     7     6     5   ar
     8    26    31   ar
     9    26    27   ar
    10    31    30   ar
    11    50    49    1
    12     8     2    1
    13    25    24    1
    14    49    48    3
    15    24    23    3
    16     2     3   ar
    17    48    41    1
    18    45    42    1
    19    20    16    1
    20    23    17    1
    21    42    41   ar
    22    42    43   ar
    23    16    17   ar
    24    16    15   ar
    25    41    40   ar
    26    17    18   ar
    27     5    15    1
    28     5     4   ar
    29    21    22    1
    30    21    14    1
    31    15    14   ar
    32    44    40    1
    33    18    19   ar
    34    18    27    1
    35    14    19   ar
    36    43    38   ar
    37    40    39   ar
    38    27    28   ar
    39    38    39   ar
    40    38    46    1
    41    39    30    1
    42    30    29   ar
    43    46    47    1
    44     3     4   ar
    45     3     7    1
    46     4    11    1
    47    28    29   ar
    48    28    32    1
    49    29    35    1
    50    11    12    3
    51    35    36    3
    52    36    37    1
    53    12    13    1
