@<TRIPOS>MOLECULE
mol_data/opt/cam/geoms/mol2/6fe6fe6fe-6fe-.out
 50 53 0 0 0
SMALL
GASTEIGER

@<TRIPOS>ATOM
      1 C          -4.4868   -2.2086   -0.2512 C.ar    1  LIG1        0.2129
      2 C          -3.1030   -2.3018   -0.3996 C.ar    1  LIG1        0.0010
      3 C          -2.4034   -1.1178   -0.4814 C.ar    1  LIG1       -0.0392
      4 C          -3.0497    0.1232   -0.3942 C.ar    1  LIG1        0.0510
      5 C          -4.4482    0.1191   -0.1899 C.ar    1  LIG1        0.0952
      6 N          -5.1111   -1.0510   -0.1456 N.ar    1  LIG1       -0.2116
      7 H          -1.3293   -1.1297   -0.6290 H       1  LIG1        0.0632
      8 H          -2.6029   -3.2615   -0.4685 H       1  LIG1        0.0671
      9 O          -5.2959   -3.2820   -0.2028 O.3     1  LIG1       -0.4924
     10 H          -4.7773   -4.0896   -0.3016 H       1  LIG1        0.2937
     11 C          -2.2428    1.2895   -0.5768 C.1     1  LIG1       -0.0675
     12 C          -1.4902    2.2119   -0.7583 C.1     1  LIG1       -0.1138
     13 H          -0.8508    3.0495   -0.9194 H       1  LIG1        0.1232
     14 C          -6.7037    1.2771   -0.2472 C.ar    1  LIG1        0.2224
     15 C          -5.2930    1.3213   -0.0352 C.ar    1  LIG1        0.0642
     16 C          -4.7802    2.5495    0.3661 C.ar    1  LIG1       -0.0299
     17 C          -5.5817    3.6859    0.4591 C.ar    1  LIG1        0.0516
     18 C          -6.9328    3.5467    0.0906 C.ar    1  LIG1        0.0953
     19 N          -7.4608    2.3670   -0.2168 N.ar    1  LIG1       -0.2111
     20 H          -3.7377    2.6400    0.6341 H       1  LIG1        0.0639
     21 O          -7.3592    0.1531   -0.4937 O.3     1  LIG1       -0.4919
     22 H          -6.7158   -0.5927   -0.3748 H       1  LIG1        0.2937
     23 C          -5.0319    4.9001    0.9747 C.1     1  LIG1       -0.0675
     24 C          -4.5439    5.8943    1.4463 C.1     1  LIG1       -0.1138
     25 H          -4.1265    6.7844    1.8567 H       1  LIG1        0.1232
     26 C          -7.6527    5.9017   -0.5650 C.ar    1  LIG1        0.2224
     27 C          -7.8876    4.6819    0.0920 C.ar    1  LIG1        0.0642
     28 C          -9.1195    4.5511    0.7042 C.ar    1  LIG1       -0.0299
     29 C         -10.0391    5.6081    0.7222 C.ar    1  LIG1        0.0516
     30 C          -9.6712    6.7955    0.0703 C.ar    1  LIG1        0.0953
     31 N          -8.5036    6.9115   -0.5665 N.ar    1  LIG1       -0.2111
     32 H          -9.3689    3.6127    1.1853 H       1  LIG1        0.0639
     33 O          -6.5279    6.0583   -1.2784 O.3     1  LIG1       -0.4919
     34 H          -6.5575    6.9617   -1.6279 H       1  LIG1        0.2937
     35 C         -11.2824    5.4535    1.4119 C.1     1  LIG1       -0.0675
     36 C         -12.3181    5.2892    2.0032 C.1     1  LIG1       -0.1138
     37 H         -13.2368    5.1534    2.5257 H       1  LIG1        0.1232
     38 C         -10.1222    9.2596    0.3967 C.ar    1  LIG1        0.2218
     39 C         -10.5655    7.9793    0.0149 C.ar    1  LIG1        0.0641
     40 C         -11.8690    7.8870   -0.4388 C.ar    1  LIG1       -0.0305
     41 C         -12.6800    9.0272   -0.5208 C.ar    1  LIG1        0.0436
     42 C         -12.1170   10.2380   -0.1247 C.ar    1  LIG1        0.0468
     43 N         -10.8710   10.3499    0.3273 N.ar    1  LIG1       -0.2197
     44 H         -12.2671    6.9254   -0.7401 H       1  LIG1        0.0638
     45 H         -12.7010   11.1527   -0.1744 H       1  LIG1        0.0843
     46 O          -8.8832    9.4106    0.8883 O.3     1  LIG1       -0.4919
     47 H          -8.8011   10.3520    1.1037 H       1  LIG1        0.2937
     48 C         -14.0259    8.9601   -0.9963 C.1     1  LIG1       -0.0681
     49 C         -15.1599    8.9066   -1.3967 C.1     1  LIG1       -0.1139
     50 H         -16.1632    8.8582   -1.7524 H       1  LIG1        0.1232
@<TRIPOS>BOND
     1    50    49    1
     2    34    33    1
     3    49    48    3
     4    33    26    1
     5    48    41    1
     6    13    12    1
     7    12    11    3
     8    44    40    1
     9     7     3    1
    10    11     4    1
    11    31    26   ar
    12    31    30   ar
    13    26    27   ar
    14    41    40   ar
    15    41    42   ar
    16    21    22    1
    17    21    14    1
    18     3     2   ar
    19     3     4   ar
    20     8     2    1
    21    40    39   ar
    22     2     1   ar
    23     4     5   ar
    24    10     9    1
    25     1     9    1
    26     1     6   ar
    27    14    19   ar
    28    14    15   ar
    29    19    18   ar
    30     5     6   ar
    31     5    15    1
    32    45    42    1
    33    42    43   ar
    34    15    16   ar
    35    39    30    1
    36    39    38   ar
    37    30    29   ar
    38    18    27    1
    39    18    17   ar
    40    27    28   ar
    41    43    38   ar
    42    16    17   ar
    43    16    20    1
    44    38    46    1
    45    17    23    1
    46    28    29   ar
    47    28    32    1
    48    29    35    1
    49    46    47    1
    50    23    24    3
    51    35    36    3
    52    24    25    1
    53    36    37    1
