@<TRIPOS>MOLECULE
mol_data/opt/cam/geoms/mol2/6ff.out
 13 13 0 0 0
SMALL
GASTEIGER

@<TRIPOS>ATOM
      1 C          -4.5696   -2.0286    0.0001 C.ar    1  LIG1        0.2124
      2 C          -3.1703   -2.0138    0.0000 C.ar    1  LIG1        0.0033
      3 C          -2.5218   -0.7934   -0.0002 C.ar    1  LIG1       -0.0136
      4 C          -3.2833    0.3718   -0.0003 C.ar    1  LIG1        0.1351
      5 C          -4.6654    0.2439   -0.0002 C.ar    1  LIG1        0.0728
      6 N          -5.2975   -0.9284   -0.0000 N.ar    1  LIG1       -0.2178
      7 H          -1.4397   -0.7255   -0.0002 H       1  LIG1        0.0656
      8 H          -2.6030   -2.9394    0.0001 H       1  LIG1        0.0672
      9 H          -5.2963    1.1332   -0.0003 H       1  LIG1        0.0868
     10 O          -5.2806   -3.1853    0.0002 O.3     1  LIG1       -0.4924
     11 H          -4.6727   -3.9333    0.0003 H       1  LIG1        0.2937
     12 O          -2.6394    1.5727   -0.0004 O.3     1  LIG1       -0.5052
     13 H          -3.2907    2.2842   -0.0005 H       1  LIG1        0.2922
@<TRIPOS>BOND
     1    13    12    1
     2    12     4    1
     3     4     5   ar
     4     4     3   ar
     5     9     5    1
     6     7     3    1
     7     5     6   ar
     8     3     2   ar
     9     6     1   ar
    10     2     1   ar
    11     2     8    1
    12     1    10    1
    13    10    11    1
