@<TRIPOS>MOLECULE
mol_data/opt/cam/geoms/mol2/6ff6ff-.out
 24 25 0 0 0
SMALL
GASTEIGER

@<TRIPOS>ATOM
      1 C          -4.5265   -2.0091   -0.3784 C.ar    1  LIG1        0.2130
      2 C          -3.1894   -2.1419    0.0132 C.ar    1  LIG1        0.0033
      3 C          -2.5197   -0.9993    0.3906 C.ar    1  LIG1       -0.0130
      4 C          -3.1662    0.2397    0.3791 C.ar    1  LIG1        0.1431
      5 C          -4.5040    0.2706   -0.0415 C.ar    1  LIG1        0.1212
      6 N          -5.1471   -0.8533   -0.4022 N.ar    1  LIG1       -0.2092
      7 H          -1.4856   -1.0287    0.7154 H       1  LIG1        0.0656
      8 H          -2.6965   -3.1092    0.0220 H       1  LIG1        0.0672
      9 O          -5.2807   -3.0742   -0.7563 O.3     1  LIG1       -0.4924
     10 H          -4.7430   -3.8732   -0.7142 H       1  LIG1        0.2937
     11 O          -2.4651    1.3004    0.8424 O.3     1  LIG1       -0.5046
     12 H          -2.7357    2.1053    0.3620 H       1  LIG1        0.2922
     13 C          -4.9611    2.7875   -0.3605 C.ar    1  LIG1        0.2220
     14 C          -5.3652    1.4845   -0.0497 C.ar    1  LIG1        0.0688
     15 C          -6.7222    1.3341    0.2328 C.ar    1  LIG1       -0.0043
     16 C          -7.5738    2.4294    0.2324 C.ar    1  LIG1        0.1357
     17 C          -7.0400    3.6786   -0.0619 C.ar    1  LIG1        0.0728
     18 N          -5.7537    3.8405   -0.3586 N.ar    1  LIG1       -0.2172
     19 H          -7.0894    0.3334    0.4372 H       1  LIG1        0.0663
     20 H          -7.6764    4.5581   -0.0633 H       1  LIG1        0.0868
     21 O          -3.6636    3.0305   -0.7296 O.3     1  LIG1       -0.4919
     22 H          -3.6103    3.9847   -0.8919 H       1  LIG1        0.2937
     23 O          -8.9029    2.3520    0.5099 O.3     1  LIG1       -0.5052
     24 H          -9.1452    1.4317    0.6654 H       1  LIG1        0.2922
@<TRIPOS>BOND
     1    22    21    1
     2     9    10    1
     3     9     1    1
     4    21    13    1
     5     6     1   ar
     6     6     5   ar
     7     1     2   ar
     8    13    18   ar
     9    13    14   ar
    10    18    17   ar
    11    20    17    1
    12    17    16   ar
    13    14     5    1
    14    14    15   ar
    15     5     4   ar
    16     2     8    1
    17     2     3   ar
    18    16    15   ar
    19    16    23    1
    20    15    19    1
    21    12    11    1
    22     4     3   ar
    23     4    11    1
    24     3     7    1
    25    23    24    1
