@<TRIPOS>MOLECULE
mol_data/opt/cam/geoms/mol2/6ff6ff-6ff-6ff.out
 46 49 0 0 0
SMALL
GASTEIGER

@<TRIPOS>ATOM
      1 C          -4.3031   -2.0746    0.7888 C.ar    1  LIG1        0.2130
      2 C          -3.1178   -2.3637    0.1022 C.ar    1  LIG1        0.0033
      3 C          -2.5621   -1.3607   -0.6597 C.ar    1  LIG1       -0.0130
      4 C          -3.1711   -0.1045   -0.7358 C.ar    1  LIG1        0.1431
      5 C          -4.3487    0.0911    0.0007 C.ar    1  LIG1        0.1212
      6 N          -4.8841   -0.8998    0.7354 N.ar    1  LIG1       -0.2092
      7 H          -1.6512   -1.5170   -1.2266 H       1  LIG1        0.0656
      8 H          -2.6531   -3.3429    0.1645 H       1  LIG1        0.0672
      9 O          -4.9409   -2.9968    1.5554 O.3     1  LIG1       -0.4924
     10 H          -4.4399   -3.8203    1.5433 H       1  LIG1        0.2937
     11 O          -2.6078    0.7967   -1.5724 O.3     1  LIG1       -0.5046
     12 H          -2.7421    1.6985   -1.2251 H       1  LIG1        0.2922
     13 C          -4.6959    2.6489   -0.1082 C.ar    1  LIG1        0.2226
     14 C          -5.1656    1.3336   -0.0116 C.ar    1  LIG1        0.0689
     15 C          -6.5457    1.2234    0.1311 C.ar    1  LIG1       -0.0036
     16 C          -7.3660    2.3412    0.1405 C.ar    1  LIG1        0.1438
     17 C          -6.7840    3.6086    0.0053 C.ar    1  LIG1        0.1213
     18 N          -5.4579    3.7174   -0.1159 N.ar    1  LIG1       -0.2086
     19 H          -6.9622    0.2289    0.2572 H       1  LIG1        0.0663
     20 O          -3.3497    2.8897   -0.1713 O.3     1  LIG1       -0.4919
     21 H          -3.2559    3.8541   -0.2146 H       1  LIG1        0.2937
     22 O          -8.7209    2.2410    0.2710 O.3     1  LIG1       -0.5046
     23 H          -8.9493    1.3293    0.4884 H       1  LIG1        0.2922
     24 C          -7.1660    6.0360    0.6351 C.ar    1  LIG1        0.2226
     25 C          -7.5803    4.8546   -0.0109 C.ar    1  LIG1        0.0689
     26 C          -8.7897    4.9398   -0.6855 C.ar    1  LIG1       -0.0036
     27 C          -9.5134    6.1227   -0.7116 C.ar    1  LIG1        0.1438
     28 C          -9.0340    7.2413   -0.0305 C.ar    1  LIG1        0.1213
     29 N          -7.8619    7.1550    0.6168 N.ar    1  LIG1       -0.2086
     30 H          -9.1697    4.0658   -1.2039 H       1  LIG1        0.0663
     31 O          -6.0238    6.0521    1.3469 O.3     1  LIG1       -0.4919
     32 H          -5.9800    6.9373    1.7389 H       1  LIG1        0.2937
     33 O         -10.6866    6.2270   -1.4263 O.3     1  LIG1       -0.5046
     34 H         -10.9132    5.3731   -1.8137 H       1  LIG1        0.2922
     35 C         -11.0826    8.7905    0.1806 C.ar    1  LIG1        0.2220
     36 C          -9.6942    8.5716    0.0119 C.ar    1  LIG1        0.0688
     37 C          -8.8706    9.6933   -0.0173 C.ar    1  LIG1       -0.0043
     38 C          -9.4142   10.9614    0.1099 C.ar    1  LIG1        0.1357
     39 C         -10.7877   11.0588    0.2863 C.ar    1  LIG1        0.0728
     40 N         -11.5933   10.0041    0.3181 N.ar    1  LIG1       -0.2172
     41 H          -7.7993    9.5730   -0.1208 H       1  LIG1        0.0663
     42 H         -11.2590   12.0353    0.4063 H       1  LIG1        0.0868
     43 O         -11.9803    7.7898    0.2847 O.3     1  LIG1       -0.4919
     44 H         -11.7084    7.0558   -0.2923 H       1  LIG1        0.2937
     45 O          -8.5822   12.0411    0.0649 O.3     1  LIG1       -0.5052
     46 H          -9.1024   12.8458    0.1744 H       1  LIG1        0.2922
@<TRIPOS>BOND
     1    34    33    1
     2    11    12    1
     3    11     4    1
     4    33    27    1
     5     7     3    1
     6    30    26    1
     7     4     3   ar
     8     4     5   ar
     9    27    26   ar
    10    27    28   ar
    11    26    25   ar
    12     3     2   ar
    13    44    43    1
    14    21    20    1
    15    20    13    1
    16    41    37    1
    17    18    13   ar
    18    18    17   ar
    19    13    14   ar
    20    28    36    1
    21    28    29   ar
    22    37    36   ar
    23    37    38   ar
    24    14     5    1
    25    14    15   ar
    26    25    17    1
    27    25    24   ar
    28     5     6   ar
    29    17    16   ar
    30    36    35   ar
    31    45    38    1
    32    45    46    1
    33     2     8    1
    34     2     1   ar
    35    38    39   ar
    36    15    16   ar
    37    15    19    1
    38    16    22    1
    39    35    43    1
    40    35    40   ar
    41    22    23    1
    42    39    40   ar
    43    39    42    1
    44    29    24   ar
    45    24    31    1
    46     6     1   ar
    47     1     9    1
    48    31    32    1
    49    10     9    1
