@<TRIPOS>MOLECULE
mol_data/opt/cam/geoms/mol2/6ff6ff-6ff.out
 35 37 0 0 0
SMALL
GASTEIGER

@<TRIPOS>ATOM
      1 C          -4.4820   -2.1075    0.2402 C.ar    1  LIG1        0.2130
      2 C          -3.1075   -2.2267    0.0006 C.ar    1  LIG1        0.0033
      3 C          -2.3970   -1.0693   -0.2235 C.ar    1  LIG1       -0.0130
      4 C          -3.0380    0.1734   -0.2096 C.ar    1  LIG1        0.1431
      5 C          -4.4149    0.1895    0.0560 C.ar    1  LIG1        0.1212
      6 N          -5.0980   -0.9498    0.2659 N.ar    1  LIG1       -0.2092
      7 H          -1.3323   -1.0874   -0.4271 H       1  LIG1        0.0656
      8 H          -2.6181   -3.1956   -0.0113 H       1  LIG1        0.0672
      9 O          -5.2773   -3.1865    0.4563 O.3     1  LIG1       -0.4924
     10 H          -4.7412   -3.9872    0.4285 H       1  LIG1        0.2937
     11 O          -2.2835    1.2509   -0.5244 O.3     1  LIG1       -0.5046
     12 H          -2.6130    2.0359   -0.0497 H       1  LIG1        0.2922
     13 C          -4.9200    2.6947    0.4554 C.ar    1  LIG1        0.2226
     14 C          -5.2738    1.4032    0.0466 C.ar    1  LIG1        0.0689
     15 C          -6.5967    1.2776   -0.3648 C.ar    1  LIG1       -0.0036
     16 C          -7.4511    2.3664   -0.3878 C.ar    1  LIG1        0.1438
     17 C          -6.9939    3.6201    0.0294 C.ar    1  LIG1        0.1213
     18 N          -5.7223    3.7344    0.4375 N.ar    1  LIG1       -0.2086
     19 H          -6.9413    0.2929   -0.6650 H       1  LIG1        0.0663
     20 O          -3.6682    2.9302    0.9520 O.3     1  LIG1       -0.4919
     21 H          -3.6421    3.8722    1.1801 H       1  LIG1        0.2937
     22 O          -8.7420    2.2516   -0.8449 O.3     1  LIG1       -0.5046
     23 H          -8.9311    1.3325   -1.0707 H       1  LIG1        0.2922
     24 C          -9.1336    4.9930    0.4416 C.ar    1  LIG1        0.2220
     25 C          -7.7864    4.8755    0.0234 C.ar    1  LIG1        0.0688
     26 C          -7.1226    6.0474   -0.3290 C.ar    1  LIG1       -0.0043
     27 C          -7.7785    7.2661   -0.2679 C.ar    1  LIG1        0.1357
     28 C          -9.0957    7.2668    0.1715 C.ar    1  LIG1        0.0728
     29 N          -9.7490    6.1630    0.5124 N.ar    1  LIG1       -0.2172
     30 H          -6.0847    6.0097   -0.6364 H       1  LIG1        0.0663
     31 H          -9.6487    8.2038    0.2502 H       1  LIG1        0.0868
     32 O          -9.8696    3.9464    0.8648 O.3     1  LIG1       -0.4919
     33 H          -9.6271    3.1550    0.3551 H       1  LIG1        0.2937
     34 O          -7.1040    8.3940   -0.6304 O.3     1  LIG1       -0.5052
     35 H          -7.6854    9.1571   -0.5311 H       1  LIG1        0.2922
@<TRIPOS>BOND
     1    23    22    1
     2    22    16    1
     3    19    15    1
     4    30    26    1
     5    34    35    1
     6    34    27    1
     7    11     4    1
     8    11    12    1
     9     7     3    1
    10    16    15   ar
    11    16    17   ar
    12    15    14   ar
    13    26    27   ar
    14    26    25   ar
    15    27    28   ar
    16     3     4   ar
    17     3     2   ar
    18     4     5   ar
    19     8     2    1
    20     2     1   ar
    21    25    17    1
    22    25    24   ar
    23    17    18   ar
    24    14     5    1
    25    14    13   ar
    26     5     6   ar
    27    28    31    1
    28    28    29   ar
    29     1     6   ar
    30     1     9    1
    31    33    32    1
    32    10     9    1
    33    18    13   ar
    34    24    29   ar
    35    24    32    1
    36    13    20    1
    37    20    21    1
