@<TRIPOS>MOLECULE
mol_data/opt/cam/geoms/mol2/6ff6ff-4ff6ff.out
 47 50 0 0 0
SMALL
GASTEIGER

@<TRIPOS>ATOM
      1 C          -4.2411   -2.0656    0.7634 C.ar    1  LIG1        0.2130
      2 C          -3.0656   -2.3373    0.0538 C.ar    1  LIG1        0.0033
      3 C          -2.5359   -1.3234   -0.7128 C.ar    1  LIG1       -0.0130
      4 C          -3.1613   -0.0746   -0.7709 C.ar    1  LIG1        0.1431
      5 C          -4.3276    0.1034   -0.0118 C.ar    1  LIG1        0.1212
      6 N          -4.8369   -0.8975    0.7274 N.ar    1  LIG1       -0.2092
      7 H          -1.6339   -1.4659   -1.2973 H       1  LIG1        0.0656
      8 H          -2.5883   -3.3112    0.1021 H       1  LIG1        0.0672
      9 O          -4.8536   -2.9996    1.5371 O.3     1  LIG1       -0.4924
     10 H          -4.3438   -3.8173    1.5094 H       1  LIG1        0.2937
     11 O          -2.6244    0.8384   -1.6125 O.3     1  LIG1       -0.5046
     12 H          -2.7635    1.7363   -1.2565 H       1  LIG1        0.2922
     13 C          -4.7046    2.6568   -0.0992 C.ar    1  LIG1        0.2226
     14 C          -5.1584    1.3367   -0.0030 C.ar    1  LIG1        0.0689
     15 C          -6.5353    1.2106    0.1602 C.ar    1  LIG1       -0.0036
     16 C          -7.3668    2.3197    0.1892 C.ar    1  LIG1        0.1437
     17 C          -6.8003    3.5937    0.0523 C.ar    1  LIG1        0.1197
     18 N          -5.4776    3.7181   -0.0883 N.ar    1  LIG1       -0.2087
     19 H          -6.9392    0.2109    0.2865 H       1  LIG1        0.0663
     20 O          -3.3613    2.9131   -0.1836 O.3     1  LIG1       -0.4919
     21 H          -3.2815    3.8784   -0.2291 H       1  LIG1        0.2937
     22 O          -8.7179    2.2069    0.3408 O.3     1  LIG1       -0.5046
     23 H          -8.9352    1.2894    0.5447 H       1  LIG1        0.2922
     24 C          -7.2423    5.9625    0.7949 C.ar    1  LIG1        0.1269
     25 C          -8.0220    7.1114    0.7415 C.ar    1  LIG1       -0.0082
     26 C          -7.6136    4.8326    0.0518 C.ar    1  LIG1        0.0489
     27 C          -9.1854    7.2010   -0.0262 C.ar    1  LIG1        0.0322
     28 H          -7.7328    7.9704    1.3408 H       1  LIG1        0.0661
     29 C          -8.7815    4.9105   -0.7039 C.ar    1  LIG1       -0.0068
     30 C          -9.5493    6.0618   -0.7478 C.ar    1  LIG1        0.1256
     31 H          -9.0951    4.0394   -1.2700 H       1  LIG1        0.0662
     32 O          -6.1380    5.8959    1.5852 O.3     1  LIG1       -0.5061
     33 H          -6.0690    6.7124    2.0934 H       1  LIG1        0.2922
     34 O         -10.6948    6.1224   -1.5149 O.3     1  LIG1       -0.5061
     35 H         -10.8402    5.2734   -1.9490 H       1  LIG1        0.2922
     36 C         -11.3366    8.5871    0.1349 C.ar    1  LIG1        0.2205
     37 C          -9.9366    8.4828   -0.0525 C.ar    1  LIG1        0.0505
     38 C          -9.2261    9.6720   -0.1791 C.ar    1  LIG1       -0.0058
     39 C          -9.8811   10.8927   -0.0879 C.ar    1  LIG1        0.1357
     40 C         -11.2489   10.8748    0.1400 C.ar    1  LIG1        0.0728
     41 N         -11.9534    9.7520    0.2382 N.ar    1  LIG1       -0.2173
     42 H          -8.1555    9.6595   -0.3520 H       1  LIG1        0.0662
     43 H         -11.8033   11.8089    0.2388 H       1  LIG1        0.0868
     44 O         -12.1304    7.5055    0.2762 O.3     1  LIG1       -0.4920
     45 H         -11.8067    6.8042   -0.3152 H       1  LIG1        0.2937
     46 O          -9.1516   12.0373   -0.2190 O.3     1  LIG1       -0.5052
     47 H          -9.7410   12.7976   -0.1482 H       1  LIG1        0.2922
@<TRIPOS>BOND
     1    35    34    1
     2    11    12    1
     3    11     4    1
     4    34    30    1
     5     7     3    1
     6    31    29    1
     7     4     3   ar
     8     4     5   ar
     9    30    29   ar
    10    30    27   ar
    11     3     2   ar
    12    29    26   ar
    13    42    38    1
    14    45    44    1
    15    21    20    1
    16    46    47    1
    17    46    39    1
    18    20    13    1
    19    38    39   ar
    20    38    37   ar
    21    13    18   ar
    22    13    14   ar
    23    18    17   ar
    24    39    40   ar
    25    37    27    1
    26    37    36   ar
    27    27    25   ar
    28     5    14    1
    29     5     6   ar
    30    14    15   ar
    31    26    17    1
    32    26    24   ar
    33    17    16   ar
    34     2     8    1
    35     2     1   ar
    36    36    41   ar
    37    36    44    1
    38    40    41   ar
    39    40    43    1
    40    15    16   ar
    41    15    19    1
    42    16    22    1
    43    22    23    1
    44     6     1   ar
    45    25    24   ar
    46    25    28    1
    47     1     9    1
    48    24    32    1
    49    10     9    1
    50    32    33    1
