@<TRIPOS>MOLECULE
mol_data/opt/cam/geoms/mol2/6ff6ff6ff.out
 35 37 0 0 0
SMALL
GASTEIGER

@<TRIPOS>ATOM
      1 C          -4.4231   -2.1196   -0.5344 C.ar    1  LIG1        0.2130
      2 C          -3.0698   -2.2063   -0.1991 C.ar    1  LIG1        0.0033
      3 C          -2.4564   -1.0682    0.2826 C.ar    1  LIG1       -0.0130
      4 C          -3.1666    0.1251    0.3842 C.ar    1  LIG1        0.1431
      5 C          -4.4982    0.1501   -0.0506 C.ar    1  LIG1        0.1212
      6 N          -5.0927   -0.9876   -0.4606 N.ar    1  LIG1       -0.2092
      7 H          -1.4208   -1.0774    0.6038 H       1  LIG1        0.0656
      8 H          -2.5274   -3.1418   -0.2850 H       1  LIG1        0.0672
      9 O          -5.1494   -3.1776   -0.9554 O.3     1  LIG1       -0.4924
     10 H          -4.6003   -3.9703   -0.9587 H       1  LIG1        0.2937
     11 O          -2.5031    1.1947    0.9077 O.3     1  LIG1       -0.5046
     12 H          -3.1357    1.8053    1.3071 H       1  LIG1        0.2922
     13 C          -6.7646    1.2604    0.0236 C.ar    1  LIG1        0.2226
     14 C          -5.3484    1.3600   -0.0546 C.ar    1  LIG1        0.0689
     15 C          -4.8306    2.6506   -0.1287 C.ar    1  LIG1       -0.0036
     16 C          -5.6512    3.7697   -0.0877 C.ar    1  LIG1        0.1438
     17 C          -7.0358    3.5807    0.0005 C.ar    1  LIG1        0.1213
     18 N          -7.5333    2.3345    0.0739 N.ar    1  LIG1       -0.2086
     19 H          -3.7677    2.8256   -0.2474 H       1  LIG1        0.0663
     20 O          -7.4064    0.0970    0.0541 O.3     1  LIG1       -0.4919
     21 H          -6.7519   -0.6034   -0.1961 H       1  LIG1        0.2937
     22 O          -5.0322    4.9851   -0.1267 O.3     1  LIG1       -0.5046
     23 H          -5.6130    5.6523    0.2612 H       1  LIG1        0.2922
     24 C          -9.2801    4.5123    0.6920 C.ar    1  LIG1        0.2220
     25 C          -8.0204    4.6830    0.0484 C.ar    1  LIG1        0.0688
     26 C          -7.7759    5.9235   -0.5433 C.ar    1  LIG1       -0.0043
     27 C          -8.7015    6.9500   -0.4198 C.ar    1  LIG1        0.1357
     28 C          -9.8543    6.6965    0.3101 C.ar    1  LIG1        0.0728
     29 N         -10.1394    5.5107    0.8348 N.ar    1  LIG1       -0.2172
     30 H          -6.8912    6.0999   -1.1447 H       1  LIG1        0.0663
     31 H         -10.5926    7.4851    0.4614 H       1  LIG1        0.0868
     32 O          -9.6712    3.3407    1.1918 O.3     1  LIG1       -0.4919
     33 H          -9.0564    2.6509    0.8398 H       1  LIG1        0.2937
     34 O          -8.4272    8.1483   -1.0107 O.3     1  LIG1       -0.5052
     35 H          -9.1730    8.7457   -0.8797 H       1  LIG1        0.2922
@<TRIPOS>BOND
     1    30    26    1
     2    34    35    1
     3    34    27    1
     4    10     9    1
     5     9     1    1
     6    26    27   ar
     7    26    25   ar
     8     1     6   ar
     9     1     2   ar
    10     6     5   ar
    11    27    28   ar
    12     8     2    1
    13    19    15    1
    14     2     3   ar
    15    21    20    1
    16    15    16   ar
    17    15    14   ar
    18    22    16    1
    19    22    23    1
    20    16    17   ar
    21    14     5    1
    22    14    13   ar
    23     5     4   ar
    24    17    25    1
    25    17    18   ar
    26    13    20    1
    27    13    18   ar
    28    25    24   ar
    29     3     4   ar
    30     3     7    1
    31    28    31    1
    32    28    29   ar
    33     4    11    1
    34    24    29   ar
    35    24    32    1
    36    33    32    1
    37    11    12    1
