@<TRIPOS>MOLECULE
mol_data/opt/cam/geoms/mol2/6ff6ff6ff6ff-.out
 46 49 0 0 0
SMALL
GASTEIGER

@<TRIPOS>ATOM
      1 C          -4.4108   -2.2148   -0.4750 C.ar    1  LIG1        0.2130
      2 C          -3.0882   -2.3329   -0.0412 C.ar    1  LIG1        0.0033
      3 C          -2.4836   -1.2076    0.4803 C.ar    1  LIG1       -0.0130
      4 C          -3.1696    0.0033    0.5257 C.ar    1  LIG1        0.1431
      5 C          -4.4649    0.0586   -0.0056 C.ar    1  LIG1        0.1212
      6 N          -5.0558   -1.0664   -0.4543 N.ar    1  LIG1       -0.2092
      7 H          -1.4748   -1.2404    0.8763 H       1  LIG1        0.0656
      8 H          -2.5644   -3.2818   -0.0841 H       1  LIG1        0.0672
      9 O          -5.1302   -3.2570   -0.9447 O.3     1  LIG1       -0.4924
     10 H          -4.6014   -4.0624   -0.9065 H       1  LIG1        0.2937
     11 O          -2.5198    1.0585    1.0931 O.3     1  LIG1       -0.5046
     12 H          -3.1644    1.6885    1.4398 H       1  LIG1        0.2922
     13 C          -6.7025    1.2237   -0.1034 C.ar    1  LIG1        0.2226
     14 C          -5.2823    1.2887   -0.0759 C.ar    1  LIG1        0.0689
     15 C          -4.7289    2.5661   -0.1145 C.ar    1  LIG1       -0.0036
     16 C          -5.5223    3.7053   -0.1364 C.ar    1  LIG1        0.1438
     17 C          -6.9140    3.5503   -0.1502 C.ar    1  LIG1        0.1213
     18 N          -7.4461    2.3162   -0.1128 N.ar    1  LIG1       -0.2086
     19 H          -3.6563    2.7151   -0.1561 H       1  LIG1        0.0663
     20 O          -7.3732    0.0761   -0.1191 O.3     1  LIG1       -0.4919
     21 H          -6.7187   -0.6408   -0.3178 H       1  LIG1        0.2937
     22 O          -4.8726    4.9040   -0.1307 O.3     1  LIG1       -0.5046
     23 H          -5.4697    5.5909    0.1930 H       1  LIG1        0.2922
     24 C          -9.1882    4.5337    0.3512 C.ar    1  LIG1        0.2226
     25 C          -7.8721    4.6739   -0.1751 C.ar    1  LIG1        0.0689
     26 C          -7.5663    5.9161   -0.7224 C.ar    1  LIG1       -0.0036
     27 C          -8.4650    6.9797   -0.6847 C.ar    1  LIG1        0.1438
     28 C          -9.6947    6.7643   -0.0459 C.ar    1  LIG1        0.1213
     29 N         -10.0188    5.5531    0.4274 N.ar    1  LIG1       -0.2086
     30 H          -6.6377    6.0876   -1.2552 H       1  LIG1        0.0663
     31 O          -9.6601    3.3677    0.7944 O.3     1  LIG1       -0.4919
     32 H          -9.0258    2.6662    0.5028 H       1  LIG1        0.2937
     33 O          -8.0981    8.1126   -1.3311 O.3     1  LIG1       -0.5046
     34 H          -8.4599    8.8860   -0.8596 H       1  LIG1        0.2922
     35 C         -10.6251    9.1512    0.2447 C.ar    1  LIG1        0.2220
     36 C         -10.7831    7.7709    0.0774 C.ar    1  LIG1        0.0688
     37 C         -12.1024    7.3187    0.0718 C.ar    1  LIG1       -0.0043
     38 C         -13.1587    8.2100    0.1891 C.ar    1  LIG1        0.1357
     39 C         -12.8680    9.5633    0.3175 C.ar    1  LIG1        0.0728
     40 N         -11.6167   10.0130    0.3505 N.ar    1  LIG1       -0.2172
     41 H         -12.2684    6.2494   -0.0128 H       1  LIG1        0.0663
     42 H         -13.6708   10.2890    0.4028 H       1  LIG1        0.0868
     43 O          -9.3684    9.6901    0.3429 O.3     1  LIG1       -0.4919
     44 H          -9.5004   10.6450    0.4460 H       1  LIG1        0.2937
     45 O         -14.4659    7.8358    0.1796 O.3     1  LIG1       -0.5052
     46 H         -14.5240    6.8754    0.1130 H       1  LIG1        0.2922
@<TRIPOS>BOND
     1    33    34    1
     2    33    27    1
     3    30    26    1
     4     9    10    1
     5     9     1    1
     6    26    27   ar
     7    26    25   ar
     8    27    28   ar
     9     1     6   ar
    10     1     2   ar
    11     6     5   ar
    12    21    20    1
    13    25    17    1
    14    25    24   ar
    15    19    15    1
    16    17    16   ar
    17    17    18   ar
    18    16    22    1
    19    16    15   ar
    20    22    23    1
    21    20    13    1
    22    15    14   ar
    23    18    13   ar
    24    13    14   ar
    25     8     2    1
    26    14     5    1
    27    28    36    1
    28    28    29   ar
    29     2     3   ar
    30    41    37    1
    31     5     4   ar
    32    37    36   ar
    33    37    38   ar
    34    36    35   ar
    35    46    45    1
    36    45    38    1
    37    38    39   ar
    38    35    43    1
    39    35    40   ar
    40    39    40   ar
    41    39    42    1
    42    43    44    1
    43    24    29   ar
    44    24    31    1
    45     3     4   ar
    46     3     7    1
    47    32    31    1
    48     4    11    1
    49    11    12    1
