@<TRIPOS>MOLECULE
mol_data/opt/cam/geoms/mol2/6ff6ff-6ff6ff-.out
 46 49 0 0 0
SMALL
GASTEIGER

@<TRIPOS>ATOM
      1 C          -4.0616   -1.9955   -0.8207 C.ar    1  LIG1        0.2130
      2 C          -3.0664   -2.3210    0.1091 C.ar    1  LIG1        0.0033
      3 C          -2.7539   -1.3797    1.0634 C.ar    1  LIG1       -0.0130
      4 C          -3.4150   -0.1477    1.0914 C.ar    1  LIG1        0.1431
      5 C          -4.3861    0.0893    0.1080 C.ar    1  LIG1        0.1212
      6 N          -4.6860   -0.8421   -0.8147 N.ar    1  LIG1       -0.2092
      7 H          -2.0018   -1.5678    1.8213 H       1  LIG1        0.0656
      8 H          -2.5603   -3.2809    0.0822 H       1  LIG1        0.0672
      9 O          -4.4560   -2.8574   -1.7931 O.3     1  LIG1       -0.4924
     10 H          -3.9424   -3.6703   -1.7243 H       1  LIG1        0.2937
     11 O          -3.1079    0.6850    2.1117 O.3     1  LIG1       -0.5046
     12 H          -3.1997    1.6113    1.8215 H       1  LIG1        0.2922
     13 C          -4.8672    2.6202    0.3412 C.ar    1  LIG1        0.2226
     14 C          -5.2344    1.3074    0.0208 C.ar    1  LIG1        0.0689
     15 C          -6.5259    1.1833   -0.4813 C.ar    1  LIG1       -0.0036
     16 C          -7.3629    2.2796   -0.5958 C.ar    1  LIG1        0.1438
     17 C          -6.9194    3.5411   -0.1865 C.ar    1  LIG1        0.1213
     18 N          -5.6602    3.6633    0.2557 N.ar    1  LIG1       -0.2086
     19 H          -6.8478    0.1991   -0.8074 H       1  LIG1        0.0663
     20 O          -3.5910    2.8867    0.7539 O.3     1  LIG1       -0.4919
     21 H          -3.5612    3.8390    0.9348 H       1  LIG1        0.2937
     22 O          -8.6261    2.1630   -1.1244 O.3     1  LIG1       -0.5046
     23 H          -8.7891    1.2508   -1.3937 H       1  LIG1        0.2922
     24 C          -9.0786    4.9220    0.0853 C.ar    1  LIG1        0.2226
     25 C          -7.7094    4.7944   -0.2492 C.ar    1  LIG1        0.0689
     26 C          -7.0419    5.9689   -0.5662 C.ar    1  LIG1       -0.0036
     27 C          -7.6814    7.2037   -0.5588 C.ar    1  LIG1        0.1438
     28 C          -9.0407    7.2225   -0.2120 C.ar    1  LIG1        0.1213
     29 N          -9.6857    6.0903    0.0981 N.ar    1  LIG1       -0.2086
     30 H          -5.9855    5.9420   -0.8028 H       1  LIG1        0.0663
     31 O          -9.8431    3.8856    0.4882 O.3     1  LIG1       -0.4919
     32 H          -9.5804    3.0858    0.0016 H       1  LIG1        0.2937
     33 O          -6.9195    8.2941   -0.8113 O.3     1  LIG1       -0.5046
     34 H          -7.4607    8.9730   -1.2554 H       1  LIG1        0.2922
     35 C          -9.7829    9.6115   -0.8378 C.ar    1  LIG1        0.2220
     36 C          -9.8690    8.4497   -0.0625 C.ar    1  LIG1        0.0688
     37 C         -10.8674    8.4561    0.9106 C.ar    1  LIG1       -0.0043
     38 C         -11.6736    9.5702    1.0937 C.ar    1  LIG1        0.1357
     39 C         -11.4640   10.6762    0.2783 C.ar    1  LIG1        0.0728
     40 N         -10.5351   10.6813   -0.6737 N.ar    1  LIG1       -0.2172
     41 H         -10.9993    7.5575    1.5051 H       1  LIG1        0.0663
     42 H         -12.0715   11.5677    0.4000 H       1  LIG1        0.0868
     43 O          -8.8892    9.6762   -1.8749 O.3     1  LIG1       -0.4919
     44 H          -8.9973   10.5589   -2.2607 H       1  LIG1        0.2937
     45 O         -12.6559    9.6446    2.0316 O.3     1  LIG1       -0.5052
     46 H         -12.7113    8.8059    2.5044 H       1  LIG1        0.2922
@<TRIPOS>BOND
     1    44    43    1
     2    43    35    1
     3     9    10    1
     4     9     1    1
     5    23    22    1
     6    34    33    1
     7    22    16    1
     8    35    40   ar
     9    35    36   ar
    10     1     6   ar
    11     1     2   ar
    12     6     5   ar
    13    33    27    1
    14    19    15    1
    15    30    26    1
    16    40    39   ar
    17    16    15   ar
    18    16    17   ar
    19    26    27   ar
    20    26    25   ar
    21    27    28   ar
    22    15    14   ar
    23    25    17    1
    24    25    24   ar
    25    28    36    1
    26    28    29   ar
    27    17    18   ar
    28    36    37   ar
    29    32    31    1
    30    14     5    1
    31    14    13   ar
    32     8     2    1
    33    24    29   ar
    34    24    31    1
    35     5     4   ar
    36     2     3   ar
    37    18    13   ar
    38    39    42    1
    39    39    38   ar
    40    13    20    1
    41    20    21    1
    42    37    38   ar
    43    37    41    1
    44     3     4   ar
    45     3     7    1
    46     4    11    1
    47    38    45    1
    48    12    11    1
    49    45    46    1
