@<TRIPOS>MOLECULE
mol_data/opt/cam/geoms/mol2/6ff6ff-6ff-6ff-.out
 46 49 0 0 0
SMALL
GASTEIGER

@<TRIPOS>ATOM
      1 C          -4.0862   -1.9715    0.9144 C.ar    1  LIG1        0.2130
      2 C          -3.1412   -2.3859   -0.0314 C.ar    1  LIG1        0.0033
      3 C          -2.8344   -1.5117   -1.0501 C.ar    1  LIG1       -0.0130
      4 C          -3.4531   -0.2604   -1.1242 C.ar    1  LIG1        0.1431
      5 C          -4.3758    0.0682   -0.1196 C.ar    1  LIG1        0.1212
      6 N          -4.6704   -0.7980    0.8657 N.ar    1  LIG1       -0.2092
      7 H          -2.1199   -1.7700   -1.8236 H       1  LIG1        0.0656
      8 H          -2.6680   -3.3609    0.0320 H       1  LIG1        0.0672
      9 O          -4.4713   -2.7628    1.9497 O.3     1  LIG1       -0.4924
     10 H          -3.9853   -3.5944    1.9099 H       1  LIG1        0.2937
     11 O          -3.1599    0.5023   -2.2021 O.3     1  LIG1       -0.5046
     12 H          -3.1985    1.4465   -1.9584 H       1  LIG1        0.2922
     13 C          -4.7653    2.5956   -0.4834 C.ar    1  LIG1        0.2226
     14 C          -5.1744    1.3215   -0.0738 C.ar    1  LIG1        0.0689
     15 C          -6.4564    1.2751    0.4671 C.ar    1  LIG1       -0.0036
     16 C          -7.2512    2.4078    0.5497 C.ar    1  LIG1        0.1438
     17 C          -6.7460    3.6264    0.0753 C.ar    1  LIG1        0.1213
     18 N          -5.5097    3.6751   -0.4287 N.ar    1  LIG1       -0.2086
     19 H          -6.8103    0.3210    0.8452 H       1  LIG1        0.0663
     20 O          -3.4938    2.7865   -0.9556 O.3     1  LIG1       -0.4919
     21 H          -3.4290    3.7329   -1.1575 H       1  LIG1        0.2937
     22 O          -8.5112    2.3672    1.0734 O.3     1  LIG1       -0.5046
     23 H          -8.6574    1.5001    1.4701 H       1  LIG1        0.2922
     24 C          -6.9526    6.1254    0.4340 C.ar    1  LIG1        0.2226
     25 C          -7.5256    4.8828    0.1038 C.ar    1  LIG1        0.0689
     26 C          -8.8773    4.9101   -0.2156 C.ar    1  LIG1       -0.0036
     27 C          -9.5944    6.0993   -0.2106 C.ar    1  LIG1        0.1438
     28 C          -8.9289    7.2817    0.1244 C.ar    1  LIG1        0.1213
     29 N          -7.6282    7.2567    0.4328 N.ar    1  LIG1       -0.2086
     30 H          -9.3811    3.9812   -0.4617 H       1  LIG1        0.0663
     31 O          -5.6581    6.2023    0.8031 O.3     1  LIG1       -0.4919
     32 H          -5.5223    7.1323    1.0398 H       1  LIG1        0.2937
     33 O         -10.9240    6.1451   -0.5294 O.3     1  LIG1       -0.5046
     34 H         -11.2612    5.2442   -0.5954 H       1  LIG1        0.2922
     35 C          -9.4098    9.5291    1.1806 C.ar    1  LIG1        0.2220
     36 C          -9.6104    8.5970    0.1462 C.ar    1  LIG1        0.0688
     37 C         -10.4745    8.9806   -0.8733 C.ar    1  LIG1       -0.0043
     38 C         -11.0771   10.2330   -0.8529 C.ar    1  LIG1        0.1357
     39 C         -10.7926   11.0767    0.2099 C.ar    1  LIG1        0.0728
     40 N          -9.9798   10.7223    1.2037 N.ar    1  LIG1       -0.2172
     41 H         -10.6774    8.2883   -1.6840 H       1  LIG1        0.0663
     42 H         -11.2433   12.0639    0.2539 H       1  LIG1        0.0868
     43 O          -8.6287    9.2143    2.2346 O.3     1  LIG1       -0.4919
     44 H          -8.6723    9.9851    2.8194 H       1  LIG1        0.2937
     45 O         -11.9272   10.6786   -1.8223 O.3     1  LIG1       -0.5052
     46 H         -12.0515    9.9855   -2.4804 H       1  LIG1        0.2922
@<TRIPOS>BOND
     1    46    45    1
     2    11    12    1
     3    11     4    1
     4     7     3    1
     5    45    38    1
     6    41    37    1
     7    21    20    1
     8     4     3   ar
     9     4     5   ar
    10     3     2   ar
    11    20    13    1
    12    37    38   ar
    13    37    36   ar
    14    38    39   ar
    15    34    33    1
    16    33    27    1
    17    13    18   ar
    18    13    14   ar
    19    30    26    1
    20    18    17   ar
    21    26    27   ar
    22    26    25   ar
    23    27    28   ar
    24     5    14    1
    25     5     6   ar
    26    14    15   ar
    27     2     8    1
    28     2     1   ar
    29    17    25    1
    30    17    16   ar
    31    25    24   ar
    32    28    36    1
    33    28    29   ar
    34    36    35   ar
    35    39    42    1
    36    39    40   ar
    37    29    24   ar
    38    24    31    1
    39    15    16   ar
    40    15    19    1
    41    16    22    1
    42    31    32    1
    43     6     1   ar
    44     1     9    1
    45    22    23    1
    46    35    40   ar
    47    35    43    1
    48    10     9    1
    49    43    44    1
