@<TRIPOS>MOLECULE
mol_data/opt/cam/geoms/mol2/6ff6ff6ff-6ff.out
 46 49 0 0 0
SMALL
GASTEIGER

@<TRIPOS>ATOM
      1 C          -4.4790   -2.2477    0.2068 C.ar    1  LIG1        0.2130
      2 C          -3.0851   -2.3296    0.1694 C.ar    1  LIG1        0.0033
      3 C          -2.3753   -1.1482    0.0992 C.ar    1  LIG1       -0.0130
      4 C          -3.0449    0.0708    0.0301 C.ar    1  LIG1        0.1431
      5 C          -4.4459    0.0626   -0.0013 C.ar    1  LIG1        0.1212
      6 N          -5.1171   -1.0987    0.1228 N.ar    1  LIG1       -0.2092
      7 H          -1.2912   -1.1392    0.1088 H       1  LIG1        0.0656
      8 H          -2.5761   -3.2861    0.2214 H       1  LIG1        0.0672
      9 O          -5.2788   -3.3306    0.3328 O.3     1  LIG1       -0.4924
     10 H          -4.7388   -4.1256    0.4109 H       1  LIG1        0.2937
     11 O          -2.2781    1.1946    0.0056 O.3     1  LIG1       -0.5046
     12 H          -2.8100    1.9553    0.2737 H       1  LIG1        0.2922
     13 C          -6.5928    1.3385    0.4131 C.ar    1  LIG1        0.2226
     14 C          -5.2719    1.2837   -0.1167 C.ar    1  LIG1        0.0689
     15 C          -4.8271    2.4335   -0.7585 C.ar    1  LIG1       -0.0036
     16 C          -5.5973    3.5946   -0.8118 C.ar    1  LIG1        0.1438
     17 C          -6.8409    3.5731   -0.1661 C.ar    1  LIG1        0.1213
     18 N          -7.3007    2.4477    0.4006 N.ar    1  LIG1       -0.2086
     19 H          -3.8826    2.4546   -1.2908 H       1  LIG1        0.0663
     20 O          -7.1934    0.2738    0.9491 O.3     1  LIG1       -0.4919
     21 H          -6.6447   -0.5159    0.7230 H       1  LIG1        0.2937
     22 O          -5.1000    4.6202   -1.5425 O.3     1  LIG1       -0.5046
     23 H          -5.3851    5.4676   -1.1542 H       1  LIG1        0.2922
     24 C          -7.5110    6.0694   -0.0834 C.ar    1  LIG1        0.2226
     25 C          -7.8071    4.7014   -0.1227 C.ar    1  LIG1        0.0689
     26 C          -9.1660    4.4093   -0.0566 C.ar    1  LIG1       -0.0036
     27 C         -10.1164    5.4137   -0.0042 C.ar    1  LIG1        0.1438
     28 C          -9.7171    6.7535   -0.0334 C.ar    1  LIG1        0.1213
     29 N          -8.4057    7.0300   -0.0527 N.ar    1  LIG1       -0.2086
     30 H          -9.4532    3.3629   -0.0202 H       1  LIG1        0.0663
     31 O          -6.2076    6.4826   -0.0468 O.3     1  LIG1       -0.4919
     32 H          -6.2349    7.4519   -0.0435 H       1  LIG1        0.2937
     33 O         -11.4560    5.1260    0.0973 O.3     1  LIG1       -0.5046
     34 H         -11.5870    4.1703    0.1299 H       1  LIG1        0.2922
     35 C         -11.8403    8.0441   -0.7040 C.ar    1  LIG1        0.2220
     36 C         -10.6254    7.9263    0.0130 C.ar    1  LIG1        0.0688
     37 C         -10.2029    9.0355    0.7407 C.ar    1  LIG1       -0.0043
     38 C         -10.9613   10.1947    0.7479 C.ar    1  LIG1        0.1357
     39 C         -12.1277   10.2058   -0.0053 C.ar    1  LIG1        0.0728
     40 N         -12.5511    9.1609   -0.7057 N.ar    1  LIG1       -0.2172
     41 H          -9.2701    8.9984    1.2898 H       1  LIG1        0.0663
     42 H         -12.7497   11.1012   -0.0427 H       1  LIG1        0.0868
     43 O         -12.3301    7.0662   -1.4918 O.3     1  LIG1       -0.4919
     44 H         -12.1389    6.2018   -1.0897 H       1  LIG1        0.2937
     45 O         -10.5262   11.2600    1.4790 O.3     1  LIG1       -0.5052
     46 H         -11.1531   11.9868    1.3841 H       1  LIG1        0.2922
@<TRIPOS>BOND
     1    22    23    1
     2    22    16    1
     3    43    44    1
     4    43    35    1
     5    19    15    1
     6    16    15   ar
     7    16    17   ar
     8    15    14   ar
     9    40    35   ar
    10    40    39   ar
    11    35    36   ar
    12    17    25    1
    13    17    18   ar
    14    25    24   ar
    15    25    26   ar
    16    14     5    1
    17    14    13   ar
    18    24    29   ar
    19    24    31    1
    20    26    30    1
    21    26    27   ar
    22    29    28   ar
    23    31    32    1
    24    42    39    1
    25    28    27   ar
    26    28    36    1
    27    39    38   ar
    28    27    33    1
    29     5     4   ar
    30     5     6   ar
    31    11     4    1
    32    11    12    1
    33    36    37   ar
    34     4     3   ar
    35    33    34    1
    36     3     7    1
    37     3     2   ar
    38     6     1   ar
    39     2     1   ar
    40     2     8    1
    41     1     9    1
    42     9    10    1
    43    18    13   ar
    44    13    20    1
    45    21    20    1
    46    37    38   ar
    47    37    41    1
    48    38    45    1
    49    46    45    1
