@<TRIPOS>MOLECULE
mol_data/opt/cam/geoms/mol2/6ff6ff6ff-6ff-.out
 46 49 0 0 0
SMALL
GASTEIGER

@<TRIPOS>ATOM
      1 C          -4.5194   -2.2612    0.2028 C.ar    1  LIG1        0.2130
      2 C          -3.1298   -2.3612    0.1060 C.ar    1  LIG1        0.0033
      3 C          -2.4097   -1.1897   -0.0124 C.ar    1  LIG1       -0.0130
      4 C          -3.0672    0.0362   -0.0701 C.ar    1  LIG1        0.1431
      5 C          -4.4686    0.0453   -0.0398 C.ar    1  LIG1        0.1212
      6 N          -5.1473   -1.1057    0.1301 N.ar    1  LIG1       -0.2092
      7 H          -1.3261   -1.1941   -0.0499 H       1  LIG1        0.0656
      8 H          -2.6303   -3.3232    0.1498 H       1  LIG1        0.0672
      9 O          -5.3257   -3.3329    0.3789 O.3     1  LIG1       -0.4924
     10 H          -4.7911   -4.1324    0.4469 H       1  LIG1        0.2937
     11 O          -2.2895    1.1504   -0.1439 O.3     1  LIG1       -0.5046
     12 H          -2.8042    1.9219    0.1271 H       1  LIG1        0.2922
     13 C          -6.5742    1.3587    0.4582 C.ar    1  LIG1        0.2226
     14 C          -5.2827    1.2758   -0.1346 C.ar    1  LIG1        0.0689
     15 C          -4.8537    2.4097   -0.8160 C.ar    1  LIG1       -0.0036
     16 C          -5.6087    3.5806   -0.8490 C.ar    1  LIG1        0.1438
     17 C          -6.8191    3.5884   -0.1405 C.ar    1  LIG1        0.1213
     18 N          -7.2659    2.4784    0.4648 N.ar    1  LIG1       -0.2086
     19 H          -3.9369    2.4082   -1.3952 H       1  LIG1        0.0663
     20 O          -7.1633    0.3102    1.0391 O.3     1  LIG1       -0.4919
     21 H          -6.6388   -0.4904    0.7970 H       1  LIG1        0.2937
     22 O          -5.1365    4.5878   -1.6211 O.3     1  LIG1       -0.5046
     23 H          -5.3813    5.4456   -1.2254 H       1  LIG1        0.2922
     24 C          -7.4338    6.0951   -0.0638 C.ar    1  LIG1        0.2226
     25 C          -7.7618    4.7347   -0.0675 C.ar    1  LIG1        0.0689
     26 C          -9.1235    4.4692    0.0555 C.ar    1  LIG1       -0.0036
     27 C         -10.0564    5.4905    0.1398 C.ar    1  LIG1        0.1438
     28 C          -9.6117    6.8193    0.1006 C.ar    1  LIG1        0.1213
     29 N          -8.3046    7.0753   -0.0005 N.ar    1  LIG1       -0.2086
     30 H          -9.4298    3.4288    0.1044 H       1  LIG1        0.0663
     31 O          -6.1204    6.4835   -0.0975 O.3     1  LIG1       -0.4919
     32 H          -6.1347    7.4530   -0.0722 H       1  LIG1        0.2937
     33 O         -11.3928    5.2402    0.2541 O.3     1  LIG1       -0.5046
     34 H         -11.5238    4.2932    0.3840 H       1  LIG1        0.2922
     35 C         -10.2588    9.1165    0.9359 C.ar    1  LIG1        0.2220
     36 C         -10.5358    7.9738    0.1636 C.ar    1  LIG1        0.0688
     37 C         -11.7252    7.9876   -0.5580 C.ar    1  LIG1       -0.0043
     38 C         -12.5650    9.0936   -0.5112 C.ar    1  LIG1        0.1357
     39 C         -12.1825   10.1707    0.2743 C.ar    1  LIG1        0.0728
     40 N         -11.0551   10.1716    0.9826 N.ar    1  LIG1       -0.2172
     41 H         -11.9934    7.1214   -1.1540 H       1  LIG1        0.0663
     42 H         -12.8147   11.0521    0.3302 H       1  LIG1        0.0868
     43 O          -9.1509    9.1648    1.7046 O.3     1  LIG1       -0.4919
     44 H          -9.2017   10.0154    2.1654 H       1  LIG1        0.2937
     45 O         -13.7399    9.1808   -1.1977 O.3     1  LIG1       -0.5052
     46 H         -13.8957    8.3560   -1.6714 H       1  LIG1        0.2922
@<TRIPOS>BOND
     1    46    45    1
     2    22    23    1
     3    22    16    1
     4    19    15    1
     5    45    38    1
     6    41    37    1
     7    16    15   ar
     8    16    17   ar
     9    15    14   ar
    10    37    38   ar
    11    37    36   ar
    12    38    39   ar
    13    11     4    1
    14    11    12    1
    15    17    25    1
    16    17    18   ar
    17    14     5    1
    18    14    13   ar
    19    31    32    1
    20    31    24    1
    21     4     5   ar
    22     4     3   ar
    23    25    24   ar
    24    25    26   ar
    25    24    29   ar
    26     7     3    1
    27     5     6   ar
    28     3     2   ar
    29    29    28   ar
    30    26    30    1
    31    26    27   ar
    32    28    27   ar
    33    28    36    1
    34     2     8    1
    35     2     1   ar
    36     6     1   ar
    37    27    33    1
    38    36    35   ar
    39     1     9    1
    40    33    34    1
    41    39    42    1
    42    39    40   ar
    43     9    10    1
    44    13    18   ar
    45    13    20    1
    46    21    20    1
    47    35    40   ar
    48    35    43    1
    49    43    44    1
