@<TRIPOS>MOLECULE
mol_data/opt/cam/geoms/mol2/6ff6ff6ff6ff.out
 46 49 0 0 0
SMALL
GASTEIGER

@<TRIPOS>ATOM
      1 C          -4.3547   -2.1658   -0.7363 C.ar    1  LIG1        0.2130
      2 C          -3.0618   -2.3254   -0.2308 C.ar    1  LIG1        0.0033
      3 C          -2.4975   -1.2546    0.4307 C.ar    1  LIG1       -0.0130
      4 C          -3.1904   -0.0518    0.5442 C.ar    1  LIG1        0.1431
      5 C          -4.4485    0.0546   -0.0620 C.ar    1  LIG1        0.1212
      6 N          -5.0044   -1.0231   -0.6503 N.ar    1  LIG1       -0.2092
      7 H          -1.5162   -1.3254    0.8862 H       1  LIG1        0.0656
      8 H          -2.5321   -3.2670   -0.3276 H       1  LIG1        0.0672
      9 O          -5.0380   -3.1577   -1.3455 O.3     1  LIG1       -0.4924
     10 H          -4.5108   -3.9652   -1.3490 H       1  LIG1        0.2937
     11 O          -2.5821    0.9461    1.2465 O.3     1  LIG1       -0.5046
     12 H          -3.2507    1.5259    1.6328 H       1  LIG1        0.2922
     13 C          -6.6807    1.2246   -0.2158 C.ar    1  LIG1        0.2226
     14 C          -5.2664    1.2866   -0.0738 C.ar    1  LIG1        0.0689
     15 C          -4.7233    2.5617    0.0547 C.ar    1  LIG1       -0.0036
     16 C          -5.5209    3.6984    0.0796 C.ar    1  LIG1        0.1438
     17 C          -6.9049    3.5479   -0.0632 C.ar    1  LIG1        0.1213
     18 N          -7.4282    2.3142   -0.1805 N.ar    1  LIG1       -0.2086
     19 H          -3.6524    2.7149    0.1151 H       1  LIG1        0.0663
     20 O          -7.3405    0.0862   -0.3891 O.3     1  LIG1       -0.4919
     21 H          -6.6675   -0.6117   -0.5998 H       1  LIG1        0.2937
     22 O          -4.8790    4.8928    0.2480 O.3     1  LIG1       -0.5046
     23 H          -5.4672    5.5141    0.6954 H       1  LIG1        0.2922
     24 C          -9.2360    4.4468    0.2807 C.ar    1  LIG1        0.2226
     25 C          -7.8741    4.6625   -0.0719 C.ar    1  LIG1        0.0689
     26 C          -7.5314    5.9697   -0.4099 C.ar    1  LIG1       -0.0036
     27 C          -8.4568    7.0030   -0.3613 C.ar    1  LIG1        0.1438
     28 C          -9.7735    6.7050    0.0108 C.ar    1  LIG1        0.1213
     29 N         -10.1031    5.4437    0.3362 N.ar    1  LIG1       -0.2086
     30 H          -6.5353    6.2211   -0.7539 H       1  LIG1        0.0663
     31 O          -9.7234    3.2486    0.5771 O.3     1  LIG1       -0.4919
     32 H          -9.0401    2.5809    0.3027 H       1  LIG1        0.2937
     33 O          -7.9998    8.2503   -0.6755 O.3     1  LIG1       -0.5046
     34 H          -8.5748    8.9124   -0.2706 H       1  LIG1        0.2922
     35 C         -11.9560    7.5198    0.9880 C.ar    1  LIG1        0.2220
     36 C         -10.8554    7.7088    0.1025 C.ar    1  LIG1        0.0688
     37 C         -10.8626    8.8673   -0.6764 C.ar    1  LIG1       -0.0043
     38 C         -11.8649    9.8128   -0.5114 C.ar    1  LIG1        0.1357
     39 C         -12.8358    9.5648    0.4488 C.ar    1  LIG1        0.0728
     40 N         -12.8866    8.4468    1.1630 N.ar    1  LIG1       -0.2172
     41 H         -10.1227    9.0336   -1.4511 H       1  LIG1        0.0663
     42 H         -13.6223   10.2973    0.6356 H       1  LIG1        0.0868
     43 O         -12.1164    6.4027    1.6957 O.3     1  LIG1       -0.4919
     44 H         -11.4957    5.7278    1.3243 H       1  LIG1        0.2937
     45 O         -11.8379   10.9327   -1.2896 O.3     1  LIG1       -0.5052
     46 H         -12.6151   11.4710   -1.0992 H       1  LIG1        0.2922
@<TRIPOS>BOND
     1    41    37    1
     2    10     9    1
     3     9     1    1
     4    45    46    1
     5    45    38    1
     6    30    26    1
     7     1     6   ar
     8     1     2   ar
     9    37    38   ar
    10    37    36   ar
    11    33    27    1
    12    33    34    1
    13     6     5   ar
    14    21    20    1
    15    38    39   ar
    16    26    27   ar
    17    26    25   ar
    18    20    13    1
    19    27    28   ar
    20     8     2    1
    21     2     3   ar
    22    13    18   ar
    23    13    14   ar
    24    18    17   ar
    25    14     5    1
    26    14    15   ar
    27    25    17    1
    28    25    24   ar
    29    17    16   ar
    30     5     4   ar
    31    28    36    1
    32    28    29   ar
    33    15    16   ar
    34    15    19    1
    35    16    22    1
    36    36    35   ar
    37    22    23    1
    38    24    29   ar
    39    24    31    1
    40    32    31    1
    41     3     4   ar
    42     3     7    1
    43    39    42    1
    44    39    40   ar
    45     4    11    1
    46    35    40   ar
    47    35    43    1
    48    11    12    1
    49    44    43    1
