@<TRIPOS>MOLECULE
mol_data/opt/cam/geoms/mol2/6ff6ff.out
 24 25 0 0 0
SMALL
GASTEIGER

@<TRIPOS>ATOM
      1 C          -4.4889   -2.0755   -0.2820 C.ar    1  LIG1        0.2130
      2 C          -3.1005   -2.0990   -0.1322 C.ar    1  LIG1        0.0033
      3 C          -2.4658   -0.9048    0.1435 C.ar    1  LIG1       -0.0130
      4 C          -3.1977    0.2765    0.2261 C.ar    1  LIG1        0.1431
      5 C          -4.5780    0.2264   -0.0114 C.ar    1  LIG1        0.1212
      6 N          -5.1830   -0.9575   -0.2238 N.ar    1  LIG1       -0.2092
      7 H          -1.3959   -0.8599    0.3137 H       1  LIG1        0.0656
      8 H          -2.5425   -3.0267   -0.2014 H       1  LIG1        0.0672
      9 O          -5.2265   -3.1885   -0.4954 O.3     1  LIG1       -0.4924
     10 H          -4.6516   -3.9625   -0.4993 H       1  LIG1        0.2937
     11 O          -2.5095    1.4080    0.5433 O.3     1  LIG1       -0.5046
     12 H          -3.1220    2.0716    0.8867 H       1  LIG1        0.2922
     13 C          -6.8301    1.3155    0.3637 C.ar    1  LIG1        0.2220
     14 C          -5.4563    1.4180    0.0033 C.ar    1  LIG1        0.0688
     15 C          -4.9882    2.6843   -0.3497 C.ar    1  LIG1       -0.0043
     16 C          -5.8271    3.7871   -0.2653 C.ar    1  LIG1        0.1357
     17 C          -7.1234    3.5797    0.1841 C.ar    1  LIG1        0.0728
     18 N          -7.6113    2.3792    0.4740 N.ar    1  LIG1       -0.2172
     19 H          -3.9837    2.8299   -0.7310 H       1  LIG1        0.0663
     20 H          -7.8065    4.4225    0.2976 H       1  LIG1        0.0868
     21 O          -7.4156    0.1435    0.6150 O.3     1  LIG1       -0.4919
     22 H          -6.8058   -0.5643    0.2981 H       1  LIG1        0.2937
     23 O          -5.3332    5.0083   -0.6173 O.3     1  LIG1       -0.5052
     24 H          -6.0334    5.6678   -0.5458 H       1  LIG1        0.2922
@<TRIPOS>BOND
     1    19    15    1
     2    23    24    1
     3    23    16    1
     4    10     9    1
     5     9     1    1
     6    15    16   ar
     7    15    14   ar
     8     1     6   ar
     9     1     2   ar
    10    16    17   ar
    11     6     5   ar
    12     8     2    1
    13     2     3   ar
    14     5    14    1
    15     5     4   ar
    16    14    13   ar
    17     3     4   ar
    18     3     7    1
    19    17    20    1
    20    17    18   ar
    21     4    11    1
    22    22    21    1
    23    13    18   ar
    24    13    21    1
    25    11    12    1
