@<TRIPOS>MOLECULE
mol_data/opt/cam/geoms/mol2/6fh13ah6de-13dh.out
 47 50 0 0 0
SMALL
GASTEIGER

@<TRIPOS>ATOM
      1 C          -4.3672   -1.9844    0.6806 C.ar    1  LIG1        0.2129
      2 C          -3.0022   -2.1093    0.4050 C.ar    1  LIG1        0.0016
      3 C          -2.3429   -1.0099   -0.1092 C.ar    1  LIG1       -0.0339
      4 C          -3.0200    0.1924   -0.3215 C.ar    1  LIG1        0.0526
      5 C          -4.3778    0.2220    0.0354 C.ar    1  LIG1        0.1115
      6 N          -5.0216   -0.8586    0.5009 N.ar    1  LIG1       -0.2097
      7 H          -1.2878   -1.0791   -0.3589 H       1  LIG1        0.0638
      8 H          -2.4765   -3.0434    0.5744 H       1  LIG1        0.0671
      9 O          -5.1112   -3.0114    1.1604 O.3     1  LIG1       -0.4924
     10 H          -4.5574   -3.7962    1.2410 H       1  LIG1        0.2937
     11 N          -2.3636    1.3144   -0.8386 N.pl3   1  LIG1       -0.3563
     12 H          -1.4839    1.0907   -1.2837 H       1  LIG1        0.1424
     13 H          -2.9446    1.8712   -1.4526 H       1  LIG1        0.1424
     14 C          -5.2150    1.4157   -0.0936 C.ar    1  LIG1        0.0691
     15 C          -4.9371    2.7714   -0.2192 C.ar    1  LIG1       -0.0135
     16 C          -6.1707    3.4538   -0.2347 C.ar    1  LIG1        0.0509
     17 C          -7.1860    2.4997   -0.1222 C.ar    1  LIG1        0.0707
     18 N          -6.5612    1.2709   -0.0529 N.ar    1  LIG1       -0.3514
     19 H          -6.9834    0.3611    0.0754 H       1  LIG1        0.1660
     20 H          -3.9592    3.2276   -0.2204 H       1  LIG1        0.0658
     21 N          -6.3313    4.8429   -0.3138 N.pl3   1  LIG1       -0.3563
     22 H          -5.4743    5.3129   -0.5730 H       1  LIG1        0.1424
     23 H          -7.0792    5.1333   -0.9316 H       1  LIG1        0.1424
     24 C          -9.5989    1.7446   -0.3982 C.ar    1  LIG1        0.1500
     25 C          -8.6206    2.7020   -0.0581 C.ar    1  LIG1        0.0371
     26 C          -9.1370    3.9213    0.4039 C.ar    1  LIG1       -0.0323
     27 C         -10.5027    4.1699    0.4639 C.ar    1  LIG1        0.0528
     28 C         -11.3846    3.1601    0.0095 C.ar    1  LIG1        0.1052
     29 N         -10.9103    1.9739   -0.3667 N.ar    1  LIG1       -0.2329
     30 H          -8.4542    4.6793    0.7683 H       1  LIG1        0.0638
     31 N          -8.9652   -0.6529   -1.1758 N.1     1  LIG1       -0.1893
     32 C          -9.2460    0.4157   -0.8334 C.1     1  LIG1        0.1198
     33 C         -10.9519    5.3883    1.0539 C.1     1  LIG1       -0.0674
     34 C         -11.2838    6.4174    1.5807 C.1     1  LIG1       -0.1138
     35 H         -11.6207    7.3320    2.0126 H       1  LIG1        0.1232
     36 C         -12.8454    3.2581   -0.0385 C.ar    1  LIG1        0.0856
     37 C         -13.7793    4.2857   -0.2138 C.ar    1  LIG1        0.0991
     38 C         -15.0793    3.6907   -0.2384 C.ar    1  LIG1        0.0604
     39 C         -14.8994    2.3352   -0.0877 C.ar    1  LIG1        0.0243
     40 N         -13.5535    2.1051    0.0251 N.ar    1  LIG1       -0.3568
     41 H         -13.0889    1.2102    0.0663 H       1  LIG1        0.1655
     42 H         -15.6189    1.5340   -0.0366 H       1  LIG1        0.0826
     43 N         -13.5787    6.7877   -0.7718 N.1     1  LIG1       -0.1907
     44 C         -13.5984    5.6620   -0.4954 C.1     1  LIG1        0.1032
     45 N         -16.2743    4.3938   -0.3449 N.pl3   1  LIG1       -0.3558
     46 H         -16.1556    5.3344   -0.6979 H       1  LIG1        0.1424
     47 H         -17.0031    3.9047   -0.8443 H       1  LIG1        0.1424
@<TRIPOS>BOND
     1    13    11    1
     2    12    11    1
     3    31    32    3
     4    23    21    1
     5    47    45    1
     6    11     4    1
     7    32    24    1
     8    43    44    3
     9    46    45    1
    10    22    21    1
    11    44    37    1
    12    24    29   ar
    13    24    25   ar
    14    29    28   ar
    15     7     3    1
    16    45    38    1
    17     4     3   ar
    18     4     5   ar
    19    21    16    1
    20    38    37   ar
    21    38    39   ar
    22    16    15   ar
    23    16    17   ar
    24    20    15    1
    25    15    14   ar
    26    37    36   ar
    27    17    25    1
    28    17    18   ar
    29     3     2   ar
    30    14    18   ar
    31    14     5    1
    32    39    42    1
    33    39    40   ar
    34    25    26   ar
    35    18    19    1
    36    36    28    1
    37    36    40   ar
    38    28    27   ar
    39    40    41    1
    40     5     6   ar
    41    26    27   ar
    42    26    30    1
    43     2     8    1
    44     2     1   ar
    45    27    33    1
    46     6     1   ar
    47     1     9    1
    48    33    34    3
    49     9    10    1
    50    34    35    1
