@<TRIPOS>MOLECULE
mol_data/opt/cam/geoms/mol2/6fh13dl-6fe12ae.out
 48 51 0 0 0
SMALL
GASTEIGER

@<TRIPOS>ATOM
      1 C          -4.7443   -1.9886   -0.8837 C.ar    1  LIG1        0.2129
      2 C          -3.4116   -2.3257   -0.6185 C.ar    1  LIG1        0.0016
      3 C          -2.5752   -1.3286   -0.1745 C.ar    1  LIG1       -0.0339
      4 C          -3.0296   -0.0108    0.0081 C.ar    1  LIG1        0.0526
      5 C          -4.3759    0.2242   -0.3220 C.ar    1  LIG1        0.1128
      6 N          -5.1892   -0.7651   -0.7416 N.ar    1  LIG1       -0.2096
      7 H          -1.5391   -1.5589    0.0564 H       1  LIG1        0.0638
      8 H          -3.0469   -3.3388   -0.7540 H       1  LIG1        0.0671
      9 O          -5.6620   -2.8937   -1.3027 O.3     1  LIG1       -0.4924
     10 H          -5.2503   -3.7628   -1.3698 H       1  LIG1        0.2937
     11 N          -2.1819    0.9219    0.5810 N.pl3   1  LIG1       -0.3563
     12 H          -1.2211    0.6207    0.6488 H       1  LIG1        0.1424
     13 H          -2.2450    1.8833    0.2817 H       1  LIG1        0.1424
     14 C          -5.1012    1.5001   -0.1912 C.ar    1  LIG1        0.0886
     15 C          -4.7917    2.8611   -0.1772 C.ar    1  LIG1        0.1207
     16 C          -6.0280    3.5773   -0.0940 C.ar    1  LIG1        0.1634
     17 C          -7.0527    2.6595   -0.0605 C.ar    1  LIG1        0.0957
     18 N          -6.4570    1.4143   -0.1116 N.ar    1  LIG1       -0.3488
     19 H          -6.8979    0.5245   -0.3231 H       1  LIG1        0.1661
     20 N          -2.5043    3.9991   -0.4922 N.1     1  LIG1       -0.1907
     21 C          -3.5340    3.4843   -0.3513 C.1     1  LIG1        0.1050
     22 O          -6.1885    4.9227   -0.1072 O.3     1  LIG1       -0.4917
     23 C          -5.6627    5.6168    1.0229 C.3     1  LIG1        0.0789
     24 H          -5.9057    6.6686    0.8753 H       1  LIG1        0.0660
     25 H          -6.1276    5.2589    1.9473 H       1  LIG1        0.0660
     26 H          -4.5768    5.5044    1.0907 H       1  LIG1        0.0660
     27 C          -9.3513    1.9855    0.7246 C.ar    1  LIG1        0.2225
     28 C          -8.4982    2.8592    0.0150 C.ar    1  LIG1        0.0645
     29 C          -9.1098    3.9424   -0.5968 C.ar    1  LIG1       -0.0298
     30 C         -10.4949    4.1218   -0.5406 C.ar    1  LIG1        0.0545
     31 C         -11.2467    3.1466    0.1470 C.ar    1  LIG1        0.1251
     32 N         -10.6565    2.1192    0.7654 N.ar    1  LIG1       -0.2081
     33 H          -8.5033    4.6630   -1.1314 H       1  LIG1        0.0639
     34 O          -8.8719    0.9253    1.4141 O.3     1  LIG1       -0.4919
     35 H          -7.9188    1.0235    1.5409 H       1  LIG1        0.2937
     36 C         -11.0518    5.2661   -1.1901 C.1     1  LIG1       -0.0674
     37 C         -11.4525    6.2514   -1.7550 C.1     1  LIG1       -0.1138
     38 H         -11.8173    7.1212   -2.2515 H       1  LIG1        0.1232
     39 C         -12.7049    3.1800    0.2493 C.ar    1  LIG1        0.1554
     40 C         -13.6869    3.9821   -0.2531 C.ar    1  LIG1        0.0011
     41 C         -14.9298    3.4567    0.2252 C.ar    1  LIG1        0.0630
     42 C         -14.5979    2.3715    0.9840 C.ar    1  LIG1        0.1080
     43 O         -13.2699    2.1940    1.0066 O.2     1  LIG1       -0.4601
     44 H         -15.1905    1.6651    1.5431 H       1  LIG1        0.1042
     45 H         -13.5573    4.8409   -0.8878 H       1  LIG1        0.0668
     46 C         -16.2377    3.9531   -0.0310 C.1     1  LIG1       -0.0665
     47 C         -17.3420    4.3776   -0.2513 C.1     1  LIG1       -0.1138
     48 H         -18.3206    4.7516   -0.4452 H       1  LIG1        0.1232
@<TRIPOS>BOND
     1    38    37    1
     2    37    36    3
     3    10     9    1
     4     9     1    1
     5    36    30    1
     6    33    29    1
     7    45    40    1
     8     1     6   ar
     9     1     2   ar
    10     8     2    1
    11     6     5   ar
    12     2     3   ar
    13    29    30   ar
    14    29    28   ar
    15    30    31   ar
    16    20    21    3
    17    48    47    1
    18    21    15    1
    19    19    18    1
    20     5    14    1
    21     5     4   ar
    22    40    41   ar
    23    40    39   ar
    24    47    46    3
    25    14    15   ar
    26    14    18   ar
    27    15    16   ar
    28     3     4   ar
    29     3     7    1
    30    18    17   ar
    31    22    16    1
    32    22    23    1
    33    16    17   ar
    34    17    28    1
    35    46    41    1
    36     4    11    1
    37    28    27   ar
    38    31    39    1
    39    31    32   ar
    40    41    42   ar
    41    39    43   ar
    42    13    11    1
    43    11    12    1
    44    27    32   ar
    45    27    34    1
    46    24    23    1
    47    42    43   ar
    48    42    44    1
    49    23    26    1
    50    23    25    1
    51    34    35    1
