@<TRIPOS>MOLECULE
mol_data/opt/cam/geoms/mol2/6fh4ei4id-12le.out
 56 59 0 0 0
SMALL
GASTEIGER

@<TRIPOS>ATOM
      1 C          -3.3925   -1.5500    1.5755 C.ar    1  LIG1        0.2129
      2 C          -2.7911   -2.2670    0.5385 C.ar    1  LIG1        0.0016
      3 C          -2.9575   -1.8039   -0.7507 C.ar    1  LIG1       -0.0339
      4 C          -3.7027   -0.6470   -0.9995 C.ar    1  LIG1        0.0512
      5 C          -4.2382    0.0099    0.1203 C.ar    1  LIG1        0.0965
      6 N          -4.0923   -0.4559    1.3662 N.ar    1  LIG1       -0.2111
      7 H          -2.5118   -2.3397   -1.5838 H       1  LIG1        0.0638
      8 H          -2.2151   -3.1663    0.7347 H       1  LIG1        0.0671
      9 O          -3.3045   -1.9375    2.8763 O.3     1  LIG1       -0.4924
     10 H          -2.7710   -2.7383    2.9310 H       1  LIG1        0.2937
     11 N          -3.8682   -0.1893   -2.3045 N.pl3   1  LIG1       -0.3563
     12 H          -3.9110   -0.9166   -3.0029 H       1  LIG1        0.1424
     13 H          -4.5934    0.5012   -2.4293 H       1  LIG1        0.1424
     14 C          -4.6331    2.4344   -0.5626 C.ar    1  LIG1        0.0345
     15 C          -5.5079    3.5272   -0.6239 C.ar    1  LIG1       -0.0377
     16 C          -5.0886    1.2290   -0.0030 C.ar    1  LIG1        0.0179
     17 C          -6.8053    3.4557   -0.1363 C.ar    1  LIG1       -0.0135
     18 H          -5.1491    4.4558   -1.0551 H       1  LIG1        0.0636
     19 C          -6.3883    1.1783    0.4997 C.ar    1  LIG1       -0.0478
     20 C          -7.2602    2.2592    0.4447 C.ar    1  LIG1       -0.0420
     21 H          -6.7178    0.2521    0.9591 H       1  LIG1        0.0627
     22 C          -3.2879    2.6053   -1.0243 C.1     1  LIG1       -0.0690
     23 C          -2.1632    2.7925   -1.4091 C.1     1  LIG1       -0.1139
     24 H          -1.1649    2.9352   -1.7529 H       1  LIG1        0.1232
     25 C          -8.6588    2.1384    0.9891 C.3     1  LIG1       -0.0391
     26 H          -8.8168    1.1586    1.4429 H       1  LIG1        0.0278
     27 H          -9.4065    2.2731    0.2018 H       1  LIG1        0.0278
     28 H          -8.8626    2.8997    1.7479 H       1  LIG1        0.0278
     29 C          -7.7368    5.6124    0.7992 C.ar    1  LIG1       -0.0420
     30 C          -8.5826    6.7064    0.6656 C.ar    1  LIG1       -0.0462
     31 C          -7.6915    4.6546   -0.2290 C.ar    1  LIG1       -0.0134
     32 C          -9.3891    6.9044   -0.4604 C.ar    1  LIG1        0.0386
     33 H          -8.6254    7.4414    1.4600 H       1  LIG1        0.0628
     34 C          -8.4831    4.8396   -1.3530 C.ar    1  LIG1       -0.0357
     35 C          -9.3260    5.9469   -1.4898 C.ar    1  LIG1        0.0631
     36 H          -8.4466    4.1130   -2.1574 H       1  LIG1        0.0637
     37 C          -6.8873    5.4629    2.0325 C.3     1  LIG1       -0.0391
     38 H          -7.0763    6.2729    2.7389 H       1  LIG1        0.0278
     39 H          -5.8230    5.4683    1.7808 H       1  LIG1        0.0278
     40 H          -7.0819    4.5136    2.5397 H       1  LIG1        0.0278
     41 N         -10.6054    6.0564   -3.7398 N.1     1  LIG1       -0.1908
     42 C         -10.0625    6.0461   -2.7183 C.1     1  LIG1        0.0999
     43 C         -10.2455    8.0807   -0.5178 C.ar    1  LIG1        0.1787
     44 C         -10.2493    9.2671    0.1641 C.ar    1  LIG1        0.1810
     45 C         -11.3613   10.0383   -0.3320 C.ar    1  LIG1        0.1046
     46 C         -11.9442    9.2472   -1.2767 C.ar    1  LIG1        0.1116
     47 O         -11.2953    8.0790   -1.3915 O.2     1  LIG1       -0.4578
     48 H         -12.8033    9.3884   -1.9127 H       1  LIG1        0.1043
     49 O          -9.3893    9.6101    1.1520 O.3     1  LIG1       -0.4902
     50 C          -8.6357   10.7998    0.9198 C.3     1  LIG1        0.0790
     51 H          -8.0056   10.9368    1.7983 H       1  LIG1        0.0660
     52 H          -8.0068   10.6900    0.0302 H       1  LIG1        0.0660
     53 H          -9.2911   11.6656    0.8014 H       1  LIG1        0.0660
     54 C         -11.7947   11.3241    0.0892 C.1     1  LIG1       -0.0628
     55 C         -12.1630   12.4134    0.4452 C.1     1  LIG1       -0.1137
     56 H         -12.4993   13.3728    0.7649 H       1  LIG1        0.1232
@<TRIPOS>BOND
     1    41    42    3
     2    12    11    1
     3    42    35    1
     4    13    11    1
     5    11     4    1
     6    36    34    1
     7    48    46    1
     8    24    23    1
     9     7     3    1
    10    35    34   ar
    11    35    32   ar
    12    23    22    3
    13    47    46   ar
    14    47    43   ar
    15    34    31   ar
    16    46    45   ar
    17    18    15    1
    18    22    14    1
    19     4     3   ar
    20     4     5   ar
    21     3     2   ar
    22    15    14   ar
    23    15    17   ar
    24    14    16   ar
    25    43    32    1
    26    43    44   ar
    27    32    30   ar
    28    45    54    1
    29    45    44   ar
    30    31    17    1
    31    31    29   ar
    32    17    20   ar
    33    16     5    1
    34    16    19   ar
    35    52    50    1
    36    54    55    3
    37     5     6   ar
    38    44    49    1
    39    27    25    1
    40    20    19   ar
    41    20    25    1
    42    55    56    1
    43    19    21    1
    44     2     8    1
    45     2     1   ar
    46    30    29   ar
    47    30    33    1
    48    29    37    1
    49    53    50    1
    50    50    49    1
    51    50    51    1
    52    25    26    1
    53    25    28    1
    54     6     1   ar
    55     1     9    1
    56    39    37    1
    57    37    40    1
    58    37    38    1
    59     9    10    1
