@<TRIPOS>MOLECULE
mol_data/opt/cam/geoms/mol2/6fh6fh6fh-6fh-.out
 50 53 0 0 0
SMALL
GASTEIGER

@<TRIPOS>ATOM
      1 C          -4.4889   -2.2218   -0.3796 C.ar    1  LIG1        0.2129
      2 C          -3.1089   -2.3276   -0.2213 C.ar    1  LIG1        0.0016
      3 C          -2.3967   -1.1576   -0.0414 C.ar    1  LIG1       -0.0339
      4 C          -3.0376    0.0816    0.0115 C.ar    1  LIG1        0.0513
      5 C          -4.4446    0.0826   -0.0839 C.ar    1  LIG1        0.1005
      6 N          -5.1120   -1.0641   -0.3079 N.ar    1  LIG1       -0.2110
      7 H          -1.3148   -1.1958    0.0507 H       1  LIG1        0.0638
      8 H          -2.6056   -3.2877   -0.2622 H       1  LIG1        0.0671
      9 O          -5.2930   -3.2858   -0.6194 O.3     1  LIG1       -0.4924
     10 H          -4.7578   -4.0852   -0.6808 H       1  LIG1        0.2937
     11 N          -2.2806    1.2481    0.1745 N.pl3   1  LIG1       -0.3563
     12 H          -1.3160    1.1329   -0.1057 H       1  LIG1        0.1424
     13 H          -2.6876    2.0626   -0.2668 H       1  LIG1        0.1424
     14 C          -6.5349    1.3884   -0.6560 C.ar    1  LIG1        0.2224
     15 C          -5.2810    1.3003    0.0044 C.ar    1  LIG1        0.0654
     16 C          -4.9099    2.4112    0.7582 C.ar    1  LIG1       -0.0246
     17 C          -5.6830    3.5714    0.8114 C.ar    1  LIG1        0.0519
     18 C          -6.8427    3.5854    0.0146 C.ar    1  LIG1        0.1005
     19 N          -7.2392    2.5024   -0.6629 N.ar    1  LIG1       -0.2104
     20 H          -4.0063    2.3678    1.3575 H       1  LIG1        0.0645
     21 O          -7.0784    0.3573   -1.3150 O.3     1  LIG1       -0.4919
     22 H          -6.5705   -0.4465   -1.0562 H       1  LIG1        0.2937
     23 N          -5.3475    4.6070    1.6866 N.pl3   1  LIG1       -0.3563
     24 H          -4.4369    4.4824    2.1068 H       1  LIG1        0.1424
     25 H          -5.4369    5.5284    1.2727 H       1  LIG1        0.1424
     26 C          -7.4397    6.0823   -0.1955 C.ar    1  LIG1        0.2224
     27 C          -7.7871    4.7302   -0.0705 C.ar    1  LIG1        0.0654
     28 C          -9.1503    4.4658   -0.1036 C.ar    1  LIG1       -0.0246
     29 C         -10.0978    5.4826   -0.2079 C.ar    1  LIG1        0.0519
     30 C          -9.6211    6.7988   -0.2810 C.ar    1  LIG1        0.1005
     31 N          -8.3105    7.0619   -0.2841 N.ar    1  LIG1       -0.2104
     32 H          -9.4642    3.4282   -0.0639 H       1  LIG1        0.0645
     33 O          -6.1257    6.4524   -0.2638 O.3     1  LIG1       -0.4919
     34 H          -6.1475    7.4127   -0.3951 H       1  LIG1        0.2937
     35 N         -11.4664    5.1830   -0.1936 N.pl3   1  LIG1       -0.3563
     36 H         -12.0347    5.8547   -0.6918 H       1  LIG1        0.1424
     37 H         -11.6684    4.2403   -0.4978 H       1  LIG1        0.1424
     38 C         -10.4319    8.9468   -1.3509 C.ar    1  LIG1        0.2219
     39 C         -10.5399    7.9640   -0.3506 C.ar    1  LIG1        0.0653
     40 C         -11.5395    8.1455    0.5954 C.ar    1  LIG1       -0.0252
     41 C         -12.3812    9.2612    0.5508 C.ar    1  LIG1        0.0438
     42 C         -12.1648   10.1640   -0.4841 C.ar    1  LIG1        0.0520
     43 N         -11.2178   10.0052   -1.4104 N.ar    1  LIG1       -0.2191
     44 H         -11.6582    7.4078    1.3836 H       1  LIG1        0.0645
     45 H         -12.7823   11.0560   -0.5729 H       1  LIG1        0.0849
     46 O          -9.5070    8.8108   -2.3261 O.3     1  LIG1       -0.4919
     47 H          -9.6280    9.5798   -2.9019 H       1  LIG1        0.2937
     48 N         -13.3470    9.4886    1.5356 N.pl3   1  LIG1       -0.3568
     49 H         -14.0997   10.0983    1.2491 H       1  LIG1        0.1424
     50 H         -13.7020    8.6515    1.9751 H       1  LIG1        0.1424
@<TRIPOS>BOND
     1    47    46    1
     2    46    38    1
     3    43    38   ar
     4    43    42   ar
     5    38    39   ar
     6    21    22    1
     7    21    14    1
     8    36    35    1
     9    10     9    1
    10    19    14   ar
    11    19    18   ar
    12    14    15   ar
    13     9     1    1
    14    45    42    1
    15    37    35    1
    16    42    41   ar
    17    34    33    1
    18     1     6   ar
    19     1     2   ar
    20    39    30    1
    21    39    40   ar
    22     6     5   ar
    23    31    30   ar
    24    31    26   ar
    25    30    29   ar
    26    13    11    1
    27    33    26    1
    28     8     2    1
    29     2     3   ar
    30    29    35    1
    31    29    28   ar
    32    26    27   ar
    33    12    11    1
    34    28    27   ar
    35    28    32    1
    36     5    15    1
    37     5     4   ar
    38    27    18    1
    39     3     4   ar
    40     3     7    1
    41    15    16   ar
    42     4    11    1
    43    18    17   ar
    44    41    40   ar
    45    41    48    1
    46    40    44    1
    47    16    17   ar
    48    16    20    1
    49    17    23    1
    50    49    48    1
    51    25    23    1
    52    48    50    1
    53    23    24    1
