@<TRIPOS>MOLECULE
mol_data/opt/cam/geoms/mol2/6fh6fh-6fh6fh-.out
 50 53 0 0 0
SMALL
GASTEIGER

@<TRIPOS>ATOM
      1 C          -3.8774   -1.8476   -1.0937 C.ar    1  LIG1        0.2129
      2 C          -3.0126   -2.2469   -0.0725 C.ar    1  LIG1        0.0016
      3 C          -2.8514   -1.3952    1.0001 C.ar    1  LIG1       -0.0339
      4 C          -3.5332   -0.1734    1.0636 C.ar    1  LIG1        0.0513
      5 C          -4.3618    0.1375   -0.0311 C.ar    1  LIG1        0.1005
      6 N          -4.5186   -0.7019   -1.0657 N.ar    1  LIG1       -0.2110
      7 H          -2.1961   -1.6769    1.8196 H       1  LIG1        0.0638
      8 H          -2.4840   -3.1941   -0.1156 H       1  LIG1        0.0671
      9 O          -4.1203   -2.6178   -2.1886 O.3     1  LIG1       -0.4924
     10 H          -3.6086   -3.4318   -2.1206 H       1  LIG1        0.2937
     11 N          -3.4511    0.6212    2.2040 N.pl3   1  LIG1       -0.3563
     12 H          -2.7262    0.3251    2.8423 H       1  LIG1        0.1424
     13 H          -3.3905    1.6137    2.0092 H       1  LIG1        0.1424
     14 C          -4.8311    2.6652    0.1937 C.ar    1  LIG1        0.2224
     15 C          -5.2135    1.3534   -0.1163 C.ar    1  LIG1        0.0654
     16 C          -6.4960    1.2340   -0.6377 C.ar    1  LIG1       -0.0246
     17 C          -7.3413    2.3286   -0.7628 C.ar    1  LIG1        0.0519
     18 C          -6.8824    3.5812   -0.3349 C.ar    1  LIG1        0.1005
     19 N          -5.6196    3.7137    0.0959 N.ar    1  LIG1       -0.2104
     20 H          -6.8161    0.2527   -0.9726 H       1  LIG1        0.0645
     21 O          -3.5593    2.9226    0.6097 O.3     1  LIG1       -0.4919
     22 H          -3.5289    3.8809    0.7538 H       1  LIG1        0.2937
     23 N          -8.6556    2.1847   -1.2803 N.pl3   1  LIG1       -0.3563
     24 H          -8.8340    2.8062   -2.0639 H       1  LIG1        0.1424
     25 H          -8.8583    1.2317   -1.5571 H       1  LIG1        0.1424
     26 C          -9.0377    4.9334    0.0246 C.ar    1  LIG1        0.2224
     27 C          -7.6861    4.8278   -0.3761 C.ar    1  LIG1        0.0654
     28 C          -7.0492    6.0115   -0.7332 C.ar    1  LIG1       -0.0246
     29 C          -7.6964    7.2438   -0.7118 C.ar    1  LIG1        0.0519
     30 C          -9.0470    7.2284   -0.3117 C.ar    1  LIG1        0.1005
     31 N          -9.6629    6.0974    0.0420 N.ar    1  LIG1       -0.2104
     32 H          -5.9996    5.9648   -1.0064 H       1  LIG1        0.0645
     33 O          -9.7643    3.8911    0.4713 O.3     1  LIG1       -0.4919
     34 H          -9.4979    3.0769   -0.0143 H       1  LIG1        0.2937
     35 N          -6.9964    8.4211   -0.9772 N.pl3   1  LIG1       -0.3563
     36 H          -6.0782    8.2496   -1.3626 H       1  LIG1        0.1424
     37 H          -7.5165    9.0800   -1.5455 H       1  LIG1        0.1424
     38 C          -9.9798    9.5056   -1.0656 C.ar    1  LIG1        0.2219
     39 C          -9.8841    8.4486   -0.1506 C.ar    1  LIG1        0.0653
     40 C         -10.7043    8.5419    0.9678 C.ar    1  LIG1       -0.0252
     41 C         -11.5351    9.6437    1.1707 C.ar    1  LIG1        0.0438
     42 C         -11.5097   10.6369    0.1954 C.ar    1  LIG1        0.0520
     43 N         -10.7536   10.5588   -0.8985 N.ar    1  LIG1       -0.2191
     44 H         -10.6892    7.7227    1.6787 H       1  LIG1        0.0645
     45 H         -12.1282   11.5266    0.2958 H       1  LIG1        0.0849
     46 O          -9.2707    9.4684   -2.2341 O.3     1  LIG1       -0.4919
     47 H          -9.5224   10.2775   -2.7041 H       1  LIG1        0.2937
     48 N         -12.3118    9.7716    2.3247 N.pl3   1  LIG1       -0.3568
     49 H         -13.1202   10.3680    2.2200 H       1  LIG1        0.1424
     50 H         -12.5598    8.8927    2.7563 H       1  LIG1        0.1424
@<TRIPOS>BOND
     1    47    46    1
     2    46    38    1
     3     9    10    1
     4     9     1    1
     5    24    23    1
     6    25    23    1
     7    37    35    1
     8    36    35    1
     9    23    17    1
    10     1     6   ar
    11     1     2   ar
    12     6     5   ar
    13    38    43   ar
    14    38    39   ar
    15    32    28    1
    16    35    29    1
    17    20    16    1
    18    43    42   ar
    19    17    16   ar
    20    17    18   ar
    21    28    29   ar
    22    28    27   ar
    23    29    30   ar
    24    16    15   ar
    25    27    18    1
    26    27    26   ar
    27    18    19   ar
    28    30    39    1
    29    30    31   ar
    30    39    40   ar
    31    15     5    1
    32    15    14   ar
    33     8     2    1
    34     2     3   ar
    35     5     4   ar
    36    34    33    1
    37    26    31   ar
    38    26    33    1
    39    19    14   ar
    40    14    21    1
    41    42    45    1
    42    42    41   ar
    43    21    22    1
    44    40    41   ar
    45    40    44    1
    46     3     4   ar
    47     3     7    1
    48     4    11    1
    49    41    48    1
    50    13    11    1
    51    11    12    1
    52    49    48    1
    53    48    50    1
