@<TRIPOS>MOLECULE
mol_data/opt/cam/geoms/mol2/6fh6fh6fh6fh-.out
 50 53 0 0 0
SMALL
GASTEIGER

@<TRIPOS>ATOM
      1 C          -4.4460   -2.1791    0.5533 C.ar    1  LIG1        0.2129
      2 C          -3.1279   -2.3373    0.1297 C.ar    1  LIG1        0.0016
      3 C          -2.5060   -1.2418   -0.4363 C.ar    1  LIG1       -0.0339
      4 C          -3.1573   -0.0117   -0.5461 C.ar    1  LIG1        0.0513
      5 C          -4.4583    0.0770   -0.0116 C.ar    1  LIG1        0.1005
      6 N          -5.0648   -1.0189    0.4818 N.ar    1  LIG1       -0.2110
      7 H          -1.4926   -1.3371   -0.8161 H       1  LIG1        0.0638
      8 H          -2.6166   -3.2903    0.2124 H       1  LIG1        0.0671
      9 O          -5.1900   -3.1873    1.0634 O.3     1  LIG1       -0.4924
     10 H          -4.6767   -4.0034    1.0593 H       1  LIG1        0.2937
     11 N          -2.5030    1.0715   -1.1501 N.pl3   1  LIG1       -0.3563
     12 H          -1.7099    0.7841   -1.7082 H       1  LIG1        0.1424
     13 H          -3.1194    1.6614   -1.6948 H       1  LIG1        0.1424
     14 C          -6.6858    1.2635    0.0552 C.ar    1  LIG1        0.2224
     15 C          -5.2685    1.3149    0.0261 C.ar    1  LIG1        0.0654
     16 C          -4.7082    2.5906    0.0495 C.ar    1  LIG1       -0.0246
     17 C          -5.4782    3.7503    0.0645 C.ar    1  LIG1        0.0519
     18 C          -6.8776    3.5953    0.0717 C.ar    1  LIG1        0.1005
     19 N          -7.4158    2.3645    0.0467 N.ar    1  LIG1       -0.2104
     20 H          -3.6286    2.6925    0.0707 H       1  LIG1        0.0645
     21 O          -7.3744    0.1232    0.0841 O.3     1  LIG1       -0.4919
     22 H          -6.7308   -0.5919    0.3133 H       1  LIG1        0.2937
     23 N          -4.8432    5.0033    0.0870 N.pl3   1  LIG1       -0.3563
     24 H          -3.8744    4.9514   -0.1986 H       1  LIG1        0.1424
     25 H          -5.3317    5.7108   -0.4473 H       1  LIG1        0.1424
     26 C          -9.1539    4.5594   -0.4557 C.ar    1  LIG1        0.2224
     27 C          -7.8467    4.7123    0.0816 C.ar    1  LIG1        0.0654
     28 C          -7.5592    5.9565    0.6389 C.ar    1  LIG1       -0.0246
     29 C          -8.4671    7.0153    0.6130 C.ar    1  LIG1        0.0519
     30 C          -9.6811    6.7807   -0.0570 C.ar    1  LIG1        0.1005
     31 N          -9.9923    5.5739   -0.5418 N.ar    1  LIG1       -0.2104
     32 H          -6.6138    6.1027    1.1502 H       1  LIG1        0.0645
     33 O          -9.6147    3.3895   -0.9097 O.3     1  LIG1       -0.4919
     34 H          -8.9850    2.6950   -0.5951 H       1  LIG1        0.2937
     35 N          -8.1955    8.2006    1.3028 N.pl3   1  LIG1       -0.3563
     36 H          -7.2460    8.2406    1.6470 H       1  LIG1        0.1424
     37 H          -8.4276    9.0335    0.7735 H       1  LIG1        0.1424
     38 C         -10.6078    9.1312   -0.5457 C.ar    1  LIG1        0.2219
     39 C         -10.7705    7.7845   -0.1930 C.ar    1  LIG1        0.0653
     40 C         -12.0835    7.3593   -0.0251 C.ar    1  LIG1       -0.0252
     41 C         -13.1568    8.2388   -0.1643 C.ar    1  LIG1        0.0438
     42 C         -12.8500    9.5572   -0.4892 C.ar    1  LIG1        0.0520
     43 N         -11.6029    9.9841   -0.6822 N.ar    1  LIG1       -0.2191
     44 H         -12.2510    6.3131    0.2072 H       1  LIG1        0.0645
     45 H         -13.6399   10.2966   -0.6056 H       1  LIG1        0.0849
     46 O          -9.3610    9.6285   -0.8074 O.3     1  LIG1       -0.4919
     47 H          -9.5110   10.5531   -1.0553 H       1  LIG1        0.2937
     48 N         -14.4722    7.8299    0.0680 N.pl3   1  LIG1       -0.3568
     49 H         -15.1717    8.3845   -0.4046 H       1  LIG1        0.1424
     50 H         -14.6299    6.8427   -0.0764 H       1  LIG1        0.1424
@<TRIPOS>BOND
     1    12    11    1
     2    13    11    1
     3    11     4    1
     4    47    46    1
     5    33    34    1
     6    33    26    1
     7     7     3    1
     8    46    38    1
     9    43    38   ar
    10    43    42   ar
    11    45    42    1
    12     4     3   ar
    13     4     5   ar
    14    38    39   ar
    15    31    26   ar
    16    31    30   ar
    17    42    41   ar
    18    26    27   ar
    19    25    23    1
    20     3     2   ar
    21    49    48    1
    22    24    23    1
    23    39    30    1
    24    39    40   ar
    25    41    40   ar
    26    41    48    1
    27    50    48    1
    28    30    29   ar
    29    40    44    1
    30     5    15    1
    31     5     6   ar
    32    15    16   ar
    33    15    14   ar
    34    19    14   ar
    35    19    18   ar
    36    16    17   ar
    37    16    20    1
    38    14    21    1
    39    17    18   ar
    40    17    23    1
    41    18    27    1
    42    27    28   ar
    43    21    22    1
    44     2     8    1
    45     2     1   ar
    46     6     1   ar
    47     1     9    1
    48    29    28   ar
    49    29    35    1
    50    28    32    1
    51    37    35    1
    52    10     9    1
    53    35    36    1
