@<TRIPOS>MOLECULE
mol_data/opt/cam/geoms/mol2/6fh6fh-6fh-6fh-.out
 50 53 0 0 0
SMALL
GASTEIGER

@<TRIPOS>ATOM
      1 C          -3.7440   -1.7517   -1.1928 C.ar    1  LIG1        0.2129
      2 C          -2.9756   -2.2460   -0.1375 C.ar    1  LIG1        0.0016
      3 C          -2.9056   -1.4880    1.0130 C.ar    1  LIG1       -0.0339
      4 C          -3.5833   -0.2677    1.1180 C.ar    1  LIG1        0.0513
      5 C          -4.3107    0.1449   -0.0155 C.ar    1  LIG1        0.1005
      6 N          -4.3794   -0.6040   -1.1257 N.ar    1  LIG1       -0.2110
      7 H          -2.3267   -1.8449    1.8605 H       1  LIG1        0.0638
      8 H          -2.4503   -3.1932   -0.2136 H       1  LIG1        0.0671
      9 O          -3.8927   -2.4258   -2.3662 O.3     1  LIG1       -0.4924
     10 H          -3.3897   -3.2467   -2.3214 H       1  LIG1        0.2937
     11 N          -3.5972    0.4300    2.3242 N.pl3   1  LIG1       -0.3563
     12 H          -2.9261    0.0746    2.9908 H       1  LIG1        0.1424
     13 H          -3.5083    1.4341    2.2131 H       1  LIG1        0.1424
     14 C          -4.7657    2.6493    0.3844 C.ar    1  LIG1        0.2224
     15 C          -5.1412    1.3779   -0.0694 C.ar    1  LIG1        0.0654
     16 C          -6.3845    1.3152   -0.6853 C.ar    1  LIG1       -0.0246
     17 C          -7.2104    2.4322   -0.7993 C.ar    1  LIG1        0.0519
     18 C          -6.7365    3.6377   -0.2627 C.ar    1  LIG1        0.1005
     19 N          -5.5279    3.7161    0.3027 N.ar    1  LIG1       -0.2104
     20 H          -6.6975    0.3629   -1.1003 H       1  LIG1        0.0645
     21 O          -3.5279    2.8468    0.9291 O.3     1  LIG1       -0.4919
     22 H          -3.4873    3.7977    1.1133 H       1  LIG1        0.2937
     23 N          -8.4763    2.3242   -1.3896 N.pl3   1  LIG1       -0.3563
     24 H          -8.8012    3.1838   -1.8119 H       1  LIG1        0.1424
     25 H          -8.5457    1.5530   -2.0395 H       1  LIG1        0.1424
     26 C          -7.0542    6.0931   -0.8048 C.ar    1  LIG1        0.2224
     27 C          -7.5472    4.8810   -0.2896 C.ar    1  LIG1        0.0654
     28 C          -8.8381    4.9119    0.2161 C.ar    1  LIG1       -0.0246
     29 C          -9.5934    6.0880    0.2234 C.ar    1  LIG1        0.0519
     30 C          -8.9893    7.2351   -0.3026 C.ar    1  LIG1        0.1005
     31 N          -7.7487    7.2109   -0.8054 N.ar    1  LIG1       -0.2104
     32 H          -9.2681    3.9976    0.6148 H       1  LIG1        0.0645
     33 O          -5.8215    6.1345   -1.3541 O.3     1  LIG1       -0.4919
     34 H          -5.7134    7.0445   -1.6677 H       1  LIG1        0.2937
     35 N         -10.8780    6.1069    0.7839 N.pl3   1  LIG1       -0.3563
     36 H         -11.4801    6.8210    0.3970 H       1  LIG1        0.1424
     37 H         -11.3326    5.2042    0.7772 H       1  LIG1        0.1424
     38 C          -9.8732    9.2753   -1.5101 C.ar    1  LIG1        0.2219
     39 C          -9.6909    8.5453   -0.3226 C.ar    1  LIG1        0.0653
     40 C         -10.1767    9.1195    0.8437 C.ar    1  LIG1       -0.0252
     41 C         -10.8006   10.3712    0.8247 C.ar    1  LIG1        0.0438
     42 C         -10.9083   10.9950   -0.4134 C.ar    1  LIG1        0.0520
     43 N         -10.4602   10.4562   -1.5487 N.ar    1  LIG1       -0.2191
     44 H         -10.0569    8.5871    1.7829 H       1  LIG1        0.0645
     45 H         -11.3777   11.9735   -0.4958 H       1  LIG1        0.0849
     46 O          -9.4623    8.7500   -2.6852 O.3     1  LIG1       -0.4919
     47 H          -9.6878    9.4116   -3.3552 H       1  LIG1        0.2937
     48 N         -11.2329   10.9909    2.0003 N.pl3   1  LIG1       -0.3568
     49 H         -11.9406   11.6985    1.8649 H       1  LIG1        0.1424
     50 H         -11.4873   10.3546    2.7421 H       1  LIG1        0.1424
@<TRIPOS>BOND
     1    47    46    1
     2    46    38    1
     3     9    10    1
     4     9     1    1
     5    25    23    1
     6    24    23    1
     7    34    33    1
     8    43    38   ar
     9    43    42   ar
    10    38    39   ar
    11    23    17    1
    12    33    26    1
    13     1     6   ar
    14     1     2   ar
    15     6     5   ar
    16    20    16    1
    17    31    26   ar
    18    31    30   ar
    19    26    27   ar
    20    17    16   ar
    21    17    18   ar
    22    16    15   ar
    23    45    42    1
    24    42    41   ar
    25    39    30    1
    26    39    40   ar
    27    30    29   ar
    28    27    18    1
    29    27    28   ar
    30    18    19   ar
    31     8     2    1
    32     2     3   ar
    33    15     5    1
    34    15    14   ar
    35     5     4   ar
    36    28    29   ar
    37    28    32    1
    38    29    35    1
    39    19    14   ar
    40    14    21    1
    41    36    35    1
    42    37    35    1
    43    41    40   ar
    44    41    48    1
    45    40    44    1
    46    21    22    1
    47     3     4   ar
    48     3     7    1
    49     4    11    1
    50    49    48    1
    51    48    50    1
    52    13    11    1
    53    11    12    1
