@<TRIPOS>MOLECULE
mol_data/opt/cam/geoms/mol2/6fh6fh6fh-6fh.out
 50 53 0 0 0
SMALL
GASTEIGER

@<TRIPOS>ATOM
      1 C          -4.5353   -2.2280   -0.4137 C.ar    1  LIG1        0.2129
      2 C          -3.1474   -2.3413   -0.3638 C.ar    1  LIG1        0.0016
      3 C          -2.4160   -1.1744   -0.2593 C.ar    1  LIG1       -0.0339
      4 C          -3.0429    0.0706   -0.1744 C.ar    1  LIG1        0.0513
      5 C          -4.4525    0.0803   -0.1569 C.ar    1  LIG1        0.1005
      6 N          -5.1429   -1.0645   -0.3101 N.ar    1  LIG1       -0.2110
      7 H          -1.3305   -1.2195   -0.2528 H       1  LIG1        0.0638
      8 H          -2.6549   -3.3056   -0.4297 H       1  LIG1        0.0671
      9 O          -5.3626   -3.2884   -0.5731 O.3     1  LIG1       -0.4924
     10 H          -4.8403   -4.0939   -0.6616 H       1  LIG1        0.2937
     11 N          -2.2678    1.2333   -0.0895 N.pl3   1  LIG1       -0.3563
     12 H          -1.3253    1.1035   -0.4318 H       1  LIG1        0.1424
     13 H          -2.6971    2.0422   -0.5196 H       1  LIG1        0.1424
     14 C          -6.5825    1.3852   -0.5636 C.ar    1  LIG1        0.2224
     15 C          -5.2738    1.3039   -0.0162 C.ar    1  LIG1        0.0654
     16 C          -4.8347    2.4245    0.6833 C.ar    1  LIG1       -0.0246
     17 C          -5.5985    3.5884    0.7889 C.ar    1  LIG1        0.0519
     18 C          -6.8256    3.5916    0.1026 C.ar    1  LIG1        0.1005
     19 N          -7.2835    2.5002   -0.5217 N.ar    1  LIG1       -0.2104
     20 H          -3.8807    2.3877    1.1990 H       1  LIG1        0.0645
     21 O          -7.1836    0.3473   -1.1567 O.3     1  LIG1       -0.4919
     22 H          -6.6543   -0.4545   -0.9343 H       1  LIG1        0.2937
     23 N          -5.1836    4.6357    1.6133 N.pl3   1  LIG1       -0.3563
     24 H          -4.2418    4.5151    1.9590 H       1  LIG1        0.1424
     25 H          -5.3109    5.5524    1.2011 H       1  LIG1        0.1424
     26 C          -7.4595    6.0851   -0.0839 C.ar    1  LIG1        0.2224
     27 C          -7.7782    4.7317    0.0907 C.ar    1  LIG1        0.0654
     28 C          -9.1396    4.4641    0.1665 C.ar    1  LIG1       -0.0246
     29 C         -10.0880    5.4782    0.1449 C.ar    1  LIG1        0.0519
     30 C          -9.6480    6.8050    0.0560 C.ar    1  LIG1        0.1005
     31 N          -8.3407    7.0618   -0.0960 N.ar    1  LIG1       -0.2104
     32 H          -9.4454    3.4242    0.2190 H       1  LIG1        0.0645
     33 O          -6.1643    6.4609   -0.2806 O.3     1  LIG1       -0.4919
     34 H          -6.1945    7.4250   -0.3782 H       1  LIG1        0.2937
     35 N         -11.4741    5.1862    0.2450 N.pl3   1  LIG1       -0.3563
     36 H         -12.0100    5.5779   -0.5240 H       1  LIG1        0.1424
     37 H         -11.6538    4.1912    0.3047 H       1  LIG1        0.1424
     38 C         -11.6337    8.1759    0.9350 C.ar    1  LIG1        0.2219
     39 C         -10.5423    7.9908    0.0540 C.ar    1  LIG1        0.0653
     40 C         -10.2238    9.0444   -0.8027 C.ar    1  LIG1       -0.0252
     41 C         -10.9609   10.2209   -0.7963 C.ar    1  LIG1        0.0438
     42 C         -12.0104   10.2864    0.1214 C.ar    1  LIG1        0.0520
     43 N         -12.3343    9.3037    0.9487 N.ar    1  LIG1       -0.2191
     44 H          -9.3683    8.9338   -1.4612 H       1  LIG1        0.0645
     45 H         -12.6181   11.1893    0.1835 H       1  LIG1        0.0849
     46 O         -12.0096    7.2664    1.8513 O.3     1  LIG1       -0.4919
     47 H         -11.8577    6.3599    1.4971 H       1  LIG1        0.2937
     48 N         -10.6357   11.3093   -1.6153 N.pl3   1  LIG1       -0.3568
     49 H         -10.1908   11.0535   -2.4853 H       1  LIG1        0.1424
     50 H         -11.4053   11.9435   -1.7786 H       1  LIG1        0.1424
@<TRIPOS>BOND
     1    49    48    1
     2    50    48    1
     3    48    41    1
     4    44    40    1
     5    21    22    1
     6    21    14    1
     7    40    41   ar
     8    40    39   ar
     9    41    42   ar
    10    10     9    1
    11     9     1    1
    12    14    19   ar
    13    14    15   ar
    14    36    35    1
    15    19    18   ar
    16    13    11    1
    17    12    11    1
    18     8     2    1
    19     1     2   ar
    20     1     6   ar
    21    34    33    1
    22     2     3   ar
    23     6     5   ar
    24    33    26    1
    25     3     7    1
    26     3     4   ar
    27     4     5   ar
    28     4    11    1
    29     5    15    1
    30    31    26   ar
    31    31    30   ar
    32    26    27   ar
    33    15    16   ar
    34    39    30    1
    35    39    38   ar
    36    30    29   ar
    37    27    18    1
    38    27    28   ar
    39    18    17   ar
    40    42    45    1
    41    42    43   ar
    42    29    28   ar
    43    29    35    1
    44    28    32    1
    45    35    37    1
    46    16    17   ar
    47    16    20    1
    48    17    23    1
    49    38    43   ar
    50    38    46    1
    51    25    23    1
    52    47    46    1
    53    23    24    1
