@<TRIPOS>MOLECULE
mol_data/opt/cam/geoms/mol2/6fh6fh6fh.out
 38 40 0 0 0
SMALL
GASTEIGER

@<TRIPOS>ATOM
      1 C          -4.4361   -2.0920    0.6570 C.ar    1  LIG1        0.2129
      2 C          -3.0860   -2.2144    0.3340 C.ar    1  LIG1        0.0016
      3 C          -2.4583   -1.1089   -0.2054 C.ar    1  LIG1       -0.0339
      4 C          -3.1376    0.0976   -0.3853 C.ar    1  LIG1        0.0513
      5 C          -4.4764    0.1530    0.0508 C.ar    1  LIG1        0.1005
      6 N          -5.0835   -0.9536    0.5187 N.ar    1  LIG1       -0.2110
      7 H          -1.4173   -1.1776   -0.5086 H       1  LIG1        0.0638
      8 H          -2.5529   -3.1490    0.4716 H       1  LIG1        0.0671
      9 O          -5.1842   -3.1150    1.1299 O.3     1  LIG1       -0.4924
     10 H          -4.6476   -3.9146    1.1775 H       1  LIG1        0.2937
     11 N          -2.4745    1.1912   -0.9605 N.pl3   1  LIG1       -0.3563
     12 H          -1.6347    0.9198   -1.4547 H       1  LIG1        0.1424
     13 H          -3.0677    1.7516   -1.5594 H       1  LIG1        0.1424
     14 C          -6.7383    1.2673   -0.0713 C.ar    1  LIG1        0.2224
     15 C          -5.3253    1.3644    0.0058 C.ar    1  LIG1        0.0654
     16 C          -4.8090    2.6578    0.0486 C.ar    1  LIG1       -0.0246
     17 C          -5.6141    3.7917   -0.0140 C.ar    1  LIG1        0.0519
     18 C          -7.0044    3.5916   -0.1092 C.ar    1  LIG1        0.1005
     19 N          -7.4995    2.3439   -0.1545 N.ar    1  LIG1       -0.2104
     20 H          -3.7377    2.7951    0.1484 H       1  LIG1        0.0645
     21 O          -7.3910    0.1061   -0.0746 O.3     1  LIG1       -0.4919
     22 H          -6.7454   -0.5843    0.2160 H       1  LIG1        0.2937
     23 N          -5.0210    5.0653    0.0347 N.pl3   1  LIG1       -0.3563
     24 H          -4.0320    5.0381   -0.1750 H       1  LIG1        0.1424
     25 H          -5.4868    5.7456   -0.5525 H       1  LIG1        0.1424
     26 C          -9.2596    4.4731   -0.8323 C.ar    1  LIG1        0.2219
     27 C          -8.0073    4.6780   -0.1885 C.ar    1  LIG1        0.0653
     28 C          -7.7939    5.9324    0.3882 C.ar    1  LIG1       -0.0252
     29 C          -8.7363    6.9483    0.2632 C.ar    1  LIG1        0.0438
     30 C          -9.8777    6.6491   -0.4776 C.ar    1  LIG1        0.0520
     31 N         -10.1359    5.4545   -0.9928 N.ar    1  LIG1       -0.2191
     32 H          -6.8947    6.1092    0.9682 H       1  LIG1        0.0645
     33 H         -10.6328    7.4180   -0.6429 H       1  LIG1        0.0849
     34 O          -9.6294    3.2877   -1.3236 O.3     1  LIG1       -0.4919
     35 H          -9.0111    2.6160   -0.9445 H       1  LIG1        0.2937
     36 N          -8.5745    8.1901    0.8938 N.pl3   1  LIG1       -0.3568
     37 H          -7.6125    8.4792    1.0006 H       1  LIG1        0.1424
     38 H          -9.1281    8.9301    0.4848 H       1  LIG1        0.1424
@<TRIPOS>BOND
     1    13    11    1
     2    12    11    1
     3    34    35    1
     4    34    26    1
     5    31    26   ar
     6    31    30   ar
     7    11     4    1
     8    26    27   ar
     9    33    30    1
    10    25    23    1
    11     7     3    1
    12    30    29   ar
    13     4     3   ar
    14     4     5   ar
    15     3     2   ar
    16    27    18    1
    17    27    28   ar
    18    24    23    1
    19    19    18   ar
    20    19    14   ar
    21    18    17   ar
    22    21    14    1
    23    21    22    1
    24    14    15   ar
    25    17    23    1
    26    17    16   ar
    27    15    16   ar
    28    15     5    1
    29    16    20    1
    30     5     6   ar
    31    29    28   ar
    32    29    36    1
    33     2     8    1
    34     2     1   ar
    35    28    32    1
    36    38    36    1
    37     6     1   ar
    38     1     9    1
    39    36    37    1
    40     9    10    1
