@<TRIPOS>MOLECULE
mol_data/opt/cam/geoms/mol2/6fh6fh-6fh-6fh.out
 50 53 0 0 0
SMALL
GASTEIGER

@<TRIPOS>ATOM
      1 C          -3.9399   -1.8032   -1.3384 C.ar    1  LIG1        0.2129
      2 C          -3.0734   -2.3020   -0.3639 C.ar    1  LIG1        0.0016
      3 C          -2.8672   -1.5343    0.7633 C.ar    1  LIG1       -0.0339
      4 C          -3.5065   -0.2990    0.9246 C.ar    1  LIG1        0.0513
      5 C          -4.3420    0.1157   -0.1303 C.ar    1  LIG1        0.1005
      6 N          -4.5429   -0.6426   -1.2180 N.ar    1  LIG1       -0.2110
      7 H          -2.2085   -1.8942    1.5489 H       1  LIG1        0.0638
      8 H          -2.5772   -3.2603   -0.4835 H       1  LIG1        0.0671
      9 O          -4.2249   -2.4857   -2.4809 O.3     1  LIG1       -0.4924
     10 H          -3.7360   -3.3163   -2.4804 H       1  LIG1        0.2937
     11 N          -3.3790    0.4111    2.1163 N.pl3   1  LIG1       -0.3563
     12 H          -2.6514    0.0471    2.7156 H       1  LIG1        0.1424
     13 H          -3.2824    1.4118    1.9857 H       1  LIG1        0.1424
     14 C          -4.7082    2.6334    0.2823 C.ar    1  LIG1        0.2224
     15 C          -5.1521    1.3633   -0.1115 C.ar    1  LIG1        0.0654
     16 C          -6.4541    1.3166   -0.5918 C.ar    1  LIG1       -0.0246
     17 C          -7.2688    2.4468   -0.6312 C.ar    1  LIG1        0.0519
     18 C          -6.7211    3.6484   -0.1622 C.ar    1  LIG1        0.1005
     19 N          -5.4570    3.7125    0.2681 N.ar    1  LIG1       -0.2104
     20 H          -6.8239    0.3657   -0.9607 H       1  LIG1        0.0645
     21 O          -3.4171    2.8125    0.6886 O.3     1  LIG1       -0.4919
     22 H          -3.3379    3.7631    0.8609 H       1  LIG1        0.2937
     23 N          -8.5939    2.3558   -1.0813 N.pl3   1  LIG1       -0.3563
     24 H          -8.9301    3.2017   -1.5223 H       1  LIG1        0.1424
     25 H          -8.7528    1.5545   -1.6773 H       1  LIG1        0.1424
     26 C          -7.0453    6.1197   -0.6419 C.ar    1  LIG1        0.2224
     27 C          -7.5090    4.9046   -0.1049 C.ar    1  LIG1        0.0654
     28 C          -8.7522    4.9583    0.5063 C.ar    1  LIG1       -0.0246
     29 C          -9.4588    6.1543    0.6151 C.ar    1  LIG1        0.0519
     30 C          -8.8737    7.3206    0.1114 C.ar    1  LIG1        0.1005
     31 N          -7.6994    7.2583   -0.5377 N.ar    1  LIG1       -0.2104
     32 H          -9.1823    4.0424    0.9019 H       1  LIG1        0.0645
     33 O          -5.8822    6.1441   -1.3190 O.3     1  LIG1       -0.4919
     34 H          -5.7533    7.0676   -1.5817 H       1  LIG1        0.2937
     35 N         -10.7240    6.2006    1.2597 N.pl3   1  LIG1       -0.3563
     36 H         -11.4480    6.6049    0.6731 H       1  LIG1        0.1424
     37 H         -11.0263    5.2923    1.5899 H       1  LIG1        0.1424
     38 C         -10.1179    9.2092    1.3327 C.ar    1  LIG1        0.2219
     39 C          -9.4935    8.6693    0.1838 C.ar    1  LIG1        0.0653
     40 C          -9.3574    9.5057   -0.9244 C.ar    1  LIG1       -0.0252
     41 C          -9.8331   10.8098   -0.9011 C.ar    1  LIG1        0.0438
     42 C         -10.4298   11.2273    0.2898 C.ar    1  LIG1        0.0520
     43 N         -10.5683   10.4579    1.3591 N.ar    1  LIG1       -0.2191
     44 H          -8.8454    9.1215   -1.8007 H       1  LIG1        0.0645
     45 H         -10.8132   12.2443    0.3744 H       1  LIG1        0.0849
     46 O         -10.2541    8.5366    2.4895 O.3     1  LIG1       -0.4919
     47 H         -10.3932    7.5809    2.2995 H       1  LIG1        0.2937
     48 N          -9.6697   11.6833   -1.9824 N.pl3   1  LIG1       -0.3568
     49 H          -9.6258   11.2274   -2.8824 H       1  LIG1        0.1424
     50 H         -10.3282   12.4494   -1.9966 H       1  LIG1        0.1424
@<TRIPOS>BOND
     1    49    48    1
     2     9    10    1
     3     9     1    1
     4    50    48    1
     5    48    41    1
     6    44    40    1
     7    25    23    1
     8    34    33    1
     9    24    23    1
    10     1     6   ar
    11     1     2   ar
    12    33    26    1
    13     6     5   ar
    14    23    17    1
    15    20    16    1
    16    40    41   ar
    17    40    39   ar
    18    41    42   ar
    19    26    31   ar
    20    26    27   ar
    21    17    16   ar
    22    17    18   ar
    23    16    15   ar
    24    31    30   ar
    25     8     2    1
    26     2     3   ar
    27    18    27    1
    28    18    19   ar
    29     5    15    1
    30     5     4   ar
    31    15    14   ar
    32    27    28   ar
    33    30    39    1
    34    30    29   ar
    35    39    38   ar
    36    19    14   ar
    37    14    21    1
    38    42    45    1
    39    42    43   ar
    40    28    29   ar
    41    28    32    1
    42    29    35    1
    43    36    35    1
    44    21    22    1
    45     3     4   ar
    46     3     7    1
    47     4    11    1
    48    35    37    1
    49    38    43   ar
    50    38    46    1
    51    13    11    1
    52    11    12    1
    53    47    46    1
