@<TRIPOS>MOLECULE
mol_data/opt/cam/geoms/mol2/6fh6fh6fh6fh.out
 50 53 0 0 0
SMALL
GASTEIGER

@<TRIPOS>ATOM
      1 C          -4.3693   -2.1093    0.9385 C.ar    1  LIG1        0.2129
      2 C          -3.0891   -2.3278    0.4319 C.ar    1  LIG1        0.0016
      3 C          -2.5178   -1.3147   -0.3118 C.ar    1  LIG1       -0.0339
      4 C          -3.1782   -0.1013   -0.5176 C.ar    1  LIG1        0.0513
      5 C          -4.4308    0.0617    0.1058 C.ar    1  LIG1        0.1005
      6 N          -4.9936   -0.9613    0.7761 N.ar    1  LIG1       -0.2110
      7 H          -1.5389   -1.4639   -0.7587 H       1  LIG1        0.0638
      8 H          -2.5709   -3.2677    0.5882 H       1  LIG1        0.0671
      9 O          -5.0675   -3.0409    1.6256 O.3     1  LIG1       -0.4924
     10 H          -4.5570   -3.8570    1.6795 H       1  LIG1        0.2937
     11 N          -2.5772    0.8953   -1.3004 N.pl3   1  LIG1       -0.3563
     12 H          -1.8187    0.5387   -1.8667 H       1  LIG1        0.1424
     13 H          -3.2345    1.4039   -1.8785 H       1  LIG1        0.1424
     14 C          -6.6484    1.2632    0.2230 C.ar    1  LIG1        0.2224
     15 C          -5.2389    1.3011    0.0611 C.ar    1  LIG1        0.0654
     16 C          -4.6865    2.5654   -0.1278 C.ar    1  LIG1       -0.0246
     17 C          -5.4565    3.7242   -0.1855 C.ar    1  LIG1        0.0519
     18 C          -6.8472    3.5834   -0.0255 C.ar    1  LIG1        0.1005
     19 N          -7.3795    2.3609    0.1456 N.ar    1  LIG1       -0.2104
     20 H          -3.6104    2.6608   -0.2232 H       1  LIG1        0.0645
     21 O          -7.3271    0.1424    0.4524 O.3     1  LIG1       -0.4919
     22 H          -6.6627   -0.5468    0.7054 H       1  LIG1        0.2937
     23 N          -4.8275    4.9678   -0.3841 N.pl3   1  LIG1       -0.3563
     24 H          -3.8637    4.8653   -0.6746 H       1  LIG1        0.1424
     25 H          -5.3225    5.5623   -1.0379 H       1  LIG1        0.1424
     26 C          -9.1850    4.4628   -0.3789 C.ar    1  LIG1        0.2224
     27 C          -7.8234    4.6941   -0.0476 C.ar    1  LIG1        0.0654
     28 C          -7.4910    6.0130    0.2555 C.ar    1  LIG1       -0.0246
     29 C          -8.4151    7.0528    0.2055 C.ar    1  LIG1        0.0519
     30 C          -9.7350    6.7271   -0.1583 C.ar    1  LIG1        0.1005
     31 N         -10.0541    5.4561   -0.4524 N.ar    1  LIG1       -0.2104
     32 H          -6.4765    6.2434    0.5613 H       1  LIG1        0.0645
     33 O          -9.6750    3.2553   -0.6437 O.3     1  LIG1       -0.4919
     34 H          -8.9909    2.6006   -0.3440 H       1  LIG1        0.2937
     35 N          -8.0044    8.3596    0.5269 N.pl3   1  LIG1       -0.3563
     36 H          -6.9986    8.4627    0.4976 H       1  LIG1        0.1424
     37 H          -8.4459    9.0674   -0.0465 H       1  LIG1        0.1424
     38 C         -11.9403    7.4659   -1.1468 C.ar    1  LIG1        0.2219
     39 C         -10.8424    7.7037   -0.2728 C.ar    1  LIG1        0.0653
     40 C         -10.8843    8.8759    0.4855 C.ar    1  LIG1       -0.0252
     41 C         -11.9157    9.7963    0.3258 C.ar    1  LIG1        0.0438
     42 C         -12.8768    9.4921   -0.6354 C.ar    1  LIG1        0.0520
     43 N         -12.8966    8.3646   -1.3341 N.ar    1  LIG1       -0.2191
     44 H         -10.1188    9.0586    1.2315 H       1  LIG1        0.0645
     45 H         -13.6866   10.1950   -0.8328 H       1  LIG1        0.0849
     46 O         -12.0738    6.3325   -1.8395 O.3     1  LIG1       -0.4919
     47 H         -11.4412    5.6816   -1.4456 H       1  LIG1        0.2937
     48 N         -12.0144   10.9435    1.1268 N.pl3   1  LIG1       -0.3568
     49 H         -11.1250   11.3118    1.4333 H       1  LIG1        0.1424
     50 H         -12.5838   11.6740    0.7223 H       1  LIG1        0.1424
@<TRIPOS>BOND
     1    13    11    1
     2    12    11    1
     3    46    47    1
     4    46    38    1
     5    43    38   ar
     6    43    42   ar
     7    11     4    1
     8    38    39   ar
     9    25    23    1
    10    45    42    1
    11     7     3    1
    12    24    23    1
    13    33    26    1
    14    33    34    1
    15    42    41   ar
    16     4     3   ar
    17     4     5   ar
    18    31    26   ar
    19    31    30   ar
    20    23    17    1
    21    26    27   ar
    22     3     2   ar
    23    39    30    1
    24    39    40   ar
    25    20    16    1
    26    17    16   ar
    27    17    18   ar
    28    30    29   ar
    29    16    15   ar
    30    27    18    1
    31    27    28   ar
    32    37    35    1
    33    18    19   ar
    34    15     5    1
    35    15    14   ar
    36     5     6   ar
    37    19    14   ar
    38    29    28   ar
    39    29    35    1
    40    14    21    1
    41    28    32    1
    42    41    40   ar
    43    41    48    1
    44     2     8    1
    45     2     1   ar
    46    21    22    1
    47    40    44    1
    48    36    35    1
    49    50    48    1
    50     6     1   ar
    51     1     9    1
    52    48    49    1
    53     9    10    1
