@<TRIPOS>MOLECULE
mol_data/opt/cam/geoms/mol2/6fh6fh-4fh6fh.out
 51 54 0 0 0
SMALL
GASTEIGER

@<TRIPOS>ATOM
      1 C          -3.8739   -1.7565   -1.4032 C.ar    1  LIG1        0.2129
      2 C          -3.0635   -2.3018   -0.4060 C.ar    1  LIG1        0.0016
      3 C          -2.9180   -1.5852    0.7637 C.ar    1  LIG1       -0.0339
      4 C          -3.5628   -0.3557    0.9440 C.ar    1  LIG1        0.0513
      5 C          -4.3384    0.1093   -0.1357 C.ar    1  LIG1        0.1005
      6 N          -4.4801   -0.5994   -1.2653 N.ar    1  LIG1       -0.2110
      7 H          -2.3045   -1.9824    1.5678 H       1  LIG1        0.0638
      8 H          -2.5637   -3.2562   -0.5405 H       1  LIG1        0.0671
      9 O          -4.0970   -2.3870   -2.5890 O.3     1  LIG1       -0.4924
     10 H          -3.6116   -3.2196   -2.5970 H       1  LIG1        0.2937
     11 N          -3.4998    0.3011    2.1711 N.pl3   1  LIG1       -0.3563
     12 H          -2.8045   -0.0899    2.7913 H       1  LIG1        0.1424
     13 H          -3.3964    1.3065    2.0889 H       1  LIG1        0.1424
     14 C          -4.7206    2.6078    0.3671 C.ar    1  LIG1        0.2224
     15 C          -5.1454    1.3588   -0.1052 C.ar    1  LIG1        0.0654
     16 C          -6.4218    1.3381   -0.6522 C.ar    1  LIG1       -0.0246
     17 C          -7.2297    2.4735   -0.6858 C.ar    1  LIG1        0.0519
     18 C          -6.7020    3.6534   -0.1433 C.ar    1  LIG1        0.0989
     19 N          -5.4633    3.6915    0.3577 N.ar    1  LIG1       -0.2105
     20 H          -6.7769    0.4048   -1.0762 H       1  LIG1        0.0645
     21 O          -3.4526    2.7629    0.8528 O.3     1  LIG1       -0.4919
     22 H          -3.3848    3.7044    1.0733 H       1  LIG1        0.2937
     23 N          -8.5298    2.4058   -1.2027 N.pl3   1  LIG1       -0.3563
     24 H          -8.8692    3.2862   -1.5659 H       1  LIG1        0.1424
     25 H          -8.6527    1.6616   -1.8757 H       1  LIG1        0.1424
     26 C          -7.0108    6.1123   -0.6306 C.ar    1  LIG1        0.1268
     27 C          -7.7657    7.2728   -0.5172 C.ar    1  LIG1       -0.0099
     28 C          -7.4913    4.9127   -0.0887 C.ar    1  LIG1        0.0454
     29 C          -9.0035    7.3003    0.1302 C.ar    1  LIG1        0.0114
     30 H          -7.3677    8.2030   -0.9138 H       1  LIG1        0.0661
     31 C          -8.7396    4.9330    0.5293 C.ar    1  LIG1       -0.0277
     32 C          -9.4961    6.0938    0.6457 C.ar    1  LIG1        0.0334
     33 H          -9.1309    4.0024    0.9303 H       1  LIG1        0.0644
     34 O          -5.8120    6.0991   -1.2718 O.3     1  LIG1       -0.5061
     35 H          -5.6068    6.9916   -1.5735 H       1  LIG1        0.2922
     36 N         -10.7375    6.0805    1.3385 N.pl3   1  LIG1       -0.3575
     37 H         -11.4955    6.4804    0.7938 H       1  LIG1        0.1423
     38 H         -10.9986    5.1534    1.6508 H       1  LIG1        0.1423
     39 C         -10.2755    9.1087    1.4172 C.ar    1  LIG1        0.2204
     40 C          -9.7428    8.5877    0.2140 C.ar    1  LIG1        0.0471
     41 C          -9.8426    9.3874   -0.9239 C.ar    1  LIG1       -0.0267
     42 C         -10.4195   10.6523   -0.8668 C.ar    1  LIG1        0.0437
     43 C         -10.8751   11.0658    0.3845 C.ar    1  LIG1        0.0520
     44 N         -10.8145   10.3185    1.4786 N.ar    1  LIG1       -0.2191
     45 H          -9.4551    9.0134   -1.8678 H       1  LIG1        0.0644
     46 H         -11.3192   12.0546    0.4988 H       1  LIG1        0.0849
     47 O         -10.2361    8.4367    2.5827 O.3     1  LIG1       -0.4920
     48 H         -10.3629    7.4778    2.4025 H       1  LIG1        0.2937
     49 N         -10.4833   11.4904   -1.9859 N.pl3   1  LIG1       -0.3568
     50 H         -10.5597   11.0031   -2.8673 H       1  LIG1        0.1424
     51 H         -11.1822   12.2167   -1.9151 H       1  LIG1        0.1424
@<TRIPOS>BOND
     1    50    49    1
     2    10     9    1
     3     9     1    1
     4    49    51    1
     5    49    42    1
     6    25    23    1
     7    45    41    1
     8    35    34    1
     9    24    23    1
    10     1     6   ar
    11     1     2   ar
    12    34    26    1
    13     6     5   ar
    14    23    17    1
    15    20    16    1
    16    41    42   ar
    17    41    40   ar
    18    30    27    1
    19    42    43   ar
    20    17    16   ar
    21    17    18   ar
    22    16    15   ar
    23    26    27   ar
    24    26    28   ar
    25     8     2    1
    26    27    29   ar
    27     2     3   ar
    28    18    28    1
    29    18    19   ar
    30     5    15    1
    31     5     4   ar
    32    15    14   ar
    33    28    31   ar
    34    29    40    1
    35    29    32   ar
    36    40    39   ar
    37    19    14   ar
    38    14    21    1
    39    43    46    1
    40    43    44   ar
    41    31    32   ar
    42    31    33    1
    43    32    36    1
    44     3     4   ar
    45     3     7    1
    46    37    36    1
    47    21    22    1
    48     4    11    1
    49    36    38    1
    50    39    44   ar
    51    39    47    1
    52    13    11    1
    53    11    12    1
    54    48    47    1
