@<TRIPOS>MOLECULE
mol_data/opt/cam/geoms/mol2/6fh6fh-.out
 26 27 0 0 0
SMALL
GASTEIGER

@<TRIPOS>ATOM
      1 C          -4.4977   -1.9814    0.5108 C.ar    1  LIG1        0.2129
      2 C          -3.1911   -2.1276    0.0419 C.ar    1  LIG1        0.0016
      3 C          -2.5515   -1.0012   -0.4332 C.ar    1  LIG1       -0.0339
      4 C          -3.1926    0.2430   -0.4460 C.ar    1  LIG1        0.0513
      5 C          -4.5023    0.2786    0.0702 C.ar    1  LIG1        0.1005
      6 N          -5.1181   -0.8234    0.5211 N.ar    1  LIG1       -0.2110
      7 H          -1.5378   -1.0769   -0.8169 H       1  LIG1        0.0638
      8 H          -2.6912   -3.0914    0.0476 H       1  LIG1        0.0671
      9 O          -5.2242   -3.0291    0.9868 O.3     1  LIG1       -0.4924
     10 H          -4.6870   -3.8282    0.9445 H       1  LIG1        0.2937
     11 N          -2.5782    1.3487   -1.0323 N.pl3   1  LIG1       -0.3563
     12 H          -1.6017    1.1900   -1.2389 H       1  LIG1        0.1424
     13 H          -2.7067    2.2069   -0.5076 H       1  LIG1        0.1424
     14 C          -4.9656    2.7762    0.4821 C.ar    1  LIG1        0.2219
     15 C          -5.3616    1.4943    0.0777 C.ar    1  LIG1        0.0653
     16 C          -6.6966    1.3625   -0.2880 C.ar    1  LIG1       -0.0252
     17 C          -7.5617    2.4566   -0.2913 C.ar    1  LIG1        0.0438
     18 C          -7.0269    3.6805    0.1027 C.ar    1  LIG1        0.0520
     19 N          -5.7601    3.8272    0.4862 N.ar    1  LIG1       -0.2191
     20 H          -7.0548    0.3754   -0.5604 H       1  LIG1        0.0645
     21 H          -7.6468    4.5746    0.1212 H       1  LIG1        0.0849
     22 O          -3.6930    2.9914    0.9327 O.3     1  LIG1       -0.4919
     23 H          -3.6719    3.9266    1.1855 H       1  LIG1        0.2937
     24 N          -8.9116    2.3233   -0.6198 N.pl3   1  LIG1       -0.3568
     25 H          -9.3507    3.1694   -0.9527 H       1  LIG1        0.1424
     26 H          -9.1232    1.5370   -1.2164 H       1  LIG1        0.1424
@<TRIPOS>BOND
     1    12    11    1
     2    26    24    1
     3    11    13    1
     4    11     4    1
     5    25    24    1
     6     7     3    1
     7    24    17    1
     8    20    16    1
     9     4     3   ar
    10     4     5   ar
    11     3     2   ar
    12    17    16   ar
    13    17    18   ar
    14    16    15   ar
    15     2     8    1
    16     2     1   ar
    17     5    15    1
    18     5     6   ar
    19    15    14   ar
    20    18    21    1
    21    18    19   ar
    22    14    19   ar
    23    14    22    1
    24     1     6   ar
    25     1     9    1
    26    22    23    1
    27    10     9    1
