@<TRIPOS>MOLECULE
mol_data/opt/cam/geoms/mol2/6fh6fh-6fh.out
 38 40 0 0 0
SMALL
GASTEIGER

@<TRIPOS>ATOM
      1 C          -4.5038   -2.0809    0.4151 C.ar    1  LIG1        0.2129
      2 C          -3.1569   -2.2338    0.0783 C.ar    1  LIG1        0.0016
      3 C          -2.4562   -1.1044   -0.2888 C.ar    1  LIG1       -0.0339
      4 C          -3.0740    0.1521   -0.3234 C.ar    1  LIG1        0.0513
      5 C          -4.4274    0.1939    0.0616 C.ar    1  LIG1        0.1005
      6 N          -5.1035   -0.9124    0.4053 N.ar    1  LIG1       -0.2110
      7 H          -1.4100   -1.1859   -0.5704 H       1  LIG1        0.0638
      8 H          -2.6742   -3.2060    0.1008 H       1  LIG1        0.0671
      9 O          -5.2915   -3.1303    0.7719 O.3     1  LIG1       -0.4924
     10 H          -4.7659   -3.9382    0.7586 H       1  LIG1        0.2937
     11 N          -2.3865    1.2614   -0.8123 N.pl3   1  LIG1       -0.3563
     12 H          -1.3971    1.0912   -0.9271 H       1  LIG1        0.1424
     13 H          -2.5549    2.1110   -0.2861 H       1  LIG1        0.1424
     14 C          -4.9118    2.6928    0.4944 C.ar    1  LIG1        0.2224
     15 C          -5.2698    1.4189    0.0339 C.ar    1  LIG1        0.0654
     16 C          -6.5717    1.3206   -0.4410 C.ar    1  LIG1       -0.0246
     17 C          -7.4279    2.4141   -0.4694 C.ar    1  LIG1        0.0519
     18 C          -6.9659    3.6389    0.0296 C.ar    1  LIG1        0.1005
     19 N          -5.7065    3.7414    0.4776 N.ar    1  LIG1       -0.2104
     20 H          -6.9104    0.3522   -0.7947 H       1  LIG1        0.0645
     21 O          -3.6816    2.8984    1.0417 O.3     1  LIG1       -0.4919
     22 H          -3.6871    3.8204    1.3415 H       1  LIG1        0.2937
     23 N          -8.7540    2.2936   -0.9620 N.pl3   1  LIG1       -0.3563
     24 H          -8.9533    2.9460   -1.7146 H       1  LIG1        0.1424
     25 H          -8.9695    1.3519   -1.2659 H       1  LIG1        0.1424
     26 C          -9.1103    4.9760    0.4960 C.ar    1  LIG1        0.2219
     27 C          -7.7654    4.8905    0.0658 C.ar    1  LIG1        0.0653
     28 C          -7.1141    6.0841   -0.2452 C.ar    1  LIG1       -0.0252
     29 C          -7.7695    7.3044   -0.1490 C.ar    1  LIG1        0.0438
     30 C          -9.0939    7.2598    0.2898 C.ar    1  LIG1        0.0520
     31 N          -9.7366    6.1425    0.5956 N.ar    1  LIG1       -0.2191
     32 H          -6.0712    6.0416   -0.5427 H       1  LIG1        0.0645
     33 H          -9.6586    8.1860    0.3976 H       1  LIG1        0.0849
     34 O          -9.8343    3.9121    0.8853 O.3     1  LIG1       -0.4919
     35 H          -9.5664    3.1224    0.3618 H       1  LIG1        0.2937
     36 N          -7.1265    8.5197   -0.4127 N.pl3   1  LIG1       -0.3568
     37 H          -6.3783    8.4548   -1.0881 H       1  LIG1        0.1424
     38 H          -7.7559    9.2756   -0.6440 H       1  LIG1        0.1424
@<TRIPOS>BOND
     1    24    23    1
     2    25    23    1
     3    37    36    1
     4    23    17    1
     5    12    11    1
     6    11     4    1
     7    11    13    1
     8    20    16    1
     9    38    36    1
    10     7     3    1
    11    32    28    1
    12    17    16   ar
    13    17    18   ar
    14    16    15   ar
    15    36    29    1
    16     4     3   ar
    17     4     5   ar
    18     3     2   ar
    19    28    29   ar
    20    28    27   ar
    21    29    30   ar
    22    18    27    1
    23    18    19   ar
    24    15     5    1
    25    15    14   ar
    26     5     6   ar
    27    27    26   ar
    28     2     8    1
    29     2     1   ar
    30    30    33    1
    31    30    31   ar
    32    35    34    1
    33     6     1   ar
    34     1     9    1
    35    19    14   ar
    36    14    21    1
    37    26    31   ar
    38    26    34    1
    39    10     9    1
    40    21    22    1
