@<TRIPOS>MOLECULE
mol_data/opt/cam/geoms/mol2/6fh6fh.out
 26 27 0 0 0
SMALL
GASTEIGER

@<TRIPOS>ATOM
      1 C          -4.4902   -2.0727    0.3473 C.ar    1  LIG1        0.2129
      2 C          -3.1070   -2.1154    0.1865 C.ar    1  LIG1        0.0016
      3 C          -2.4679   -0.9369   -0.1461 C.ar    1  LIG1       -0.0339
      4 C          -3.1756    0.2587   -0.2839 C.ar    1  LIG1        0.0513
      5 C          -4.5612    0.2196   -0.0269 C.ar    1  LIG1        0.1005
      6 N          -5.1691   -0.9490    0.2453 N.ar    1  LIG1       -0.2110
      7 H          -1.3947   -0.9367   -0.3151 H       1  LIG1        0.0638
      8 H          -2.5525   -3.0419    0.2918 H       1  LIG1        0.0671
      9 O          -5.2413   -3.1676    0.6148 O.3     1  LIG1       -0.4924
     10 H          -4.6739   -3.9462    0.6503 H       1  LIG1        0.2937
     11 N          -2.4955    1.4298   -0.6434 N.pl3   1  LIG1       -0.3563
     12 H          -1.6157    1.2445   -1.1062 H       1  LIG1        0.1424
     13 H          -3.0565    2.0724   -1.1874 H       1  LIG1        0.1424
     14 C          -6.8228    1.2835   -0.4140 C.ar    1  LIG1        0.2219
     15 C          -5.4485    1.4057   -0.0730 C.ar    1  LIG1        0.0653
     16 C          -4.9898    2.6848    0.2487 C.ar    1  LIG1       -0.0252
     17 C          -5.8306    3.7904    0.1616 C.ar    1  LIG1        0.0438
     18 C          -7.1307    3.5480   -0.2775 C.ar    1  LIG1        0.0520
     19 N          -7.6116    2.3403   -0.5413 N.ar    1  LIG1       -0.2191
     20 H          -3.9706    2.8171    0.5958 H       1  LIG1        0.0645
     21 H          -7.8240    4.3799   -0.4022 H       1  LIG1        0.0849
     22 O          -7.4067    0.1015   -0.6379 O.3     1  LIG1       -0.4919
     23 H          -6.7966   -0.5903   -0.2919 H       1  LIG1        0.2937
     24 N          -5.4123    5.0709    0.5464 N.pl3   1  LIG1       -0.3568
     25 H          -4.4260    5.2447    0.4146 H       1  LIG1        0.1424
     26 H          -5.9657    5.8185    0.1514 H       1  LIG1        0.1424
@<TRIPOS>BOND
     1    13    11    1
     2    12    11    1
     3    11     4    1
     4    22    14    1
     5    22    23    1
     6    19    14   ar
     7    19    18   ar
     8    14    15   ar
     9    21    18    1
    10     7     3    1
    11     4     3   ar
    12     4     5   ar
    13    18    17   ar
    14     3     2   ar
    15    15     5    1
    16    15    16   ar
    17     5     6   ar
    18    26    24    1
    19    17    16   ar
    20    17    24    1
    21     2     8    1
    22     2     1   ar
    23     6     1   ar
    24    16    20    1
    25     1     9    1
    26    25    24    1
    27     9    10    1
