@<TRIPOS>MOLECULE
mol_data/opt/cam/geoms/mol2/6fi4da4al-12ei.out
 52 55 0 0 0
SMALL
GASTEIGER

@<TRIPOS>ATOM
      1 C          -4.4431   -2.0872   -0.6391 C.ar    1  LIG1        0.2128
      2 C          -3.1033   -2.2412   -0.2702 C.ar    1  LIG1        0.0001
      3 C          -2.4510   -1.1355    0.2346 C.ar    1  LIG1       -0.0518
      4 C          -3.0981    0.0980    0.3492 C.ar    1  LIG1       -0.0242
      5 C          -4.4267    0.1358   -0.0891 C.ar    1  LIG1        0.0789
      6 N          -5.0823   -0.9397   -0.5469 N.ar    1  LIG1       -0.2127
      7 H          -1.4186   -1.2239    0.5603 H       1  LIG1        0.0622
      8 H          -2.6004   -3.1990   -0.3598 H       1  LIG1        0.0671
      9 O          -5.1852   -3.1155   -1.1123 O.3     1  LIG1       -0.4924
     10 H          -4.6395   -3.9093   -1.1562 H       1  LIG1        0.2937
     11 C          -2.3713    1.2703    0.9537 C.3     1  LIG1       -0.0377
     12 H          -3.0584    1.9727    1.4291 H       1  LIG1        0.0278
     13 H          -1.8042    1.8232    0.2001 H       1  LIG1        0.0278
     14 H          -1.6670    0.9258    1.7149 H       1  LIG1        0.0278
     15 C          -4.9379    2.5642   -0.6829 C.ar    1  LIG1        0.0615
     16 C          -5.7789    3.6776   -0.6096 C.ar    1  LIG1       -0.0360
     17 C          -5.2696    1.3662   -0.0317 C.ar    1  LIG1        0.0181
     18 C          -6.9701    3.6310    0.1091 C.ar    1  LIG1       -0.0165
     19 H          -5.5054    4.5760   -1.1507 H       1  LIG1        0.0637
     20 C          -6.4804    1.3205    0.6576 C.ar    1  LIG1       -0.0507
     21 C          -7.3087    2.4274    0.7367 C.ar    1  LIG1       -0.0533
     22 H          -6.7640    0.3916    1.1387 H       1  LIG1        0.0625
     23 N          -2.8133    2.7887   -2.1528 N.1     1  LIG1       -0.1908
     24 C          -3.7573    2.6708   -1.4946 C.1     1  LIG1        0.0998
     25 H          -8.2273    2.3657    1.3104 H       1  LIG1        0.0624
     26 C          -7.3234    6.1070    0.2880 C.ar    1  LIG1       -0.0531
     27 C          -8.1580    7.2072    0.3837 C.ar    1  LIG1       -0.0469
     28 C          -7.8531    4.8178    0.1941 C.ar    1  LIG1       -0.0144
     29 C          -9.5509    7.0742    0.3787 C.ar    1  LIG1        0.0601
     30 H          -7.7282    8.1963    0.4855 H       1  LIG1        0.0626
     31 C          -9.2407    4.6769    0.1781 C.ar    1  LIG1       -0.0115
     32 C         -10.0822    5.7773    0.2624 C.ar    1  LIG1        0.1313
     33 H          -9.7039    3.7023    0.0730 H       1  LIG1        0.0660
     34 H          -6.2490    6.2489    0.3295 H       1  LIG1        0.0624
     35 O         -11.4296    5.5365    0.2492 O.3     1  LIG1       -0.4944
     36 C         -12.1001    5.9010   -0.9481 C.3     1  LIG1        0.0788
     37 H         -13.1481    5.6353   -0.8079 H       1  LIG1        0.0660
     38 H         -12.0280    6.9749   -1.1466 H       1  LIG1        0.0660
     39 H         -11.6968    5.3490   -1.8050 H       1  LIG1        0.0660
     40 C         -10.3859    8.2663    0.5100 C.ar    1  LIG1        0.1538
     41 C         -10.2074    9.5720    0.1183 C.ar    1  LIG1        0.0733
     42 C         -11.3732   10.3002    0.5568 C.ar    1  LIG1        0.0033
     43 C         -12.1534    9.3822    1.1704 C.ar    1  LIG1        0.0967
     44 O         -11.5743    8.1533    1.1505 O.2     1  LIG1       -0.4613
     45 H         -13.1143    9.4425    1.6568 H       1  LIG1        0.1032
     46 C          -9.1193   10.1313   -0.6033 C.1     1  LIG1       -0.0656
     47 C          -8.2153   10.6431   -1.2134 C.1     1  LIG1       -0.1138
     48 H          -7.4154   11.0865   -1.7603 H       1  LIG1        0.1232
     49 C         -11.6328   11.7556    0.3547 C.3     1  LIG1       -0.0355
     50 H         -12.5937   12.0470    0.7837 H       1  LIG1        0.0279
     51 H         -11.6432   12.0097   -0.7091 H       1  LIG1        0.0279
     52 H         -10.8526   12.3628    0.8225 H       1  LIG1        0.0279
@<TRIPOS>BOND
     1    23    24    3
     2    39    36    1
     3    48    47    1
     4    24    15    1
     5    47    46    3
     6    10     9    1
     7    19    16    1
     8    38    36    1
     9     9     1    1
    10    36    37    1
    11    36    35    1
    12    51    49    1
    13    15    16   ar
    14    15    17   ar
    15     1     6   ar
    16     1     2   ar
    17    16    18   ar
    18    46    41    1
    19     6     5   ar
    20     8     2    1
    21     2     3   ar
    22     5    17    1
    23     5     4   ar
    24    17    20   ar
    25    33    31    1
    26    18    28    1
    27    18    21   ar
    28    41    40   ar
    29    41    42   ar
    30    31    28   ar
    31    31    32   ar
    32    28    26   ar
    33    13    11    1
    34     3     4   ar
    35     3     7    1
    36    35    32    1
    37    32    29   ar
    38    26    34    1
    39    26    27   ar
    40     4    11    1
    41    49    42    1
    42    49    50    1
    43    49    52    1
    44    29    27   ar
    45    29    40    1
    46    27    30    1
    47    40    44   ar
    48    42    43   ar
    49    20    21   ar
    50    20    22    1
    51    21    25    1
    52    11    12    1
    53    11    14    1
    54    44    43   ar
    55    43    45    1
