@<TRIPOS>MOLECULE
mol_data/opt/cam/geoms/mol2/6fi6fi6fi6fi-.out
 54 57 0 0 0
SMALL
GASTEIGER

@<TRIPOS>ATOM
      1 C          -4.2097   -2.0140   -1.1644 C.ar    1  LIG1        0.2128
      2 C          -3.0907   -2.3211   -0.3939 C.ar    1  LIG1        0.0001
      3 C          -2.6907   -1.3743    0.5284 C.ar    1  LIG1       -0.0518
      4 C          -3.3393   -0.1457    0.6672 C.ar    1  LIG1       -0.0241
      5 C          -4.4170    0.0966   -0.2060 C.ar    1  LIG1        0.0828
      6 N          -4.8308   -0.8554   -1.0679 N.ar    1  LIG1       -0.2126
      7 H          -1.8516   -1.5956    1.1814 H       1  LIG1        0.0622
      8 H          -2.5783   -3.2722   -0.4902 H       1  LIG1        0.0671
      9 O          -4.7507   -2.8663   -2.0585 O.3     1  LIG1       -0.4924
     10 H          -4.2600   -3.6967   -2.0558 H       1  LIG1        0.2937
     11 C          -2.8808    0.7785    1.7663 C.3     1  LIG1       -0.0377
     12 H          -3.7193    1.2780    2.2554 H       1  LIG1        0.0278
     13 H          -2.1952    1.5533    1.4081 H       1  LIG1        0.0278
     14 H          -2.3445    0.2069    2.5269 H       1  LIG1        0.0278
     15 C          -6.5549    1.3387   -0.7389 C.ar    1  LIG1        0.2223
     16 C          -5.2187    1.3415   -0.2586 C.ar    1  LIG1        0.0623
     17 C          -4.7450    2.5852    0.1463 C.ar    1  LIG1       -0.0425
     18 C          -5.5088    3.7489    0.1424 C.ar    1  LIG1       -0.0234
     19 C          -6.8356    3.6260   -0.3143 C.ar    1  LIG1        0.0828
     20 N          -7.3009    2.4316   -0.7215 N.ar    1  LIG1       -0.2120
     21 H          -3.7202    2.6724    0.4801 H       1  LIG1        0.0629
     22 O          -7.1523    0.2598   -1.2254 O.3     1  LIG1       -0.4919
     23 H          -6.4409   -0.4200   -1.3609 H       1  LIG1        0.2937
     24 C          -4.8776    5.0068    0.6841 C.3     1  LIG1       -0.0377
     25 H          -5.5671    5.5691    1.3171 H       1  LIG1        0.0278
     26 H          -4.5298    5.6806   -0.1055 H       1  LIG1        0.0278
     27 H          -4.0052    4.7505    1.2897 H       1  LIG1        0.0278
     28 C          -9.2323    4.4464   -0.3401 C.ar    1  LIG1        0.2223
     29 C          -7.8338    4.7191   -0.3790 C.ar    1  LIG1        0.0623
     30 C          -7.4906    6.0648   -0.4874 C.ar    1  LIG1       -0.0425
     31 C          -8.4319    7.0877   -0.4942 C.ar    1  LIG1       -0.0234
     32 C          -9.7711    6.6900   -0.3842 C.ar    1  LIG1        0.0828
     33 N         -10.1406    5.4108   -0.3028 N.ar    1  LIG1       -0.2120
     34 H          -6.4504    6.3436   -0.5819 H       1  LIG1        0.0629
     35 O          -9.7222    3.2116   -0.3309 O.3     1  LIG1       -0.4919
     36 H          -8.9680    2.6063   -0.5589 H       1  LIG1        0.2937
     37 C          -7.9880    8.5239   -0.5615 C.3     1  LIG1       -0.0377
     38 H          -8.5641    9.1512    0.1242 H       1  LIG1        0.0278
     39 H          -8.1222    8.9391   -1.5623 H       1  LIG1        0.0278
     40 H          -6.9336    8.6110   -0.2876 H       1  LIG1        0.0278
     41 C         -11.1628    8.6630   -1.2282 C.ar    1  LIG1        0.2217
     42 C         -10.9007    7.6551   -0.2869 C.ar    1  LIG1        0.0623
     43 C         -11.8201    7.5334    0.7447 C.ar    1  LIG1       -0.0431
     44 C         -12.9026    8.4065    0.8653 C.ar    1  LIG1       -0.0315
     45 C         -13.0160    9.3833   -0.1125 C.ar    1  LIG1        0.0343
     46 N         -12.1756    9.5067   -1.1426 N.ar    1  LIG1       -0.2206
     47 H         -11.6800    6.7292    1.4607 H       1  LIG1        0.0629
     48 H         -13.8322   10.1022   -0.0771 H       1  LIG1        0.0833
     49 O         -10.3708    8.7817   -2.3174 O.3     1  LIG1       -0.4919
     50 H         -10.7539    9.5063   -2.8342 H       1  LIG1        0.2937
     51 C         -13.8948    8.2905    1.9894 C.3     1  LIG1       -0.0383
     52 H         -13.4108    8.3978    2.9649 H       1  LIG1        0.0278
     53 H         -14.3946    7.3173    1.9801 H       1  LIG1        0.0278
     54 H         -14.6657    9.0611    1.9145 H       1  LIG1        0.0278
@<TRIPOS>BOND
     1    50    49    1
     2    49    41    1
     3     9    10    1
     4     9     1    1
     5    39    37    1
     6    23    22    1
     7    41    46   ar
     8    41    42   ar
     9    22    15    1
    10     1     6   ar
    11     1     2   ar
    12    46    45   ar
    13     6     5   ar
    14    15    20   ar
    15    15    16   ar
    16    20    19   ar
    17    34    30    1
    18    37    31    1
    19    37    40    1
    20    37    38    1
    21    36    35    1
    22    31    30   ar
    23    31    32   ar
    24     8     2    1
    25    30    29   ar
    26     2     3   ar
    27    32    33   ar
    28    32    42    1
    29    29    28   ar
    30    29    19    1
    31    28    35    1
    32    28    33   ar
    33    19    18   ar
    34    42    43   ar
    35    16     5    1
    36    16    17   ar
    37     5     4   ar
    38    45    48    1
    39    45    44   ar
    40    26    24    1
    41    18    17   ar
    42    18    24    1
    43    17    21    1
    44     3     4   ar
    45     3     7    1
    46     4    11    1
    47    24    27    1
    48    24    25    1
    49    43    44   ar
    50    43    47    1
    51    44    51    1
    52    13    11    1
    53    11    12    1
    54    11    14    1
    55    54    51    1
    56    53    51    1
    57    51    52    1
