@<TRIPOS>MOLECULE
mol_data/opt/cam/geoms/mol2/6fi6fi-6fi.out
 41 43 0 0 0
SMALL
GASTEIGER

@<TRIPOS>ATOM
      1 C          -4.5264   -2.1223   -0.5804 C.ar    1  LIG1        0.2128
      2 C          -3.1670   -2.2558   -0.2902 C.ar    1  LIG1        0.0001
      3 C          -2.4809   -1.1156    0.0805 C.ar    1  LIG1       -0.0518
      4 C          -3.1174    0.1249    0.1384 C.ar    1  LIG1       -0.0241
      5 C          -4.4733    0.1392   -0.2149 C.ar    1  LIG1        0.0828
      6 N          -5.1568   -0.9656   -0.5426 N.ar    1  LIG1       -0.2126
      7 H          -1.4296   -1.1850    0.3446 H       1  LIG1        0.0622
      8 H          -2.6722   -3.2210   -0.3355 H       1  LIG1        0.0671
      9 O          -5.3016   -3.1799   -0.9199 O.3     1  LIG1       -0.4924
     10 H          -4.7632   -3.9799   -0.9260 H       1  LIG1        0.2937
     11 C          -2.3652    1.3429    0.6000 C.3     1  LIG1       -0.0377
     12 H          -2.9871    1.9791    1.2350 H       1  LIG1        0.0278
     13 H          -2.0389    1.9534   -0.2445 H       1  LIG1        0.0278
     14 H          -1.4850    1.0509    1.1774 H       1  LIG1        0.0278
     15 C          -4.9933    2.5499   -0.8873 C.ar    1  LIG1        0.2223
     16 C          -5.3050    1.3731   -0.1914 C.ar    1  LIG1        0.0623
     17 C          -6.5116    1.3833    0.4913 C.ar    1  LIG1       -0.0425
     18 C          -7.3431    2.5046    0.5204 C.ar    1  LIG1       -0.0234
     19 C          -6.9144    3.6189   -0.2130 C.ar    1  LIG1        0.0828
     20 N          -5.7583    3.6254   -0.8938 N.ar    1  LIG1       -0.2120
     21 H          -6.8030    0.4842    1.0247 H       1  LIG1        0.0629
     22 O          -3.8702    2.6070   -1.6344 O.3     1  LIG1       -0.4919
     23 H          -3.8792    3.4821   -2.0508 H       1  LIG1        0.2937
     24 C          -8.5987    2.5103    1.3552 C.3     1  LIG1       -0.0377
     25 H          -8.6395    1.6206    1.9863 H       1  LIG1        0.0278
     26 H          -9.5057    2.5320    0.7455 H       1  LIG1        0.0278
     27 H          -8.6337    3.3890    2.0047 H       1  LIG1        0.0278
     28 C          -9.0030    4.9384   -0.7909 C.ar    1  LIG1        0.2217
     29 C          -7.6975    4.8832   -0.2674 C.ar    1  LIG1        0.0623
     30 C          -7.1426    6.0806    0.1600 C.ar    1  LIG1       -0.0431
     31 C          -7.8773    7.2644    0.1241 C.ar    1  LIG1       -0.0315
     32 C          -9.1727    7.1651   -0.3696 C.ar    1  LIG1        0.0343
     33 N          -9.7238    6.0421   -0.8273 N.ar    1  LIG1       -0.2206
     34 H          -6.1226    6.0772    0.5339 H       1  LIG1        0.0629
     35 H          -9.8054    8.0505   -0.4079 H       1  LIG1        0.0833
     36 O          -9.6128    3.8465   -1.3127 O.3     1  LIG1       -0.4919
     37 H          -8.9711    3.1266   -1.3777 H       1  LIG1        0.2937
     38 C          -7.3064    8.5738    0.5943 C.3     1  LIG1       -0.0383
     39 H          -8.0487    9.3721    0.5245 H       1  LIG1        0.0278
     40 H          -6.4413    8.8723   -0.0059 H       1  LIG1        0.0278
     41 H          -6.9757    8.5173    1.6358 H       1  LIG1        0.0278
@<TRIPOS>BOND
     1    23    22    1
     2    22    15    1
     3    37    36    1
     4    36    28    1
     5    10     9    1
     6     9     1    1
     7    20    15   ar
     8    20    19   ar
     9    15    16   ar
    10    33    28   ar
    11    33    32   ar
    12    28    29   ar
    13     1     6   ar
    14     1     2   ar
    15     6     5   ar
    16    35    32    1
    17    32    31   ar
    18     8     2    1
    19     2     3   ar
    20    29    19    1
    21    29    30   ar
    22    13    11    1
    23     5    16    1
    24     5     4   ar
    25    19    18   ar
    26    16    17   ar
    27    40    38    1
    28     3     4   ar
    29     3     7    1
    30    31    30   ar
    31    31    38    1
    32     4    11    1
    33    30    34    1
    34    17    18   ar
    35    17    21    1
    36    18    24    1
    37    39    38    1
    38    38    41    1
    39    11    14    1
    40    11    12    1
    41    26    24    1
    42    24    25    1
    43    24    27    1
