@<TRIPOS>MOLECULE
mol_data/opt/cam/geoms/mol2/6fi6fi-6fi6fi-.out
 54 57 0 0 0
SMALL
GASTEIGER

@<TRIPOS>ATOM
      1 C          -4.4954   -2.1540   -0.8175 C.ar    1  LIG1        0.2128
      2 C          -3.1652   -2.3448   -0.4377 C.ar    1  LIG1        0.0001
      3 C          -2.4883   -1.2558    0.0762 C.ar    1  LIG1       -0.0518
      4 C          -3.1036   -0.0083    0.1878 C.ar    1  LIG1       -0.0241
      5 C          -4.4275    0.0688   -0.2648 C.ar    1  LIG1        0.0828
      6 N          -5.1046   -0.9885   -0.7326 N.ar    1  LIG1       -0.2126
      7 H          -1.4621   -1.3728    0.4124 H       1  LIG1        0.0622
      8 H          -2.6869   -3.3154   -0.5247 H       1  LIG1        0.0671
      9 O          -5.2622   -3.1611   -1.3000 O.3     1  LIG1       -0.4924
     10 H          -4.7403   -3.9712   -1.3312 H       1  LIG1        0.2937
     11 C          -2.3665    1.1488    0.8045 C.3     1  LIG1       -0.0377
     12 H          -3.0240    1.7474    1.4402 H       1  LIG1        0.0278
     13 H          -1.9632    1.8171    0.0409 H       1  LIG1        0.0278
     14 H          -1.5403    0.7886    1.4218 H       1  LIG1        0.0278
     15 C          -4.8468    2.5388   -0.7730 C.ar    1  LIG1        0.2223
     16 C          -5.2346    1.3176   -0.2032 C.ar    1  LIG1        0.0623
     17 C          -6.4907    1.3032    0.3833 C.ar    1  LIG1       -0.0425
     18 C          -7.3003    2.4394    0.4412 C.ar    1  LIG1       -0.0234
     19 C          -6.7945    3.5983   -0.1629 C.ar    1  LIG1        0.0828
     20 N          -5.5884    3.6303   -0.7493 N.ar    1  LIG1       -0.2120
     21 H          -6.8402    0.3716    0.8168 H       1  LIG1        0.0629
     22 O          -3.6678    2.6281   -1.4244 O.3     1  LIG1       -0.4919
     23 H          -3.6275    3.5344   -1.7657 H       1  LIG1        0.2937
     24 C          -8.6156    2.4096    1.1777 C.3     1  LIG1       -0.0377
     25 H          -8.7229    1.4718    1.7259 H       1  LIG1        0.0278
     26 H          -9.4734    2.5069    0.5072 H       1  LIG1        0.0278
     27 H          -8.6808    3.2316    1.8956 H       1  LIG1        0.0278
     28 C          -8.8014    5.0164   -0.7929 C.ar    1  LIG1        0.2223
     29 C          -7.5476    4.8811   -0.1765 C.ar    1  LIG1        0.0623
     30 C          -7.0224    6.0258    0.4048 C.ar    1  LIG1       -0.0425
     31 C          -7.7152    7.2336    0.4110 C.ar    1  LIG1       -0.0234
     32 C          -8.9622    7.2347   -0.2300 C.ar    1  LIG1        0.0828
     33 N          -9.4827    6.1435   -0.8043 N.ar    1  LIG1       -0.2120
     34 H          -6.0513    5.9627    0.8869 H       1  LIG1        0.0629
     35 O          -9.4035    3.9864   -1.4373 O.3     1  LIG1       -0.4919
     36 H          -8.7787    3.2524   -1.5088 H       1  LIG1        0.2937
     37 C          -7.1439    8.4309    1.1199 C.3     1  LIG1       -0.0377
     38 H          -7.9192    8.9812    1.6594 H       1  LIG1        0.0278
     39 H          -6.6871    9.1290    0.4155 H       1  LIG1        0.0278
     40 H          -6.3862    8.1202    1.8428 H       1  LIG1        0.0278
     41 C          -9.4593    9.6788   -0.7814 C.ar    1  LIG1        0.2217
     42 C          -9.8503    8.4280   -0.2777 C.ar    1  LIG1        0.0623
     43 C         -11.1757    8.3190    0.1171 C.ar    1  LIG1       -0.0431
     44 C         -12.0450    9.4101    0.0671 C.ar    1  LIG1       -0.0315
     45 C         -11.5140   10.5968   -0.4159 C.ar    1  LIG1        0.0343
     46 N         -10.2553   10.7312   -0.8404 N.ar    1  LIG1       -0.2206
     47 H         -11.5280    7.3525    0.4648 H       1  LIG1        0.0629
     48 H         -12.1331   11.4895   -0.4769 H       1  LIG1        0.0833
     49 O          -8.2108    9.8386   -1.2740 O.3     1  LIG1       -0.4919
     50 H          -8.1753   10.7538   -1.5906 H       1  LIG1        0.2937
     51 C         -13.4789    9.3042    0.5076 C.3     1  LIG1       -0.0383
     52 H         -13.5551    9.0161    1.5605 H       1  LIG1        0.0278
     53 H         -14.0198    8.5526   -0.0750 H       1  LIG1        0.0278
     54 H         -13.9990   10.2571    0.3856 H       1  LIG1        0.0278
@<TRIPOS>BOND
     1    23    22    1
     2    50    49    1
     3    36    35    1
     4    35    28    1
     5    22    15    1
     6    10     9    1
     7     9     1    1
     8    49    41    1
     9    46    41   ar
    10    46    45   ar
    11     1     6   ar
    12     1     2   ar
    13    33    28   ar
    14    33    32   ar
    15    28    29   ar
    16    41    42   ar
    17    15    20   ar
    18    15    16   ar
    19    20    19   ar
    20     6     5   ar
    21     8     2    1
    22    48    45    1
    23     2     3   ar
    24    45    44   ar
    25    42    32    1
    26    42    43   ar
    27     5    16    1
    28     5     4   ar
    29    32    31   ar
    30    16    17   ar
    31    29    19    1
    32    29    30   ar
    33    19    18   ar
    34    53    51    1
    35    13    11    1
    36    44    43   ar
    37    44    51    1
    38     3     4   ar
    39     3     7    1
    40    43    47    1
    41     4    11    1
    42    17    18   ar
    43    17    21    1
    44    54    51    1
    45    30    31   ar
    46    30    34    1
    47    31    37    1
    48    39    37    1
    49    18    24    1
    50    26    24    1
    51    51    52    1
    52    11    14    1
    53    11    12    1
    54    37    38    1
    55    37    40    1
    56    24    25    1
    57    24    27    1
