@<TRIPOS>MOLECULE
mol_data/opt/cam/geoms/mol2/6fi6fi6fi-6fi-.out
 54 57 0 0 0
SMALL
GASTEIGER

@<TRIPOS>ATOM
      1 C          -4.4521   -2.1388   -0.9551 C.ar    1  LIG1        0.2128
      2 C          -3.1894   -2.3669   -0.4135 C.ar    1  LIG1        0.0001
      3 C          -2.6080   -1.3191    0.2737 C.ar    1  LIG1       -0.0518
      4 C          -3.2248   -0.0726    0.3923 C.ar    1  LIG1       -0.0241
      5 C          -4.4691    0.0768   -0.2509 C.ar    1  LIG1        0.0828
      6 N          -5.0509   -0.9678   -0.8746 N.ar    1  LIG1       -0.2126
      7 H          -1.6451   -1.4713    0.7529 H       1  LIG1        0.0622
      8 H          -2.7006   -3.3317   -0.4976 H       1  LIG1        0.0671
      9 O          -5.1641   -3.0905   -1.5956 O.3     1  LIG1       -0.4924
     10 H          -4.6709   -3.9193   -1.5942 H       1  LIG1        0.2937
     11 C          -2.5521    0.9765    1.2408 C.3     1  LIG1       -0.0377
     12 H          -3.2749    1.5708    1.8025 H       1  LIG1        0.0278
     13 H          -1.9427    1.6688    0.6511 H       1  LIG1        0.0278
     14 H          -1.8832    0.4957    1.9583 H       1  LIG1        0.0278
     15 C          -6.6855    1.2978   -0.3997 C.ar    1  LIG1        0.2223
     16 C          -5.2680    1.3249   -0.2823 C.ar    1  LIG1        0.0623
     17 C          -4.6957    2.5920   -0.2129 C.ar    1  LIG1       -0.0425
     18 C          -5.4490    3.7606   -0.1954 C.ar    1  LIG1       -0.0234
     19 C          -6.8394    3.5948   -0.2546 C.ar    1  LIG1        0.0828
     20 N          -7.4217    2.3967   -0.3450 N.ar    1  LIG1       -0.2120
     21 H          -3.6183    2.6873   -0.1796 H       1  LIG1        0.0629
     22 O          -7.3705    0.1674   -0.5646 O.3     1  LIG1       -0.4919
     23 H          -6.7130   -0.5315   -0.8017 H       1  LIG1        0.2937
     24 C          -4.7704    5.0971   -0.0649 C.3     1  LIG1       -0.0377
     25 H          -5.3116    5.7529    0.6223 H       1  LIG1        0.0278
     26 H          -4.7180    5.6153   -1.0244 H       1  LIG1        0.0278
     27 H          -3.7551    4.9739    0.3199 H       1  LIG1        0.0278
     28 C          -7.7843    5.8497   -1.0069 C.ar    1  LIG1        0.2223
     29 C          -7.7980    4.7291   -0.1653 C.ar    1  LIG1        0.0623
     30 C          -8.8366    4.6844    0.7527 C.ar    1  LIG1       -0.0425
     31 C          -9.7716    5.7129    0.8691 C.ar    1  LIG1       -0.0234
     32 C          -9.6241    6.7906   -0.0080 C.ar    1  LIG1        0.0828
     33 N          -8.6517    6.8398   -0.9268 N.ar    1  LIG1       -0.2120
     34 H          -8.9085    3.8143    1.3978 H       1  LIG1        0.0629
     35 O          -6.8646    5.9363   -1.9937 O.3     1  LIG1       -0.4919
     36 H          -7.0563    6.7705   -2.4483 H       1  LIG1        0.2937
     37 C         -10.8620    5.6398    1.9063 C.3     1  LIG1       -0.0377
     38 H         -10.5714    4.9698    2.7184 H       1  LIG1        0.0278
     39 H         -11.7982    5.2548    1.4890 H       1  LIG1        0.0278
     40 H         -11.0780    6.6205    2.3349 H       1  LIG1        0.0278
     41 C         -10.1104    9.2538    0.2831 C.ar    1  LIG1        0.2217
     42 C         -10.5565    7.9514   -0.0038 C.ar    1  LIG1        0.0623
     43 C         -11.8988    7.8174   -0.3130 C.ar    1  LIG1       -0.0431
     44 C         -12.7537    8.9245   -0.3461 C.ar    1  LIG1       -0.0315
     45 C         -12.1804   10.1503   -0.0505 C.ar    1  LIG1        0.0343
     46 N         -10.8913   10.3178    0.2616 N.ar    1  LIG1       -0.2206
     47 H         -12.2872    6.8302   -0.5492 H       1  LIG1        0.0629
     48 H         -12.7862   11.0542   -0.0618 H       1  LIG1        0.0833
     49 O          -8.8208    9.4445    0.6226 O.3     1  LIG1       -0.4919
     50 H          -8.7327   10.3959    0.7820 H       1  LIG1        0.2937
     51 C         -14.2110    8.7916   -0.6924 C.3     1  LIG1       -0.0383
     52 H         -14.7309    8.1286    0.0060 H       1  LIG1        0.0278
     53 H         -14.3481    8.3779   -1.6961 H       1  LIG1        0.0278
     54 H         -14.7113    9.7622   -0.6628 H       1  LIG1        0.0278
@<TRIPOS>BOND
     1    36    35    1
     2    35    28    1
     3    53    51    1
     4     9    10    1
     5     9     1    1
     6    26    24    1
     7    28    33   ar
     8    28    29   ar
     9     1     6   ar
    10     1     2   ar
    11    33    32   ar
    12     6     5   ar
    13    23    22    1
    14    51    54    1
    15    51    44    1
    16    51    52    1
    17    22    15    1
    18    47    43    1
    19     8     2    1
    20     2     3   ar
    21    15    20   ar
    22    15    16   ar
    23    44    43   ar
    24    44    45   ar
    25    20    19   ar
    26    43    42   ar
    27    16     5    1
    28    16    17   ar
    29    19    18   ar
    30    19    29    1
    31     5     4   ar
    32    17    18   ar
    33    17    21    1
    34    18    24    1
    35    29    30   ar
    36    24    27    1
    37    24    25    1
    38    48    45    1
    39    45    46   ar
    40    32    42    1
    41    32    31   ar
    42    42    41   ar
    43    46    41   ar
    44     3     4   ar
    45     3     7    1
    46    41    49    1
    47     4    11    1
    48    49    50    1
    49    13    11    1
    50    30    31   ar
    51    30    34    1
    52    31    37    1
    53    11    12    1
    54    11    14    1
    55    39    37    1
    56    37    40    1
    57    37    38    1
