@<TRIPOS>MOLECULE
mol_data/opt/cam/geoms/mol2/6fi6fi6fi.out
 41 43 0 0 0
SMALL
GASTEIGER

@<TRIPOS>ATOM
      1 C          -4.5204   -2.1289   -0.6635 C.ar    1  LIG1        0.2128
      2 C          -3.1707   -2.2880   -0.3584 C.ar    1  LIG1        0.0001
      3 C          -2.5067   -1.1783    0.1258 C.ar    1  LIG1       -0.0518
      4 C          -3.1311    0.0623    0.2703 C.ar    1  LIG1       -0.0241
      5 C          -4.4789    0.1361   -0.1304 C.ar    1  LIG1        0.0828
      6 N          -5.1312   -0.9660   -0.5543 N.ar    1  LIG1       -0.2126
      7 H          -1.4656   -1.2733    0.4202 H       1  LIG1        0.0622
      8 H          -2.6734   -3.2461   -0.4641 H       1  LIG1        0.0671
      9 O          -5.3093   -3.1381   -1.0846 O.3     1  LIG1       -0.4924
     10 H          -4.8024   -3.9581   -1.1147 H       1  LIG1        0.2937
     11 C          -2.3419    1.1850    0.8941 C.3     1  LIG1       -0.0377
     12 H          -2.9519    1.7860    1.5712 H       1  LIG1        0.0278
     13 H          -1.9074    1.8601    0.1498 H       1  LIG1        0.0278
     14 H          -1.5115    0.7732    1.4718 H       1  LIG1        0.0278
     15 C          -6.7351    1.2724    0.0006 C.ar    1  LIG1        0.2223
     16 C          -5.3207    1.3554   -0.0996 C.ar    1  LIG1        0.0623
     17 C          -4.8125    2.6485   -0.1638 C.ar    1  LIG1       -0.0425
     18 C          -5.5959    3.7970   -0.0887 C.ar    1  LIG1       -0.0234
     19 C          -6.9828    3.6005    0.0503 C.ar    1  LIG1        0.0828
     20 N          -7.4886    2.3559    0.1009 N.ar    1  LIG1       -0.2120
     21 H          -3.7472    2.7880   -0.2863 H       1  LIG1        0.0629
     22 O          -7.3990    0.1251    0.0100 O.3     1  LIG1       -0.4919
     23 H          -6.7521   -0.5780   -0.2617 H       1  LIG1        0.2937
     24 C          -4.8949    5.1322   -0.0918 C.3     1  LIG1       -0.0377
     25 H          -5.3417    5.8279    0.6214 H       1  LIG1        0.0278
     26 H          -4.9058    5.6150   -1.0744 H       1  LIG1        0.0278
     27 H          -3.8464    4.9997    0.1851 H       1  LIG1        0.0278
     28 C          -9.2357    4.4472    0.8461 C.ar    1  LIG1        0.2217
     29 C          -7.9955    4.6761    0.1753 C.ar    1  LIG1        0.0623
     30 C          -7.8182    5.9479   -0.3649 C.ar    1  LIG1       -0.0431
     31 C          -8.7552    6.9601   -0.1841 C.ar    1  LIG1       -0.0315
     32 C          -9.8673    6.6278    0.5805 C.ar    1  LIG1        0.0343
     33 N         -10.1125    5.4182    1.0694 N.ar    1  LIG1       -0.2206
     34 H          -6.9403    6.1581   -0.9619 H       1  LIG1        0.0629
     35 H         -10.6189    7.3866    0.7970 H       1  LIG1        0.0833
     36 O          -9.5926    3.2489    1.2944 O.3     1  LIG1       -0.4919
     37 H          -8.9599    2.5949    0.8976 H       1  LIG1        0.2937
     38 C          -8.5788    8.3301   -0.7794 C.3     1  LIG1       -0.0383
     39 H          -9.3469    9.0156   -0.4137 H       1  LIG1        0.0278
     40 H          -8.6520    8.3087   -1.8718 H       1  LIG1        0.0278
     41 H          -7.6044    8.7595   -0.5271 H       1  LIG1        0.0278
@<TRIPOS>BOND
     1    40    38    1
     2    10     9    1
     3     9     1    1
     4    26    24    1
     5    34    30    1
     6    38    41    1
     7    38    39    1
     8    38    31    1
     9     1     6   ar
    10     1     2   ar
    11     6     5   ar
    12     8     2    1
    13    30    31   ar
    14    30    29   ar
    15     2     3   ar
    16    21    17    1
    17    23    22    1
    18    31    32   ar
    19    17    16   ar
    20    17    18   ar
    21     5    16    1
    22     5     4   ar
    23    16    15   ar
    24    24    18    1
    25    24    27    1
    26    24    25    1
    27    18    19   ar
    28    15    22    1
    29    15    20   ar
    30    19    20   ar
    31    19    29    1
    32     3     4   ar
    33     3     7    1
    34    13    11    1
    35    29    28   ar
    36     4    11    1
    37    32    35    1
    38    32    33   ar
    39    28    33   ar
    40    28    36    1
    41    11    14    1
    42    11    12    1
    43    37    36    1
