@<TRIPOS>MOLECULE
mol_data/opt/cam/geoms/mol2/6fi6al-12ll-4ff-.out
 55 58 0 0 0
SMALL
GASTEIGER

@<TRIPOS>ATOM
      1 C          -4.5891   -2.2988   -0.1067 C.ar    1  LIG1        0.2128
      2 C          -3.2295   -2.4699    0.1659 C.ar    1  LIG1        0.0001
      3 C          -2.4991   -1.3385    0.4693 C.ar    1  LIG1       -0.0518
      4 C          -3.0893   -0.0733    0.4803 C.ar    1  LIG1       -0.0242
      5 C          -4.4551   -0.0218    0.1581 C.ar    1  LIG1        0.0792
      6 N          -5.1756   -1.1201   -0.1105 N.ar    1  LIG1       -0.2127
      7 H          -1.4456   -1.4329    0.7171 H       1  LIG1        0.0622
      8 H          -2.7694   -3.4529    0.1570 H       1  LIG1        0.0671
      9 O          -5.4059   -3.3404   -0.3882 O.3     1  LIG1       -0.4924
     10 H          -4.8999   -4.1607   -0.3564 H       1  LIG1        0.2937
     11 C          -2.2613    1.1240    0.8725 C.3     1  LIG1       -0.0377
     12 H          -2.8489    1.8642    1.4182 H       1  LIG1        0.0278
     13 H          -1.8220    1.6286    0.0051 H       1  LIG1        0.0278
     14 H          -1.4323    0.8136    1.5131 H       1  LIG1        0.0278
     15 C          -6.5442    1.2525    0.6189 C.ar    1  LIG1        0.0378
     16 C          -5.2416    1.2390    0.1205 C.ar    1  LIG1        0.0223
     17 C          -4.7609    2.4220   -0.4414 C.ar    1  LIG1       -0.0071
     18 C          -5.5721    3.5480   -0.4645 C.ar    1  LIG1        0.1497
     19 C          -6.8554    3.4746    0.1143 C.ar    1  LIG1        0.1512
     20 N          -7.3158    2.3315    0.6279 N.ar    1  LIG1       -0.2474
     21 H          -3.7806    2.4468   -0.8970 H       1  LIG1        0.0662
     22 H          -6.9676    0.3414    1.0292 H       1  LIG1        0.0836
     23 O          -5.2247    4.7287   -1.0304 O.3     1  LIG1       -0.4928
     24 C          -3.9649    4.8353   -1.6559 C.3     1  LIG1        0.0789
     25 H          -3.9044    5.8546   -2.0350 H       1  LIG1        0.0660
     26 H          -3.1451    4.6653   -0.9475 H       1  LIG1        0.0660
     27 H          -3.8685    4.1316   -2.4910 H       1  LIG1        0.0660
     28 C          -7.7700    4.6165    0.1269 C.ar    1  LIG1        0.2026
     29 C          -7.6568    5.9804    0.2154 C.ar    1  LIG1        0.2102
     30 C          -8.9865    6.5116    0.1862 C.ar    1  LIG1        0.2087
     31 C          -9.8341    5.4418    0.1088 C.ar    1  LIG1        0.1846
     32 O          -9.0945    4.2989    0.0833 O.2     1  LIG1       -0.4454
     33 O          -6.5625    6.7781    0.3267 O.3     1  LIG1       -0.4884
     34 C          -5.7560    6.5445    1.4701 C.3     1  LIG1        0.0791
     35 H          -5.0037    7.3345    1.4845 H       1  LIG1        0.0660
     36 H          -6.3532    6.5940    2.3867 H       1  LIG1        0.0660
     37 H          -5.2540    5.5740    1.4171 H       1  LIG1        0.0660
     38 O          -9.3179    7.8240    0.2357 O.3     1  LIG1       -0.4884
     39 C          -8.7787    8.6051   -0.8231 C.3     1  LIG1        0.0791
     40 H          -9.1199    9.6273   -0.6539 H       1  LIG1        0.0660
     41 H          -7.6858    8.5778   -0.8221 H       1  LIG1        0.0660
     42 H          -9.1509    8.2568   -1.7938 H       1  LIG1        0.0660
     43 C         -12.1989    6.0906    0.6496 C.ar    1  LIG1        0.1278
     44 C         -13.5637    5.8675    0.4840 C.ar    1  LIG1       -0.0160
     45 C         -11.2791    5.2621   -0.0063 C.ar    1  LIG1        0.0659
     46 C         -14.0320    4.8210   -0.2946 C.ar    1  LIG1       -0.0167
     47 H         -14.2721    6.5169    0.9923 H       1  LIG1        0.0655
     48 C         -11.7640    4.1987   -0.7756 C.ar    1  LIG1       -0.0059
     49 C         -13.1244    3.9726   -0.9200 C.ar    1  LIG1        0.1178
     50 H         -11.0459    3.5449   -1.2613 H       1  LIG1        0.0662
     51 H         -15.0941    4.6442   -0.4176 H       1  LIG1        0.0655
     52 O         -11.7229    7.0727    1.4621 O.3     1  LIG1       -0.5061
     53 H         -12.4649    7.5575    1.8401 H       1  LIG1        0.2922
     54 O         -13.6263    2.9458   -1.6683 O.3     1  LIG1       -0.5067
     55 H         -12.8948    2.4167   -2.0064 H       1  LIG1        0.2921
@<TRIPOS>BOND
     1    27    24    1
     2    25    24    1
     3    55    54    1
     4    42    39    1
     5    54    49    1
     6    24    23    1
     7    24    26    1
     8    50    48    1
     9    23    18    1
    10    49    48   ar
    11    49    46   ar
    12    21    17    1
    13    39    41    1
    14    39    40    1
    15    39    38    1
    16    48    45   ar
    17    18    17   ar
    18    18    19   ar
    19    17    16   ar
    20    51    46    1
    21     9    10    1
    22     9     1    1
    23    46    44   ar
    24     6     1   ar
    25     6     5   ar
    26     1     2   ar
    27    45    31    1
    28    45    43   ar
    29    13    11    1
    30    32    31   ar
    31    32    28   ar
    32    31    30   ar
    33    19    28    1
    34    19    20   ar
    35    16     5    1
    36    16    15   ar
    37    28    29   ar
    38     8     2    1
    39     5     4   ar
    40     2     3   ar
    41    30    29   ar
    42    30    38    1
    43    29    33    1
    44    33    34    1
    45     3     4   ar
    46     3     7    1
    47     4    11    1
    48    44    43   ar
    49    44    47    1
    50    15    20   ar
    51    15    22    1
    52    43    52    1
    53    11    12    1
    54    11    14    1
    55    37    34    1
    56    52    53    1
    57    34    35    1
    58    34    36    1
