@<TRIPOS>MOLECULE
mol_data/opt/cam/geoms/mol2/6fi6fi-6fi-6fi.out
 54 57 0 0 0
SMALL
GASTEIGER

@<TRIPOS>ATOM
      1 C          -4.6711   -2.2890   -0.1334 C.ar    1  LIG1        0.2128
      2 C          -3.2871   -2.4468   -0.2275 C.ar    1  LIG1        0.0001
      3 C          -2.5183   -1.2996   -0.2699 C.ar    1  LIG1       -0.0518
      4 C          -3.1054   -0.0342   -0.2442 C.ar    1  LIG1       -0.0241
      5 C          -4.5057   -0.0041   -0.1907 C.ar    1  LIG1        0.0828
      6 N          -5.2589   -1.1098   -0.1146 N.ar    1  LIG1       -0.2126
      7 H          -1.4359   -1.3811   -0.3107 H       1  LIG1        0.0622
      8 H          -2.8310   -3.4317   -0.2474 H       1  LIG1        0.0671
      9 O          -5.5157   -3.3457   -0.0495 O.3     1  LIG1       -0.4924
     10 H          -5.0040   -4.1626   -0.0736 H       1  LIG1        0.2937
     11 C          -2.2467    1.2006   -0.2318 C.3     1  LIG1       -0.0377
     12 H          -2.6524    1.9619    0.4394 H       1  LIG1        0.0278
     13 H          -2.1823    1.6506   -1.2246 H       1  LIG1        0.0278
     14 H          -1.2363    0.9584    0.1059 H       1  LIG1        0.0278
     15 C          -5.1792    2.2952   -1.0806 C.ar    1  LIG1        0.2223
     16 C          -5.2860    1.2617   -0.1392 C.ar    1  LIG1        0.0623
     17 C          -6.2430    1.4475    0.8465 C.ar    1  LIG1       -0.0425
     18 C          -7.0120    2.6090    0.9286 C.ar    1  LIG1       -0.0234
     19 C          -6.7833    3.5757   -0.0536 C.ar    1  LIG1        0.0828
     20 N          -5.8889    3.4055   -1.0355 N.ar    1  LIG1       -0.2120
     21 H          -6.3839    0.6553    1.5750 H       1  LIG1        0.0629
     22 O          -4.3337    2.1634   -2.1261 O.3     1  LIG1       -0.4919
     23 H          -4.4365    2.9758   -2.6443 H       1  LIG1        0.2937
     24 C          -8.0142    2.7813    2.0404 C.3     1  LIG1       -0.0377
     25 H          -7.7430    2.1606    2.8972 H       1  LIG1        0.0278
     26 H          -9.0220    2.4835    1.7327 H       1  LIG1        0.0278
     27 H          -8.0712    3.8182    2.3773 H       1  LIG1        0.0278
     28 C          -6.8846    6.1016   -0.0004 C.ar    1  LIG1        0.2223
     29 C          -7.5345    4.8596   -0.0993 C.ar    1  LIG1        0.0623
     30 C          -8.9066    4.9103   -0.2641 C.ar    1  LIG1       -0.0425
     31 C          -9.6035    6.1210   -0.3544 C.ar    1  LIG1       -0.0234
     32 C          -8.8344    7.2883   -0.2880 C.ar    1  LIG1        0.0828
     33 N          -7.5050    7.2614   -0.0949 N.ar    1  LIG1       -0.2120
     34 H          -9.4609    3.9782   -0.3256 H       1  LIG1        0.0629
     35 O          -5.5583    6.1324    0.2215 O.3     1  LIG1       -0.4919
     36 H          -5.3178    7.0704    0.2513 H       1  LIG1        0.2937
     37 C         -11.1079    6.1343   -0.4562 C.3     1  LIG1       -0.0377
     38 H         -11.5108    5.1370   -0.2692 H       1  LIG1        0.0278
     39 H         -11.4598    6.4601   -1.4386 H       1  LIG1        0.0278
     40 H         -11.5440    6.8181    0.2766 H       1  LIG1        0.0278
     41 C         -10.1633    9.0718   -1.5104 C.ar    1  LIG1        0.2217
     42 C          -9.4382    8.6449   -0.3820 C.ar    1  LIG1        0.0623
     43 C          -9.2630    9.5703    0.6369 C.ar    1  LIG1       -0.0431
     44 C          -9.8377   10.8375    0.5608 C.ar    1  LIG1       -0.0315
     45 C         -10.5735   11.1073   -0.5873 C.ar    1  LIG1        0.0343
     46 N         -10.7267   10.2604   -1.6038 N.ar    1  LIG1       -0.2206
     47 H          -8.6737    9.2837    1.5033 H       1  LIG1        0.0629
     48 H         -11.0635   12.0731   -0.7001 H       1  LIG1        0.0833
     49 O         -10.3216    8.2826   -2.6010 O.3     1  LIG1       -0.4919
     50 H          -9.7611    7.5009   -2.5068 H       1  LIG1        0.2937
     51 C          -9.6759   11.8554    1.6559 C.3     1  LIG1       -0.0383
     52 H         -10.2338   12.7668    1.4290 H       1  LIG1        0.0278
     53 H          -8.6264   12.1344    1.7912 H       1  LIG1        0.0278
     54 H         -10.0375   11.4744    2.6157 H       1  LIG1        0.0278
@<TRIPOS>BOND
     1    23    22    1
     2    49    50    1
     3    49    41    1
     4    22    15    1
     5    46    41   ar
     6    46    45   ar
     7    41    42   ar
     8    39    37    1
     9    13    11    1
    10    15    20   ar
    11    15    16   ar
    12    20    19   ar
    13    48    45    1
    14    45    44   ar
    15    37    31    1
    16    37    38    1
    17    37    40    1
    18    42    32    1
    19    42    43   ar
    20    31    32   ar
    21    31    30   ar
    22    34    30    1
    23     7     3    1
    24    32    33   ar
    25     3     4   ar
    26     3     2   ar
    27    30    29   ar
    28     8     2    1
    29     4    11    1
    30     4     5   ar
    31    11    14    1
    32    11    12    1
    33     2     1   ar
    34     5    16    1
    35     5     6   ar
    36    16    17   ar
    37     1     6   ar
    38     1     9    1
    39    29    19    1
    40    29    28   ar
    41    33    28   ar
    42    10     9    1
    43    19    18   ar
    44    28    35    1
    45    35    36    1
    46    44    43   ar
    47    44    51    1
    48    43    47    1
    49    17    18   ar
    50    17    21    1
    51    18    24    1
    52    52    51    1
    53    51    53    1
    54    51    54    1
    55    26    24    1
    56    24    27    1
    57    24    25    1
