@<TRIPOS>MOLECULE
mol_data/opt/cam/geoms/mol2/6fi6fi-.out
 28 29 0 0 0
SMALL
GASTEIGER

@<TRIPOS>ATOM
      1 C          -4.4461   -1.9927   -0.7140 C.ar    1  LIG1        0.2128
      2 C          -3.1388   -2.1171   -0.2402 C.ar    1  LIG1        0.0001
      3 C          -2.5443   -0.9868    0.2871 C.ar    1  LIG1       -0.0518
      4 C          -3.2170    0.2349    0.3216 C.ar    1  LIG1       -0.0241
      5 C          -4.5095    0.2446   -0.2212 C.ar    1  LIG1        0.0828
      6 N          -5.1075   -0.8530   -0.7037 N.ar    1  LIG1       -0.2126
      7 H          -1.5396   -1.0505    0.6952 H       1  LIG1        0.0622
      8 H          -2.6161   -3.0682   -0.2673 H       1  LIG1        0.0671
      9 O          -5.1359   -3.0448   -1.2187 O.3     1  LIG1       -0.4924
     10 H          -4.5787   -3.8311   -1.1909 H       1  LIG1        0.2937
     11 C          -2.5726    1.4382    0.9531 C.3     1  LIG1       -0.0377
     12 H          -3.2951    2.0191    1.5321 H       1  LIG1        0.0278
     13 H          -2.1546    2.1078    0.1986 H       1  LIG1        0.0278
     14 H          -1.7702    1.1309    1.6280 H       1  LIG1        0.0278
     15 C          -4.9841    2.6810   -0.8227 C.ar    1  LIG1        0.2217
     16 C          -5.3677    1.4606   -0.2446 C.ar    1  LIG1        0.0623
     17 C          -6.6602    1.4043    0.2561 C.ar    1  LIG1       -0.0431
     18 C          -7.5010    2.5184    0.2338 C.ar    1  LIG1       -0.0315
     19 C          -6.9783    3.6713   -0.3329 C.ar    1  LIG1        0.0343
     20 N          -5.7539    3.7536   -0.8589 N.ar    1  LIG1       -0.2206
     21 H          -7.0090    0.4613    0.6660 H       1  LIG1        0.0629
     22 H          -7.5761    4.5793   -0.3782 H       1  LIG1        0.0833
     23 O          -3.7735    2.7873   -1.4151 O.3     1  LIG1       -0.4919
     24 H          -3.7388    3.6897   -1.7662 H       1  LIG1        0.2937
     25 C          -8.8978    2.4707    0.7890 C.3     1  LIG1       -0.0383
     26 H          -8.8982    2.2123    1.8523 H       1  LIG1        0.0278
     27 H          -9.5063    1.7224    0.2725 H       1  LIG1        0.0278
     28 H          -9.3966    3.4367    0.6818 H       1  LIG1        0.0278
@<TRIPOS>BOND
     1    24    23    1
     2    23    15    1
     3     9    10    1
     4     9     1    1
     5    20    15   ar
     6    20    19   ar
     7    15    16   ar
     8     1     6   ar
     9     1     2   ar
    10     6     5   ar
    11    22    19    1
    12    19    18   ar
    13     8     2    1
    14    16     5    1
    15    16    17   ar
    16     2     3   ar
    17     5     4   ar
    18    13    11    1
    19    18    17   ar
    20    18    25    1
    21    17    21    1
    22    27    25    1
    23     3     4   ar
    24     3     7    1
    25     4    11    1
    26    28    25    1
    27    25    26    1
    28    11    12    1
    29    11    14    1
