@<TRIPOS>MOLECULE
mol_data/opt/cam/geoms/mol2/6fi6fi6fi-6fi.out
 54 57 0 0 0
SMALL
GASTEIGER

@<TRIPOS>ATOM
      1 C          -4.4096   -2.1505   -0.9435 C.ar    1  LIG1        0.2128
      2 C          -3.1631   -2.3759   -0.3641 C.ar    1  LIG1        0.0001
      3 C          -2.6059   -1.3284    0.3427 C.ar    1  LIG1       -0.0518
      4 C          -3.2297   -0.0837    0.4457 C.ar    1  LIG1       -0.0241
      5 C          -4.4543    0.0629   -0.2338 C.ar    1  LIG1        0.0828
      6 N          -5.0140   -0.9813   -0.8777 N.ar    1  LIG1       -0.2126
      7 H          -1.6574   -1.4789    0.8501 H       1  LIG1        0.0622
      8 H          -2.6690   -3.3390   -0.4358 H       1  LIG1        0.0671
      9 O          -5.0991   -3.1018   -1.6076 O.3     1  LIG1       -0.4924
     10 H          -4.6050   -3.9300   -1.5937 H       1  LIG1        0.2937
     11 C          -2.5851    0.9655    1.3156 C.3     1  LIG1       -0.0377
     12 H          -3.3253    1.5559    1.8584 H       1  LIG1        0.0278
     13 H          -1.9611    1.6609    0.7451 H       1  LIG1        0.0278
     14 H          -1.9353    0.4849    2.0507 H       1  LIG1        0.0278
     15 C          -6.6709    1.2744   -0.4481 C.ar    1  LIG1        0.2223
     16 C          -5.2574    1.3084   -0.2860 C.ar    1  LIG1        0.0623
     17 C          -4.6935    2.5772   -0.1944 C.ar    1  LIG1       -0.0425
     18 C          -5.4527    3.7429   -0.1964 C.ar    1  LIG1       -0.0234
     19 C          -6.8386    3.5696   -0.2990 C.ar    1  LIG1        0.0828
     20 N          -7.4134    2.3702   -0.4116 N.ar    1  LIG1       -0.2120
     21 H          -3.6181    2.6771   -0.1269 H       1  LIG1        0.0629
     22 O          -7.3445    0.1428   -0.6394 O.3     1  LIG1       -0.4919
     23 H          -6.6765   -0.5533   -0.8571 H       1  LIG1        0.2937
     24 C          -4.7845    5.0819   -0.0411 C.3     1  LIG1       -0.0377
     25 H          -5.3520    5.7355    0.6269 H       1  LIG1        0.0278
     26 H          -4.6976    5.6008   -0.9979 H       1  LIG1        0.0278
     27 H          -3.7836    4.9625    0.3807 H       1  LIG1        0.0278
     28 C          -7.7816    5.8158   -1.0820 C.ar    1  LIG1        0.2223
     29 C          -7.8082    4.6975   -0.2368 C.ar    1  LIG1        0.0623
     30 C          -8.8686    4.6465    0.6545 C.ar    1  LIG1       -0.0425
     31 C          -9.8226    5.6628    0.7389 C.ar    1  LIG1       -0.0234
     32 C          -9.6791    6.7296   -0.1579 C.ar    1  LIG1        0.0828
     33 N          -8.6709    6.7903   -1.0413 N.ar    1  LIG1       -0.2120
     34 H          -8.9424    3.7843    1.3096 H       1  LIG1        0.0629
     35 O          -6.8260    5.9144   -2.0305 O.3     1  LIG1       -0.4919
     36 H          -7.0250    6.7290   -2.5163 H       1  LIG1        0.2937
     37 C         -10.9018    5.6177    1.7911 C.3     1  LIG1       -0.0377
     38 H         -10.7052    4.8131    2.5020 H       1  LIG1        0.0278
     39 H         -11.8954    5.4544    1.3656 H       1  LIG1        0.0278
     40 H         -10.9475    6.5581    2.3469 H       1  LIG1        0.0278
     41 C         -11.9918    7.7351   -0.4419 C.ar    1  LIG1        0.2217
     42 C         -10.6172    7.8846   -0.1775 C.ar    1  LIG1        0.0623
     43 C         -10.1541    9.1773    0.0196 C.ar    1  LIG1       -0.0431
     44 C         -11.0300   10.2613    0.0158 C.ar    1  LIG1       -0.0315
     45 C         -12.3696    9.9637   -0.2053 C.ar    1  LIG1        0.0343
     46 N         -12.8442    8.7416   -0.4404 N.ar    1  LIG1       -0.2206
     47 H          -9.0914    9.3286    0.1868 H       1  LIG1        0.0629
     48 H         -13.1080   10.7640   -0.2027 H       1  LIG1        0.0833
     49 O         -12.5389    6.5305   -0.7340 O.3     1  LIG1       -0.4919
     50 H         -11.8316    5.8829   -0.8552 H       1  LIG1        0.2937
     51 C         -10.5577   11.6713    0.2398 C.3     1  LIG1       -0.0383
     52 H         -11.3971   12.3704    0.2375 H       1  LIG1        0.0278
     53 H          -9.8601   11.9887   -0.5413 H       1  LIG1        0.0278
     54 H         -10.0413   11.7751    1.1989 H       1  LIG1        0.0278
@<TRIPOS>BOND
     1    36    35    1
     2    35    28    1
     3     9    10    1
     4     9     1    1
     5    28    33   ar
     6    28    29   ar
     7    33    32   ar
     8    26    24    1
     9     1     6   ar
    10     1     2   ar
    11     6     5   ar
    12    23    22    1
    13    50    49    1
    14    49    41    1
    15    22    15    1
    16    53    51    1
    17    15    20   ar
    18    15    16   ar
    19    41    46   ar
    20    41    42   ar
    21    46    45   ar
    22     8     2    1
    23    20    19   ar
    24     2     3   ar
    25    19    29    1
    26    19    18   ar
    27    16     5    1
    28    16    17   ar
    29    29    30   ar
    30     5     4   ar
    31    45    48    1
    32    45    44   ar
    33    18    17   ar
    34    18    24    1
    35    17    21    1
    36    42    32    1
    37    42    43   ar
    38    32    31   ar
    39    24    27    1
    40    24    25    1
    41    44    43   ar
    42    44    51    1
    43    43    47    1
    44    52    51    1
    45    51    54    1
    46     3     4   ar
    47     3     7    1
    48     4    11    1
    49    30    31   ar
    50    30    34    1
    51    31    37    1
    52    13    11    1
    53    11    12    1
    54    11    14    1
    55    39    37    1
    56    37    40    1
    57    37    38    1
