@<TRIPOS>MOLECULE
mol_data/opt/cam/geoms/mol2/6fi6fi-4fi6fi.out
 55 58 0 0 0
SMALL
GASTEIGER

@<TRIPOS>ATOM
      1 C          -4.6949   -2.2945    0.0960 C.ar    1  LIG1        0.2128
      2 C          -3.3268   -2.4746   -0.1152 C.ar    1  LIG1        0.0001
      3 C          -2.5602   -1.3419   -0.3119 C.ar    1  LIG1       -0.0518
      4 C          -3.1365   -0.0715   -0.3230 C.ar    1  LIG1       -0.0241
      5 C          -4.5258   -0.0213   -0.1416 C.ar    1  LIG1        0.0828
      6 N          -5.2731   -1.1105    0.0842 N.ar    1  LIG1       -0.2126
      7 H          -1.4868   -1.4384   -0.4476 H       1  LIG1        0.0622
      8 H          -2.8790   -3.4635   -0.1065 H       1  LIG1        0.0671
      9 O          -5.5329   -3.3332    0.3344 O.3     1  LIG1       -0.4924
     10 H          -5.0291   -4.1552    0.3217 H       1  LIG1        0.2937
     11 C          -2.2751    1.1513   -0.4803 C.3     1  LIG1       -0.0377
     12 H          -2.6091    1.9606    0.1740 H       1  LIG1        0.0278
     13 H          -2.3086    1.5325   -1.5030 H       1  LIG1        0.0278
     14 H          -1.2371    0.9213   -0.2286 H       1  LIG1        0.0278
     15 C          -5.2676    2.2145   -1.1294 C.ar    1  LIG1        0.2223
     16 C          -5.2918    1.2538   -0.1102 C.ar    1  LIG1        0.0623
     17 C          -6.1556    1.5193    0.9430 C.ar    1  LIG1       -0.0425
     18 C          -6.9078    2.6910    1.0073 C.ar    1  LIG1       -0.0235
     19 C          -6.7650    3.5827   -0.0586 C.ar    1  LIG1        0.0812
     20 N          -5.9654    3.3348   -1.1019 N.ar    1  LIG1       -0.2121
     21 H          -6.2350    0.7816    1.7352 H       1  LIG1        0.0629
     22 O          -4.5236    1.9991   -2.2375 O.3     1  LIG1       -0.4919
     23 H          -4.6777    2.7712   -2.8025 H       1  LIG1        0.2937
     24 C          -7.8111    2.9681    2.1802 C.3     1  LIG1       -0.0377
     25 H          -7.5942    2.2809    3.0007 H       1  LIG1        0.0278
     26 H          -8.8672    2.8471    1.9207 H       1  LIG1        0.0278
     27 H          -7.6875    3.9890    2.5499 H       1  LIG1        0.0278
     28 C          -6.8656    6.0936    0.0319 C.ar    1  LIG1        0.1266
     29 C          -7.5861    7.2781   -0.0612 C.ar    1  LIG1       -0.0114
     30 C          -7.5212    4.8676   -0.1155 C.ar    1  LIG1        0.0424
     31 C          -8.9625    7.2753   -0.2960 C.ar    1  LIG1       -0.0064
     32 H          -7.0716    8.2304    0.0421 H       1  LIG1        0.0660
     33 C          -8.8932    4.8792   -0.3381 C.ar    1  LIG1       -0.0456
     34 C          -9.6416    6.0529   -0.4325 C.ar    1  LIG1       -0.0417
     35 H          -9.4022    3.9257   -0.4471 H       1  LIG1        0.0628
     36 O          -5.5286    6.0759    0.2751 O.3     1  LIG1       -0.5061
     37 H          -5.2039    6.9816    0.3380 H       1  LIG1        0.2922
     38 C         -11.1347    5.9893   -0.6377 C.3     1  LIG1       -0.0391
     39 H         -11.4815    4.9544   -0.6206 H       1  LIG1        0.0278
     40 H         -11.4374    6.4283   -1.5927 H       1  LIG1        0.0278
     41 H         -11.6659    6.5370    0.1459 H       1  LIG1        0.0278
     42 C         -10.2401    9.0256   -1.5960 C.ar    1  LIG1        0.2202
     43 C          -9.6770    8.5790   -0.3832 C.ar    1  LIG1        0.0441
     44 C          -9.7922    9.4281    0.7069 C.ar    1  LIG1       -0.0446
     45 C         -10.4597   10.6495    0.6003 C.ar    1  LIG1       -0.0315
     46 C         -10.9860   10.9516   -0.6485 C.ar    1  LIG1        0.0343
     47 N         -10.8793   10.1709   -1.7243 N.ar    1  LIG1       -0.2207
     48 H          -9.3640    9.1214    1.6579 H       1  LIG1        0.0628
     49 H         -11.5261   11.8854   -0.7957 H       1  LIG1        0.0833
     50 O         -10.1527    8.2876   -2.7273 O.3     1  LIG1       -0.4920
     51 H          -9.5903    7.5196   -2.5539 H       1  LIG1        0.2937
     52 C         -10.6069   11.5827    1.7703 C.3     1  LIG1       -0.0383
     53 H         -11.1743   12.4735    1.4914 H       1  LIG1        0.0278
     54 H          -9.6336   11.9140    2.1454 H       1  LIG1        0.0278
     55 H         -11.1300   11.1032    2.6033 H       1  LIG1        0.0278
@<TRIPOS>BOND
     1    23    22    1
     2    50    51    1
     3    50    42    1
     4    22    15    1
     5    47    42   ar
     6    47    46   ar
     7    42    43   ar
     8    40    38    1
     9    13    11    1
    10    15    20   ar
    11    15    16   ar
    12    20    19   ar
    13    49    46    1
    14    46    45   ar
    15    38    39    1
    16    38    34    1
    17    38    41    1
    18    11     4    1
    19    11    14    1
    20    11    12    1
    21     7     3    1
    22    35    33    1
    23    34    33   ar
    24    34    31   ar
    25    43    31    1
    26    43    44   ar
    27    33    30   ar
    28     4     3   ar
    29     4     5   ar
    30     3     2   ar
    31    31    29   ar
    32     5    16    1
    33     5     6   ar
    34    30    19    1
    35    30    28   ar
    36     2     8    1
    37     2     1   ar
    38    16    17   ar
    39    29    28   ar
    40    29    32    1
    41    19    18   ar
    42    28    36    1
    43     6     1   ar
    44     1     9    1
    45    36    37    1
    46    10     9    1
    47    45    44   ar
    48    45    52    1
    49    44    48    1
    50    17    18   ar
    51    17    21    1
    52    18    24    1
    53    53    52    1
    54    52    54    1
    55    52    55    1
    56    26    24    1
    57    24    27    1
    58    24    25    1
