@<TRIPOS>MOLECULE
mol_data/opt/cam/geoms/mol2/6fi6fi-6fi-6fi-.out
 54 57 0 0 0
SMALL
GASTEIGER

@<TRIPOS>ATOM
      1 C          -4.5289   -2.2260   -0.3369 C.ar    1  LIG1        0.2128
      2 C          -3.1488   -2.3200   -0.5243 C.ar    1  LIG1        0.0001
      3 C          -2.4320   -1.1395   -0.5674 C.ar    1  LIG1       -0.0518
      4 C          -3.0675    0.0970   -0.4521 C.ar    1  LIG1       -0.0241
      5 C          -4.4619    0.0646   -0.3092 C.ar    1  LIG1        0.0828
      6 N          -5.1623   -1.0753   -0.2322 N.ar    1  LIG1       -0.2126
      7 H          -1.3520   -1.1720   -0.6797 H       1  LIG1        0.0622
      8 H          -2.6550   -3.2827   -0.6138 H       1  LIG1        0.0671
      9 O          -5.3224   -3.3215   -0.2447 O.3     1  LIG1       -0.4924
     10 H          -4.7792   -4.1132   -0.3327 H       1  LIG1        0.2937
     11 C          -2.2616    1.3669   -0.4425 C.3     1  LIG1       -0.0377
     12 H          -2.6483    2.0788    0.2912 H       1  LIG1        0.0278
     13 H          -2.2899    1.8631   -1.4148 H       1  LIG1        0.0278
     14 H          -1.2199    1.1555   -0.1900 H       1  LIG1        0.0278
     15 C          -5.2833    2.3660   -1.0562 C.ar    1  LIG1        0.2223
     16 C          -5.2871    1.2927   -0.1551 C.ar    1  LIG1        0.0623
     17 C          -6.1842    1.3995    0.8974 C.ar    1  LIG1       -0.0425
     18 C          -6.9895    2.5240    1.0774 C.ar    1  LIG1       -0.0234
     19 C          -6.8640    3.5390    0.1246 C.ar    1  LIG1        0.0828
     20 N          -6.0308    3.4436   -0.9190 N.ar    1  LIG1       -0.2120
     21 H          -6.2458    0.5742    1.5997 H       1  LIG1        0.0629
     22 O          -4.5050    2.3123   -2.1604 O.3     1  LIG1       -0.4919
     23 H          -4.6741    3.1423   -2.6313 H       1  LIG1        0.2937
     24 C          -7.9215    2.6145    2.2577 C.3     1  LIG1       -0.0377
     25 H          -7.5889    1.9492    3.0575 H       1  LIG1        0.0278
     26 H          -8.9433    2.3204    1.9964 H       1  LIG1        0.0278
     27 H          -7.9697    3.6294    2.6574 H       1  LIG1        0.0278
     28 C          -7.0605    6.0513    0.3213 C.ar    1  LIG1        0.2223
     29 C          -7.6652    4.7912    0.1882 C.ar    1  LIG1        0.0623
     30 C          -9.0460    4.7922    0.0975 C.ar    1  LIG1       -0.0425
     31 C          -9.7912    5.9747    0.1214 C.ar    1  LIG1       -0.0234
     32 C          -9.0680    7.1622    0.2426 C.ar    1  LIG1        0.0828
     33 N          -7.7319    7.1853    0.3456 N.ar    1  LIG1       -0.2120
     34 H          -9.5647    3.8425   -0.0010 H       1  LIG1        0.0629
     35 O          -5.7226    6.1290    0.4545 O.3     1  LIG1       -0.4919
     36 H          -5.5273    7.0726    0.5550 H       1  LIG1        0.2937
     37 C         -11.2945    5.9325    0.0304 C.3     1  LIG1       -0.0377
     38 H         -11.6687    4.9530    0.3373 H       1  LIG1        0.0278
     39 H         -11.6500    6.1100   -0.9899 H       1  LIG1        0.0278
     40 H         -11.7577    6.6874    0.6688 H       1  LIG1        0.0278
     41 C          -9.6524    9.3490    1.3680 C.ar    1  LIG1        0.2217
     42 C          -9.7310    8.4952    0.2532 C.ar    1  LIG1        0.0623
     43 C         -10.4297    8.9769   -0.8402 C.ar    1  LIG1       -0.0431
     44 C         -11.0120   10.2489   -0.8310 C.ar    1  LIG1       -0.0315
     45 C         -10.8501   10.9882    0.3292 C.ar    1  LIG1        0.0343
     46 N         -10.1913   10.5533    1.4080 N.ar    1  LIG1       -0.2206
     47 H         -10.5106    8.3543   -1.7274 H       1  LIG1        0.0629
     48 H         -11.2729   11.9881    0.4038 H       1  LIG1        0.0833
     49 O          -9.0145    8.9231    2.4749 O.3     1  LIG1       -0.4919
     50 H          -9.0829    9.6507    3.1108 H       1  LIG1        0.2937
     51 C         -11.7637   10.7867   -2.0173 C.3     1  LIG1       -0.0383
     52 H         -12.6213   10.1554   -2.2695 H       1  LIG1        0.0278
     53 H         -11.1265   10.8392   -2.9053 H       1  LIG1        0.0278
     54 H         -12.1400   11.7929   -1.8197 H       1  LIG1        0.0278
@<TRIPOS>BOND
     1    53    51    1
     2    23    22    1
     3    52    51    1
     4    22    15    1
     5    51    54    1
     6    51    44    1
     7    47    43    1
     8    13    11    1
     9    15    20   ar
    10    15    16   ar
    11    39    37    1
    12    20    19   ar
    13    43    44   ar
    14    43    42   ar
    15    44    45   ar
    16     7     3    1
    17     8     2    1
    18     3     2   ar
    19     3     4   ar
    20     2     1   ar
    21     4    11    1
    22     4     5   ar
    23    11    14    1
    24    11    12    1
    25     1     9    1
    26     1     6   ar
    27    10     9    1
    28     5     6   ar
    29     5    16    1
    30    16    17   ar
    31    34    30    1
    32    37    31    1
    33    37    38    1
    34    37    40    1
    35    30    31   ar
    36    30    29   ar
    37    31    32   ar
    38    19    29    1
    39    19    18   ar
    40    29    28   ar
    41    32    42    1
    42    32    33   ar
    43    42    41   ar
    44    28    33   ar
    45    28    35    1
    46    45    48    1
    47    45    46   ar
    48    35    36    1
    49    17    18   ar
    50    17    21    1
    51    18    24    1
    52    41    46   ar
    53    41    49    1
    54    26    24    1
    55    24    27    1
    56    24    25    1
    57    49    50    1
