@<TRIPOS>MOLECULE
mol_data/opt/cam/geoms/mol2/6fi6fi.out
 28 29 0 0 0
SMALL
GASTEIGER

@<TRIPOS>ATOM
      1 C          -4.5408   -2.0906   -0.3650 C.ar    1  LIG1        0.2128
      2 C          -3.1528   -2.1556   -0.2662 C.ar    1  LIG1        0.0001
      3 C          -2.4922   -0.9775    0.0227 C.ar    1  LIG1       -0.0518
      4 C          -3.1659    0.2362    0.1702 C.ar    1  LIG1       -0.0241
      5 C          -4.5610    0.2067   -0.0163 C.ar    1  LIG1        0.0828
      6 N          -5.2019   -0.9565   -0.2478 N.ar    1  LIG1       -0.2126
      7 H          -1.4143   -0.9950    0.1559 H       1  LIG1        0.0622
      8 H          -2.6190   -3.0934   -0.3769 H       1  LIG1        0.0671
      9 O          -5.3175   -3.1735   -0.5802 O.3     1  LIG1       -0.4924
     10 H          -4.7657   -3.9629   -0.6307 H       1  LIG1        0.2937
     11 C          -2.3699    1.4505    0.5766 C.3     1  LIG1       -0.0377
     12 H          -2.9349    2.1010    1.2462 H       1  LIG1        0.0278
     13 H          -2.0543    2.0536   -0.2809 H       1  LIG1        0.0278
     14 H          -1.4619    1.1383    1.0977 H       1  LIG1        0.0278
     15 C          -6.8108    1.2711    0.4732 C.ar    1  LIG1        0.2217
     16 C          -5.4512    1.3907    0.0600 C.ar    1  LIG1        0.0623
     17 C          -5.0256    2.6697   -0.2885 C.ar    1  LIG1       -0.0431
     18 C          -5.8551    3.7793   -0.1576 C.ar    1  LIG1       -0.0315
     19 C          -7.1225    3.5314    0.3556 C.ar    1  LIG1        0.0343
     20 N          -7.5951    2.3255    0.6501 N.ar    1  LIG1       -0.2206
     21 H          -4.0298    2.8097   -0.6910 H       1  LIG1        0.0629
     22 H          -7.8080    4.3615    0.5236 H       1  LIG1        0.0833
     23 O          -7.3822    0.0931    0.7135 O.3     1  LIG1       -0.4919
     24 H          -6.7775   -0.5992    0.3511 H       1  LIG1        0.2937
     25 C          -5.4104    5.1621   -0.5477 C.3     1  LIG1       -0.0383
     26 H          -6.1479    5.9088   -0.2443 H       1  LIG1        0.0278
     27 H          -5.2781    5.2532   -1.6308 H       1  LIG1        0.0278
     28 H          -4.4577    5.4284   -0.0800 H       1  LIG1        0.0278
@<TRIPOS>BOND
     1    27    25    1
     2    21    17    1
     3    10     9    1
     4     9     1    1
     5    25    26    1
     6    25    18    1
     7    25    28    1
     8     8     2    1
     9     1     2   ar
    10     1     6   ar
    11    17    18   ar
    12    17    16   ar
    13    13    11    1
    14     2     3   ar
    15     6     5   ar
    16    18    19   ar
    17     5    16    1
    18     5     4   ar
    19     3     7    1
    20     3     4   ar
    21    16    15   ar
    22     4    11    1
    23    24    23    1
    24    19    22    1
    25    19    20   ar
    26    15    20   ar
    27    15    23    1
    28    11    14    1
    29    11    12    1
