@<TRIPOS>MOLECULE
mol_data/opt/cam/geoms/mol2/6fi6fi6fi6fi.out
 54 57 0 0 0
SMALL
GASTEIGER

@<TRIPOS>ATOM
      1 C          -4.5158   -2.2723   -0.2901 C.ar    1  LIG1        0.2128
      2 C          -3.1430   -2.3938   -0.0846 C.ar    1  LIG1        0.0001
      3 C          -2.4448   -1.2319    0.1783 C.ar    1  LIG1       -0.0518
      4 C          -3.0632    0.0201    0.2024 C.ar    1  LIG1       -0.0241
      5 C          -4.4409    0.0427   -0.0807 C.ar    1  LIG1        0.0828
      6 N          -5.1230   -1.1021   -0.2894 N.ar    1  LIG1       -0.2126
      7 H          -1.3810   -1.2912    0.3886 H       1  LIG1        0.0622
      8 H          -2.6511   -3.3604   -0.0990 H       1  LIG1        0.0671
      9 O          -5.3307   -3.3253   -0.4983 O.3     1  LIG1       -0.4924
     10 H          -4.8227   -4.1446   -0.4645 H       1  LIG1        0.2937
     11 C          -2.2348    1.2200    0.5844 C.3     1  LIG1       -0.0377
     12 H          -2.7996    1.9280    1.1937 H       1  LIG1        0.0278
     13 H          -1.8531    1.7627   -0.2865 H       1  LIG1        0.0278
     14 H          -1.3666    0.8989    1.1641 H       1  LIG1        0.0278
     15 C          -6.6795    1.2085    0.0897 C.ar    1  LIG1        0.2223
     16 C          -5.2784    1.2629   -0.1384 C.ar    1  LIG1        0.0623
     17 C          -4.7880    2.5182   -0.4827 C.ar    1  LIG1       -0.0425
     18 C          -5.5614    3.6761   -0.4898 C.ar    1  LIG1       -0.0234
     19 C          -6.9020    3.5309   -0.0912 C.ar    1  LIG1        0.0828
     20 N          -7.4131    2.3087    0.1420 N.ar    1  LIG1       -0.2120
     21 H          -3.7567    2.6089   -0.7988 H       1  LIG1        0.0629
     22 O          -7.3469    0.0776    0.2605 O.3     1  LIG1       -0.4919
     23 H          -6.7191   -0.6603    0.0338 H       1  LIG1        0.2937
     24 C          -4.9317    4.9577   -0.9745 C.3     1  LIG1       -0.0377
     25 H          -4.5372    5.5724   -0.1586 H       1  LIG1        0.0278
     26 H          -5.6386    5.5711   -1.5362 H       1  LIG1        0.0278
     27 H          -4.0918    4.7293   -1.6350 H       1  LIG1        0.0278
     28 C          -9.2747    4.4023   -0.0313 C.ar    1  LIG1        0.2223
     29 C          -7.8747    4.6345    0.0518 C.ar    1  LIG1        0.0623
     30 C          -7.5124    5.9450    0.3478 C.ar    1  LIG1       -0.0425
     31 C          -8.4202    6.9958    0.4394 C.ar    1  LIG1       -0.0234
     32 C          -9.7670    6.6799    0.1794 C.ar    1  LIG1        0.0828
     33 N         -10.1424    5.4025   -0.0035 N.ar    1  LIG1       -0.2120
     34 H          -6.4733    6.1654    0.5571 H       1  LIG1        0.0629
     35 O          -9.8053    3.1954   -0.1369 O.3     1  LIG1       -0.4919
     36 H          -9.0596    2.5443   -0.0025 H       1  LIG1        0.2937
     37 C          -7.9093    8.3484    0.8687 C.3     1  LIG1       -0.0377
     38 H          -8.6349    8.8786    1.4880 H       1  LIG1        0.0278
     39 H          -7.6620    8.9984    0.0227 H       1  LIG1        0.0278
     40 H          -6.9948    8.2280    1.4549 H       1  LIG1        0.0278
     41 C         -12.2188    7.2724    0.4390 C.ar    1  LIG1        0.2217
     42 C         -10.8776    7.6590    0.1379 C.ar    1  LIG1        0.0623
     43 C         -10.6872    8.9908   -0.2213 C.ar    1  LIG1       -0.0431
     44 C         -11.7306    9.9107   -0.2066 C.ar    1  LIG1       -0.0315
     45 C         -12.9652    9.4200    0.2026 C.ar    1  LIG1        0.0343
     46 N         -13.2122    8.1509    0.5044 N.ar    1  LIG1       -0.2206
     47 H          -9.7067    9.3216   -0.5416 H       1  LIG1        0.0629
     48 H         -13.8162   10.0970    0.2751 H       1  LIG1        0.0833
     49 O         -12.5592    6.0116    0.6770 O.3     1  LIG1       -0.4919
     50 H         -11.7799    5.4502    0.4225 H       1  LIG1        0.2937
     51 C         -11.5385   11.3472   -0.6089 C.3     1  LIG1       -0.0383
     52 H         -12.4438   11.9291   -0.4198 H       1  LIG1        0.0278
     53 H         -11.3053   11.4411   -1.6747 H       1  LIG1        0.0278
     54 H         -10.7208   11.8181   -0.0545 H       1  LIG1        0.0278
@<TRIPOS>BOND
     1    53    51    1
     2    27    24    1
     3    26    24    1
     4    24    18    1
     5    24    25    1
     6    21    17    1
     7    51    52    1
     8    51    44    1
     9    51    54    1
    10    47    43    1
    11     9    10    1
    12     9     1    1
    13    18    17   ar
    14    18    19   ar
    15    17    16   ar
    16     1     6   ar
    17     1     2   ar
    18     6     5   ar
    19    13    11    1
    20    43    44   ar
    21    43    42   ar
    22    44    45   ar
    23    16     5    1
    24    16    15   ar
    25    35    28    1
    26    35    36    1
    27     8     2    1
    28    19    29    1
    29    19    20   ar
    30     2     3   ar
    31     5     4   ar
    32    28    33   ar
    33    28    29   ar
    34    33    32   ar
    35    39    37    1
    36    23    22    1
    37    29    30   ar
    38    15    20   ar
    39    15    22    1
    40    42    32    1
    41    42    41   ar
    42     3     4   ar
    43     3     7    1
    44    32    31   ar
    45     4    11    1
    46    45    48    1
    47    45    46   ar
    48    30    31   ar
    49    30    34    1
    50    50    49    1
    51    41    46   ar
    52    41    49    1
    53    31    37    1
    54    11    14    1
    55    11    12    1
    56    37    40    1
    57    37    38    1
