@<TRIPOS>MOLECULE
mol_data/opt/cam/geoms/mol2/6fl13di12lh13ld-.out
 54 57 0 0 0
SMALL
GASTEIGER

@<TRIPOS>ATOM
      1 C          -4.6924   -1.9745   -0.9620 C.ar    1  LIG1        0.2131
      2 C          -3.3247   -2.2464   -0.9687 C.ar    1  LIG1        0.0033
      3 C          -2.4520   -1.2184   -0.6467 C.ar    1  LIG1       -0.0127
      4 C          -2.9591    0.0359   -0.3247 C.ar    1  LIG1        0.1477
      5 C          -4.3506    0.2094   -0.3240 C.ar    1  LIG1        0.1336
      6 N          -5.1801   -0.7904   -0.6495 N.ar    1  LIG1       -0.2078
      7 H          -1.3835   -1.3944   -0.6524 H       1  LIG1        0.0656
      8 H          -2.9484   -3.2322   -1.2216 H       1  LIG1        0.0672
      9 O          -5.6272   -2.9076   -1.2707 O.3     1  LIG1       -0.4924
     10 H          -5.1895   -3.7366   -1.4959 H       1  LIG1        0.2937
     11 O          -2.2221    1.1209   -0.0204 O.3     1  LIG1       -0.4929
     12 C          -0.8266    0.9999    0.1598 C.3     1  LIG1        0.0789
     13 H          -0.4949    1.9795    0.5016 H       1  LIG1        0.0660
     14 H          -0.5878    0.2462    0.9187 H       1  LIG1        0.0660
     15 H          -0.3236    0.7442   -0.7799 H       1  LIG1        0.0660
     16 C          -5.0231    1.4694    0.0102 C.ar    1  LIG1        0.0870
     17 C          -4.6761    2.7327    0.5026 C.ar    1  LIG1        0.0822
     18 C          -5.8713    3.5049    0.6299 C.ar    1  LIG1       -0.0040
     19 C          -6.9066    2.6964    0.1969 C.ar    1  LIG1        0.0905
     20 N          -6.3698    1.4900   -0.1617 N.ar    1  LIG1       -0.3491
     21 H          -6.8644    0.6743   -0.4956 H       1  LIG1        0.1661
     22 N          -2.4671    3.8240    1.2581 N.1     1  LIG1       -0.1908
     23 C          -3.4204    3.2731    0.8977 C.1     1  LIG1        0.1016
     24 C          -5.9468    4.8876    1.1942 C.3     1  LIG1       -0.0364
     25 H          -6.9654    5.2746    1.1657 H       1  LIG1        0.0279
     26 H          -5.3012    5.5767    0.6412 H       1  LIG1        0.0279
     27 H          -5.6020    4.9002    2.2325 H       1  LIG1        0.0279
     28 C          -8.3339    2.9000    0.1052 C.ar    1  LIG1        0.1954
     29 C          -9.1543    3.9731   -0.0967 C.ar    1  LIG1        0.1885
     30 C         -10.5076    3.5039   -0.0833 C.ar    1  LIG1        0.1156
     31 C         -10.4255    2.1509    0.0967 C.ar    1  LIG1        0.1797
     32 O          -9.1031    1.7763    0.2097 O.2     1  LIG1       -0.4460
     33 O          -8.8455    5.2853   -0.2977 O.3     1  LIG1       -0.4896
     34 C          -8.1052    5.5475   -1.4885 C.3     1  LIG1        0.0791
     35 H          -7.9949    6.6303   -1.5507 H       1  LIG1        0.0660
     36 H          -7.1157    5.0829   -1.4525 H       1  LIG1        0.0660
     37 H          -8.6433    5.1803   -2.3687 H       1  LIG1        0.0660
     38 N         -11.6126    4.3202   -0.1887 N.pl3   1  LIG1       -0.3521
     39 H         -11.4129    5.2215   -0.5967 H       1  LIG1        0.1425
     40 H         -12.4448    3.8621   -0.5359 H       1  LIG1        0.1425
     41 C         -11.3845    1.0824    0.1903 C.ar    1  LIG1        0.1276
     42 C         -12.7575    1.0454    0.0674 C.ar    1  LIG1        0.1656
     43 C         -13.1739   -0.3113    0.2486 C.ar    1  LIG1        0.1113
     44 C         -12.0347   -1.0567    0.4730 C.ar    1  LIG1        0.0234
     45 N         -10.9749   -0.2121    0.4302 N.ar    1  LIG1       -0.3541
     46 H         -10.0092   -0.4662    0.5632 H       1  LIG1        0.1656
     47 H         -11.9221   -2.1139    0.6519 H       1  LIG1        0.0821
     48 O         -13.5578    2.1097   -0.2327 O.3     1  LIG1       -0.4916
     49 C         -14.4651    2.4836    0.8074 C.3     1  LIG1        0.0789
     50 H         -15.0438    3.3238    0.4231 H       1  LIG1        0.0660
     51 H         -15.1435    1.6618    1.0506 H       1  LIG1        0.0660
     52 H         -13.9163    2.7930    1.7023 H       1  LIG1        0.0660
     53 N         -15.5948   -1.1893    0.1509 N.1     1  LIG1       -0.1907
     54 C         -14.5028   -0.8060    0.1912 C.1     1  LIG1        0.1044
@<TRIPOS>BOND
     1    37    34    1
     2    35    34    1
     3    10     9    1
     4    34    36    1
     5    34    33    1
     6     9     1    1
     7     8     2    1
     8     2     1   ar
     9     2     3   ar
    10     1     6   ar
    11    15    12    1
    12     7     3    1
    13     6     5   ar
    14     3     4   ar
    15    39    38    1
    16    40    38    1
    17    21    20    1
    18     4     5   ar
    19     4    11    1
    20     5    16    1
    21    33    29    1
    22    48    42    1
    23    48    49    1
    24    38    30    1
    25    20    16   ar
    26    20    19   ar
    27    29    30   ar
    28    29    28   ar
    29    30    31   ar
    30    11    12    1
    31    16    17   ar
    32    42    41   ar
    33    42    43   ar
    34    31    41    1
    35    31    32   ar
    36    28    19    1
    37    28    32   ar
    38    53    54    3
    39    12    13    1
    40    12    14    1
    41    41    45   ar
    42    54    43    1
    43    19    18   ar
    44    43    44   ar
    45    50    49    1
    46    45    44   ar
    47    45    46    1
    48    44    47    1
    49    17    18   ar
    50    17    23    1
    51    18    24    1
    52    26    24    1
    53    49    51    1
    54    49    52    1
    55    23    22    3
    56    25    24    1
    57    24    27    1
