@<TRIPOS>MOLECULE
mol_data/opt/cam/geoms/mol2/6fl12ii4el-12il.out
 59 62 0 0 0
SMALL
GASTEIGER

@<TRIPOS>ATOM
      1 C          -4.3267   -2.1621   -0.0599 C.ar    1  LIG1        0.2131
      2 C          -3.0414   -2.1362   -0.5988 C.ar    1  LIG1        0.0033
      3 C          -2.4839   -0.9035   -0.9019 C.ar    1  LIG1       -0.0127
      4 C          -3.2114    0.2556   -0.6551 C.ar    1  LIG1        0.1492
      5 C          -4.4878    0.1252   -0.0789 C.ar    1  LIG1        0.1514
      6 N          -5.0185   -1.0687    0.1948 N.ar    1  LIG1       -0.2062
      7 H          -1.4949   -0.8583   -1.3403 H       1  LIG1        0.0656
      8 H          -2.4890   -3.0517   -0.7854 H       1  LIG1        0.0672
      9 O          -4.9595   -3.3206    0.2545 O.3     1  LIG1       -0.4924
     10 H          -4.3907   -4.0650    0.0277 H       1  LIG1        0.2937
     11 O          -2.7838    1.5117   -0.9580 O.3     1  LIG1       -0.4929
     12 C          -1.5357    1.6488   -1.5994 C.3     1  LIG1        0.0789
     13 H          -1.4028    2.7151   -1.7802 H       1  LIG1        0.0660
     14 H          -0.7131    1.2871   -0.9705 H       1  LIG1        0.0660
     15 H          -1.5137    1.1168   -2.5581 H       1  LIG1        0.0660
     16 C          -5.3275    1.2900    0.2217 C.ar    1  LIG1        0.1606
     17 C          -5.1039    2.5091    0.7941 C.ar    1  LIG1        0.0005
     18 C          -6.3807    3.1632    0.8527 C.ar    1  LIG1       -0.0011
     19 C          -7.2782    2.2923    0.3008 C.ar    1  LIG1        0.1402
     20 O          -6.6474    1.1449   -0.0662 O.2     1  LIG1       -0.4526
     21 C          -3.8239    3.0598    1.3339 C.3     1  LIG1       -0.0358
     22 H          -3.9995    3.5866    2.2763 H       1  LIG1        0.0279
     23 H          -3.3677    3.7706    0.6381 H       1  LIG1        0.0279
     24 H          -3.0953    2.2702    1.5181 H       1  LIG1        0.0279
     25 C          -6.6457    4.4875    1.4912 C.3     1  LIG1       -0.0358
     26 H          -7.7084    4.6297    1.6894 H       1  LIG1        0.0279
     27 H          -6.3220    5.3178    0.8563 H       1  LIG1        0.0279
     28 H          -6.1100    4.5681    2.4420 H       1  LIG1        0.0279
     29 C          -9.4529    3.3923   -0.3724 C.ar    1  LIG1        0.0362
     30 C         -10.8438    3.2994   -0.4855 C.ar    1  LIG1       -0.0314
     31 C          -8.7303    2.2885    0.1203 C.ar    1  LIG1        0.0364
     32 C         -11.5508    2.1510   -0.1390 C.ar    1  LIG1        0.0604
     33 H         -11.3803    4.1424   -0.9040 H       1  LIG1        0.0638
     34 C          -9.4338    1.1259    0.4428 C.ar    1  LIG1       -0.0074
     35 C         -10.8116    1.0466    0.3278 C.ar    1  LIG1        0.1315
     36 H          -8.8985    0.2558    0.8042 H       1  LIG1        0.0662
     37 C          -8.8173    4.5807   -0.8569 C.1     1  LIG1       -0.0689
     38 C          -8.3374    5.5923   -1.3003 C.1     1  LIG1       -0.1139
     39 H          -7.8992    6.4787   -1.6970 H       1  LIG1        0.1232
     40 O         -11.4049   -0.1390    0.6603 O.3     1  LIG1       -0.4944
     41 C         -12.1703   -0.1287    1.8556 C.3     1  LIG1        0.0788
     42 H         -12.5605   -1.1391    1.9793 H       1  LIG1        0.0660
     43 H         -11.5423    0.1252    2.7177 H       1  LIG1        0.0660
     44 H         -13.0082    0.5731    1.8007 H       1  LIG1        0.0660
     45 C         -13.0063    2.1326   -0.2895 C.ar    1  LIG1        0.1449
     46 C         -13.9606    3.0851   -0.0646 C.ar    1  LIG1        0.0371
     47 C         -15.2050    2.4524   -0.3984 C.ar    1  LIG1        0.1611
     48 C         -14.9224    1.1867   -0.7945 C.ar    1  LIG1        0.1343
     49 O         -13.5859    0.9783   -0.7289 O.2     1  LIG1       -0.4588
     50 H         -15.5336    0.3593   -1.1153 H       1  LIG1        0.1068
     51 C         -13.8128    4.4685    0.4814 C.3     1  LIG1       -0.0326
     52 H         -14.6922    4.7275    1.0767 H       1  LIG1        0.0280
     53 H         -13.7223    5.2202   -0.3106 H       1  LIG1        0.0280
     54 H         -12.9281    4.5545    1.1159 H       1  LIG1        0.0280
     55 O         -16.4458    3.0035   -0.2714 O.3     1  LIG1       -0.4917
     56 C         -16.7864    3.9105   -1.3089 C.3     1  LIG1        0.0789
     57 H         -17.7921    4.2727   -1.0921 H       1  LIG1        0.0660
     58 H         -16.0982    4.7629   -1.3439 H       1  LIG1        0.0660
     59 H         -16.7804    3.4122   -2.2850 H       1  LIG1        0.0660
@<TRIPOS>BOND
     1    15    12    1
     2    59    56    1
     3    13    12    1
     4    39    38    1
     5    12    14    1
     6    12    11    1
     7    58    56    1
     8     7     3    1
     9    56    57    1
    10    56    55    1
    11    38    37    3
    12    50    48    1
    13    11     4    1
    14    33    30    1
    15     3     4   ar
    16     3     2   ar
    17    37    29    1
    18    48    49   ar
    19    48    47   ar
    20     8     2    1
    21    49    45   ar
    22     4     5   ar
    23     2     1   ar
    24    30    29   ar
    25    30    32   ar
    26    47    55    1
    27    47    46   ar
    28    29    31   ar
    29    53    51    1
    30    45    32    1
    31    45    46   ar
    32    32    35   ar
    33     5     6   ar
    34     5    16    1
    35    20    16   ar
    36    20    19   ar
    37    46    51    1
    38     1     6   ar
    39     1     9    1
    40    10     9    1
    41    31    19    1
    42    31    34   ar
    43    16    17   ar
    44    19    18   ar
    45    35    34   ar
    46    35    40    1
    47    34    36    1
    48    51    52    1
    49    51    54    1
    50    23    21    1
    51    40    41    1
    52    17    18   ar
    53    17    21    1
    54    18    25    1
    55    27    25    1
    56    21    24    1
    57    21    22    1
    58    25    26    1
    59    25    28    1
    60    44    41    1
    61    41    42    1
    62    41    43    1
