@<TRIPOS>MOLECULE
mol_data/opt/cam/geoms/mol2/6fl4hl12ha12dh.out
 51 54 0 0 0
SMALL
GASTEIGER

@<TRIPOS>ATOM
      1 C          -4.3255   -1.9821    1.0202 C.ar    1  LIG1        0.2130
      2 C          -2.9951   -2.1248    0.6327 C.ar    1  LIG1        0.0033
      3 C          -2.3651   -1.0248    0.0739 C.ar    1  LIG1       -0.0128
      4 C          -3.0649    0.1672   -0.0668 C.ar    1  LIG1        0.1462
      5 C          -4.3938    0.2325    0.3884 C.ar    1  LIG1        0.1181
      6 N          -4.9886   -0.8481    0.9010 N.ar    1  LIG1       -0.2093
      7 H          -1.3378   -1.1103   -0.2572 H       1  LIG1        0.0656
      8 H          -2.4664   -3.0652    0.7513 H       1  LIG1        0.0672
      9 O          -5.0424   -3.0040    1.5497 O.3     1  LIG1       -0.4924
     10 H          -4.4851   -3.7886    1.6059 H       1  LIG1        0.2937
     11 O          -2.5352    1.2909   -0.6469 O.3     1  LIG1       -0.4930
     12 C          -1.2885    1.1779   -1.3027 C.3     1  LIG1        0.0789
     13 H          -1.1030    2.1445   -1.7705 H       1  LIG1        0.0660
     14 H          -0.4758    0.9583   -0.6005 H       1  LIG1        0.0660
     15 H          -1.3161    0.4017   -2.0754 H       1  LIG1        0.0660
     16 C          -4.8896    2.7322    0.6950 C.ar    1  LIG1        0.0349
     17 C          -5.8395    3.7551    0.6117 C.ar    1  LIG1       -0.0262
     18 C          -5.2584    1.4385    0.2752 C.ar    1  LIG1        0.0282
     19 C          -7.1359    3.5517    0.1336 C.ar    1  LIG1        0.0625
     20 H          -5.5711    4.7380    0.9881 H       1  LIG1        0.0644
     21 C          -6.5601    1.2363   -0.1885 C.ar    1  LIG1       -0.0082
     22 C          -7.4897    2.2551   -0.2760 C.ar    1  LIG1        0.1315
     23 H          -6.8667    0.2378   -0.4765 H       1  LIG1        0.0661
     24 N          -3.6557    2.9945    1.2868 N.pl3   1  LIG1       -0.3574
     25 H          -2.8770    2.5603    0.8091 H       1  LIG1        0.1423
     26 H          -3.4940    3.9773    1.4539 H       1  LIG1        0.1423
     27 O          -8.7509    1.9544   -0.7337 O.3     1  LIG1       -0.4944
     28 C          -9.0022    2.3412   -2.0714 C.3     1  LIG1        0.0788
     29 H         -10.0225    2.0314   -2.3017 H       1  LIG1        0.0660
     30 H          -8.9231    3.4265   -2.2040 H       1  LIG1        0.0660
     31 H          -8.3086    1.8471   -2.7636 H       1  LIG1        0.0660
     32 C          -8.0458    4.6877    0.0639 C.ar    1  LIG1        0.1599
     33 C          -7.8165    6.0247   -0.1689 C.ar    1  LIG1        0.0718
     34 C          -9.0815    6.6708   -0.1068 C.ar    1  LIG1        0.0087
     35 C          -9.9938    5.6877    0.1539 C.ar    1  LIG1        0.1737
     36 O          -9.3860    4.4882    0.2565 O.2     1  LIG1       -0.4497
     37 N          -6.5913    6.6539   -0.3911 N.pl3   1  LIG1       -0.3550
     38 H          -5.8989    6.0414   -0.8025 H       1  LIG1        0.1424
     39 H          -6.6778    7.5075   -0.9258 H       1  LIG1        0.1424
     40 H          -9.2874    7.7231   -0.2367 H       1  LIG1        0.0675
     41 C         -11.4199    5.7275    0.3254 C.ar    1  LIG1        0.1889
     42 C         -12.3233    6.7653    0.2478 C.ar    1  LIG1        0.1210
     43 C         -13.6215    6.2002    0.5108 C.ar    1  LIG1        0.0812
     44 C         -13.4028    4.8763    0.7212 C.ar    1  LIG1        0.1146
     45 O         -12.0641    4.5917    0.6104 O.2     1  LIG1       -0.4566
     46 H         -14.0452    4.0463    0.9609 H       1  LIG1        0.1049
     47 N         -11.8413    9.2304   -0.3126 N.1     1  LIG1       -0.1907
     48 C         -12.0487    8.1195   -0.0543 C.1     1  LIG1        0.1049
     49 N         -14.7983    6.9274    0.5864 N.pl3   1  LIG1       -0.3545
     50 H         -14.7937    7.7830    0.0491 H       1  LIG1        0.1424
     51 H         -15.6408    6.3928    0.4354 H       1  LIG1        0.1424
@<TRIPOS>BOND
     1    31    28    1
     2    29    28    1
     3    30    28    1
     4    15    12    1
     5    28    27    1
     6    13    12    1
     7    12    11    1
     8    12    14    1
     9    39    37    1
    10    38    37    1
    11    27    22    1
    12    11     4    1
    13    23    21    1
    14    37    33    1
    15    47    48    3
    16    22    21   ar
    17    22    19   ar
    18     7     3    1
    19    40    34    1
    20    21    18   ar
    21    33    34   ar
    22    33    32   ar
    23    34    35   ar
    24     4     3   ar
    25     4     5   ar
    26    48    42    1
    27    50    49    1
    28    32    19    1
    29    32    36   ar
    30     3     2   ar
    31    19    17   ar
    32    35    36   ar
    33    35    41    1
    34    42    41   ar
    35    42    43   ar
    36    18     5    1
    37    18    16   ar
    38    41    45   ar
    39     5     6   ar
    40    51    49    1
    41    43    49    1
    42    43    44   ar
    43    45    44   ar
    44    17    16   ar
    45    17    20    1
    46     2     8    1
    47     2     1   ar
    48    16    24    1
    49    44    46    1
    50    25    24    1
    51     6     1   ar
    52     1     9    1
    53    24    26    1
    54     9    10    1
