@<TRIPOS>MOLECULE
mol_data/opt/cam/geoms/mol2/6fl6fl.out
 30 31 0 0 0
SMALL
GASTEIGER

@<TRIPOS>ATOM
      1 C          -4.5687   -2.1885   -0.0001 C.ar    1  LIG1        0.2130
      2 C          -3.1858   -2.2808   -0.0002 C.ar    1  LIG1        0.0033
      3 C          -2.4728   -1.0912   -0.0002 C.ar    1  LIG1       -0.0128
      4 C          -3.1254    0.1350   -0.0002 C.ar    1  LIG1        0.1464
      5 C          -4.5445    0.1538   -0.0002 C.ar    1  LIG1        0.1215
      6 N          -5.1908   -1.0243   -0.0002 N.ar    1  LIG1       -0.2092
      7 H          -1.3916   -1.1315   -0.0002 H       1  LIG1        0.0656
      8 H          -2.6759   -3.2379   -0.0001 H       1  LIG1        0.0672
      9 O          -5.3932   -3.2606   -0.0001 O.3     1  LIG1       -0.4924
     10 H          -4.8708   -4.0709   -0.0001 H       1  LIG1        0.2937
     11 O          -2.4476    1.3171   -0.0002 O.3     1  LIG1       -0.4930
     12 C          -1.0361    1.2923   -0.0002 C.3     1  LIG1        0.0789
     13 H          -0.7172    2.3341   -0.0002 H       1  LIG1        0.0660
     14 H          -0.6409    0.7967    0.8939 H       1  LIG1        0.0660
     15 H          -0.6409    0.7967   -0.8943 H       1  LIG1        0.0660
     16 C          -6.8308    1.2458   -0.0000 C.ar    1  LIG1        0.2220
     17 C          -5.4087    1.3576   -0.0002 C.ar    1  LIG1        0.0688
     18 C          -4.8869    2.6635   -0.0004 C.ar    1  LIG1       -0.0040
     19 C          -5.7315    3.7566   -0.0004 C.ar    1  LIG1        0.1390
     20 C          -7.1051    3.5223   -0.0002 C.ar    1  LIG1        0.0730
     21 N          -7.6306    2.3129   -0.0000 N.ar    1  LIG1       -0.2172
     22 H          -3.8197    2.7991   -0.0006 H       1  LIG1        0.0663
     23 H          -7.7877    4.3696   -0.0002 H       1  LIG1        0.0868
     24 O          -7.4790    0.0855    0.0001 O.3     1  LIG1       -0.4919
     25 H          -6.7921   -0.6306    0.0000 H       1  LIG1        0.2937
     26 O          -5.3363    5.0638   -0.0006 O.3     1  LIG1       -0.4936
     27 C          -3.9534    5.3244   -0.0009 C.3     1  LIG1        0.0789
     28 H          -3.8447    6.4091   -0.0010 H       1  LIG1        0.0660
     29 H          -3.4624    4.9151    0.8912 H       1  LIG1        0.0660
     30 H          -3.4627    4.9149   -0.8931 H       1  LIG1        0.0660
@<TRIPOS>BOND
     1    15    12    1
     2    30    27    1
     3    28    27    1
     4    27    26    1
     5    27    29    1
     6    26    19    1
     7    22    18    1
     8    18    19   ar
     9    18    17   ar
    10    19    20   ar
    11    17     5    1
    12    17    16   ar
    13    11     4    1
    14    11    12    1
    15    20    23    1
    16    20    21   ar
    17     4     5   ar
    18     4     3   ar
    19     5     6   ar
    20     7     3    1
    21     3     2   ar
    22    13    12    1
    23    12    14    1
    24     6     1   ar
    25     2     8    1
    26     2     1   ar
    27     1     9    1
    28     9    10    1
    29    16    21   ar
    30    16    24    1
    31    25    24    1
