@<TRIPOS>MOLECULE
mol_data/opt/cam/geoms/mol2/6fl6fl6fl6fl.out
 58 61 0 0 0
SMALL
GASTEIGER

@<TRIPOS>ATOM
      1 C          -4.6175   -2.3963   -0.0003 C.ar    1  LIG1        0.2130
      2 C          -3.2419   -2.5788   -0.0005 C.ar    1  LIG1        0.0033
      3 C          -2.4492   -1.4417   -0.0005 C.ar    1  LIG1       -0.0128
      4 C          -3.0186   -0.1738   -0.0005 C.ar    1  LIG1        0.1464
      5 C          -4.4302   -0.0639   -0.0003 C.ar    1  LIG1        0.1215
      6 N          -5.1602   -1.1928   -0.0003 N.ar    1  LIG1       -0.2092
      7 H          -1.3732   -1.5551   -0.0006 H       1  LIG1        0.0656
      8 H          -2.7983   -3.5682   -0.0005 H       1  LIG1        0.0672
      9 O          -5.5106   -3.4089   -0.0003 O.3     1  LIG1       -0.4924
     10 H          -5.0476   -4.2548   -0.0003 H       1  LIG1        0.2937
     11 O          -2.2706    0.9648   -0.0005 O.3     1  LIG1       -0.4930
     12 C          -0.8618    0.8513   -0.0006 C.3     1  LIG1        0.0789
     13 H          -0.4781    1.8709   -0.0006 H       1  LIG1        0.0660
     14 H          -0.4997    0.3321    0.8937 H       1  LIG1        0.0660
     15 H          -0.4999    0.3322   -0.8950 H       1  LIG1        0.0660
     16 C          -6.6297    1.1740    0.0000 C.ar    1  LIG1        0.2226
     17 C          -5.2099    1.1915   -0.0002 C.ar    1  LIG1        0.0689
     18 C          -4.6317    2.4676   -0.0003 C.ar    1  LIG1       -0.0034
     19 C          -5.3861    3.6265   -0.0002 C.ar    1  LIG1        0.1470
     20 C          -6.7951    3.5245    0.0000 C.ar    1  LIG1        0.1215
     21 N          -7.3345    2.2973    0.0001 N.ar    1  LIG1       -0.2086
     22 H          -3.5585    2.5381   -0.0004 H       1  LIG1        0.0663
     23 O          -7.3635    0.0715    0.0001 O.3     1  LIG1       -0.4919
     24 H          -6.7272   -0.6961   -0.0000 H       1  LIG1        0.2937
     25 O          -4.8152    4.8696   -0.0003 O.3     1  LIG1       -0.4929
     26 C          -3.4081    4.9644   -0.0005 C.3     1  LIG1        0.0789
     27 H          -3.1770    6.0295   -0.0006 H       1  LIG1        0.0660
     28 H          -2.9716    4.5024    0.8927 H       1  LIG1        0.0660
     29 H          -2.9719    4.5024   -0.8938 H       1  LIG1        0.0660
     30 C          -9.1579    4.3981    0.0004 C.ar    1  LIG1        0.2226
     31 C          -7.7591    4.6393    0.0002 C.ar    1  LIG1        0.0689
     32 C          -7.3887    5.9906    0.0002 C.ar    1  LIG1       -0.0034
     33 C          -8.3153    7.0158    0.0004 C.ar    1  LIG1        0.1470
     34 C          -9.6943    6.6952    0.0005 C.ar    1  LIG1        0.1215
     35 N         -10.0303    5.3980    0.0006 N.ar    1  LIG1       -0.2086
     36 H          -6.3390    6.2257    0.0001 H       1  LIG1        0.0663
     37 O          -9.7037    3.1931    0.0004 O.3     1  LIG1       -0.4919
     38 H          -8.9456    2.5377    0.0003 H       1  LIG1        0.2937
     39 O          -7.9392    8.3319    0.0003 O.3     1  LIG1       -0.4929
     40 C          -6.5644    8.6404    0.0002 C.3     1  LIG1        0.0789
     41 H          -6.4994    9.7285    0.0002 H       1  LIG1        0.0660
     42 H          -6.0610    8.2508    0.8930 H       1  LIG1        0.0660
     43 H          -6.0613    8.2509   -0.8928 H       1  LIG1        0.0660
     44 C         -12.1757    7.1868    0.0009 C.ar    1  LIG1        0.2220
     45 C         -10.8247    7.6484    0.0007 C.ar    1  LIG1        0.0688
     46 C         -10.6396    9.0421    0.0007 C.ar    1  LIG1       -0.0040
     47 C         -11.7278    9.8924    0.0009 C.ar    1  LIG1        0.1390
     48 C         -13.0013    9.3262    0.0011 C.ar    1  LIG1        0.0730
     49 N         -13.2149    8.0248    0.0011 N.ar    1  LIG1       -0.2172
     50 H          -9.6369    9.4327    0.0006 H       1  LIG1        0.0663
     51 H         -13.8711    9.9802    0.0012 H       1  LIG1        0.0868
     52 O         -12.5104    5.9039    0.0009 O.3     1  LIG1       -0.4919
     53 H         -11.6578    5.3835    0.0008 H       1  LIG1        0.2937
     54 O         -11.6675   11.2582    0.0009 O.3     1  LIG1       -0.4936
     55 C         -10.3908   11.8488    0.0007 C.3     1  LIG1        0.0789
     56 H         -10.5503   12.9275    0.0008 H       1  LIG1        0.0660
     57 H          -9.8138   11.5718    0.8924 H       1  LIG1        0.0660
     58 H          -9.8141   11.5718   -0.8911 H       1  LIG1        0.0660
@<TRIPOS>BOND
     1    15    12    1
     2    29    26    1
     3    43    40    1
     4    58    55    1
     5     7     3    1
     6    13    12    1
     7    12    11    1
     8    12    14    1
     9    27    26    1
    10     8     2    1
    11     3     2   ar
    12     3     4   ar
    13    26    25    1
    14    26    28    1
    15    11     4    1
    16     2     1   ar
    17     4     5   ar
    18    22    18    1
    19     1     9    1
    20     1     6   ar
    21    10     9    1
    22     5     6   ar
    23     5    17    1
    24    18    17   ar
    25    18    19   ar
    26    25    19    1
    27    17    16   ar
    28    19    20   ar
    29    24    23    1
    30    16    23    1
    31    16    21   ar
    32    20    21   ar
    33    20    31    1
    34    36    32    1
    35    40    41    1
    36    40    39    1
    37    40    42    1
    38    32    31   ar
    39    32    33   ar
    40    31    30   ar
    41    38    37    1
    42    39    33    1
    43    33    34   ar
    44    30    37    1
    45    30    35   ar
    46    34    35   ar
    47    34    45    1
    48    50    46    1
    49    46    45   ar
    50    46    47   ar
    51    45    44   ar
    52    55    56    1
    53    55    54    1
    54    55    57    1
    55    53    52    1
    56    47    54    1
    57    47    48   ar
    58    44    52    1
    59    44    49   ar
    60    48    49   ar
    61    48    51    1
