@<TRIPOS>MOLECULE
mol_data/opt/cam/geoms/mol2/6fl6fl-.out
 30 31 0 0 0
SMALL
GASTEIGER

@<TRIPOS>ATOM
      1 C          -4.4859   -2.0669    0.6236 C.ar    1  LIG1        0.2130
      2 C          -3.1549   -2.1651    0.2265 C.ar    1  LIG1        0.0033
      3 C          -2.5159   -1.0163   -0.2166 C.ar    1  LIG1       -0.0128
      4 C          -3.2125    0.1867   -0.2350 C.ar    1  LIG1        0.1464
      5 C          -4.5326    0.1924    0.2431 C.ar    1  LIG1        0.1215
      6 N          -5.1473   -0.9230    0.6342 N.ar    1  LIG1       -0.2092
      7 H          -1.4889   -1.0711   -0.5559 H       1  LIG1        0.0656
      8 H          -2.6286   -3.1142    0.2502 H       1  LIG1        0.0672
      9 O          -5.2051   -3.1406    1.0402 O.3     1  LIG1       -0.4924
     10 H          -4.6512   -3.9284    0.9980 H       1  LIG1        0.2937
     11 O          -2.7255    1.3554   -0.7224 O.3     1  LIG1       -0.4930
     12 C          -1.3411    1.4442   -0.9689 C.3     1  LIG1        0.0789
     13 H          -1.1465    2.4802   -1.2450 H       1  LIG1        0.0660
     14 H          -0.7576    1.1931   -0.0753 H       1  LIG1        0.0660
     15 H          -1.0313    0.7929   -1.7957 H       1  LIG1        0.0660
     16 C          -4.9001    2.6144    0.9308 C.ar    1  LIG1        0.2220
     17 C          -5.3367    1.4388    0.2886 C.ar    1  LIG1        0.0688
     18 C          -6.6054    1.4651   -0.2554 C.ar    1  LIG1       -0.0040
     19 C          -7.3742    2.6305   -0.2025 C.ar    1  LIG1        0.1390
     20 C          -6.8293    3.7408    0.4219 C.ar    1  LIG1        0.0730
     21 N          -5.6136    3.7183    0.9864 N.ar    1  LIG1       -0.2172
     22 H          -7.0133    0.5788   -0.7274 H       1  LIG1        0.0663
     23 H          -7.3667    4.6800    0.4924 H       1  LIG1        0.0868
     24 O          -3.7079    2.6204    1.5671 O.3     1  LIG1       -0.4919
     25 H          -3.6321    3.5035    1.9568 H       1  LIG1        0.2937
     26 O          -8.6060    2.5745   -0.7798 O.3     1  LIG1       -0.4936
     27 C          -9.4031    3.7365   -0.7256 C.3     1  LIG1        0.0789
     28 H         -10.3391    3.4893   -1.2261 H       1  LIG1        0.0660
     29 H          -9.6155    4.0329    0.3088 H       1  LIG1        0.0660
     30 H          -8.9286    4.5776   -1.2459 H       1  LIG1        0.0660
@<TRIPOS>BOND
     1    15    12    1
     2    30    27    1
     3    13    12    1
     4    28    27    1
     5    12    11    1
     6    12    14    1
     7    26    27    1
     8    26    19    1
     9    22    18    1
    10    27    29    1
    11    11     4    1
    12     7     3    1
    13    18    19   ar
    14    18    17   ar
    15     4     3   ar
    16     4     5   ar
    17     3     2   ar
    18    19    20   ar
    19     2     8    1
    20     2     1   ar
    21     5    17    1
    22     5     6   ar
    23    17    16   ar
    24    20    23    1
    25    20    21   ar
    26     1     6   ar
    27     1     9    1
    28    16    21   ar
    29    16    24    1
    30    10     9    1
    31    24    25    1
