@<TRIPOS>MOLECULE
mol_data/opt/cam/geoms/mol2/6fl6fl6fl6fl-.out
 58 61 0 0 0
SMALL
GASTEIGER

@<TRIPOS>ATOM
      1 C          -4.5911   -2.3391    0.4316 C.ar    1  LIG1        0.2130
      2 C          -3.2312   -2.5177    0.2222 C.ar    1  LIG1        0.0033
      3 C          -2.4742   -1.3871   -0.0456 C.ar    1  LIG1       -0.0128
      4 C          -3.0630   -0.1295   -0.0929 C.ar    1  LIG1        0.1464
      5 C          -4.4541   -0.0220    0.1489 C.ar    1  LIG1        0.1215
      6 N          -5.1518   -1.1442    0.3951 N.ar    1  LIG1       -0.2092
      7 H          -1.4123   -1.4984   -0.2211 H       1  LIG1        0.0656
      8 H          -2.7730   -3.4997    0.2594 H       1  LIG1        0.0672
      9 O          -5.4509   -3.3494    0.6869 O.3     1  LIG1       -0.4924
     10 H          -4.9767   -4.1890    0.6898 H       1  LIG1        0.2937
     11 O          -2.3574    1.0020   -0.3717 O.3     1  LIG1       -0.4930
     12 C          -0.9876    0.8830   -0.6972 C.3     1  LIG1        0.0789
     13 H          -0.6438    1.8914   -0.9247 H       1  LIG1        0.0660
     14 H          -0.4052    0.4872    0.1426 H       1  LIG1        0.0660
     15 H          -0.8379    0.2458   -1.5758 H       1  LIG1        0.0660
     16 C          -6.6589    1.2017    0.2238 C.ar    1  LIG1        0.2226
     17 C          -5.2429    1.2268    0.1432 C.ar    1  LIG1        0.0689
     18 C          -4.6718    2.5050    0.0784 C.ar    1  LIG1       -0.0034
     19 C          -5.4353    3.6569    0.0556 C.ar    1  LIG1        0.1470
     20 C          -6.8441    3.5428    0.0776 C.ar    1  LIG1        0.1215
     21 N          -7.3748    2.3170    0.1739 N.ar    1  LIG1       -0.2086
     22 H          -3.5990    2.5816    0.0506 H       1  LIG1        0.0663
     23 O          -7.3795    0.0955    0.3500 O.3     1  LIG1       -0.4919
     24 H          -6.7351   -0.6588    0.4285 H       1  LIG1        0.2937
     25 O          -4.8795    4.9050    0.0227 O.3     1  LIG1       -0.4929
     26 C          -3.4767    5.0189    0.1018 C.3     1  LIG1        0.0789
     27 H          -3.2606    6.0871    0.1063 H       1  LIG1        0.0660
     28 H          -3.0868    4.5688    1.0223 H       1  LIG1        0.0660
     29 H          -2.9816    4.5568   -0.7607 H       1  LIG1        0.0660
     30 C          -9.1941    4.4545    0.3041 C.ar    1  LIG1        0.2226
     31 C          -7.8075    4.6599    0.0277 C.ar    1  LIG1        0.0689
     32 C          -7.4405    5.9638   -0.3216 C.ar    1  LIG1       -0.0034
     33 C          -8.3692    6.9887   -0.3292 C.ar    1  LIG1        0.1470
     34 C          -9.6787    6.6984    0.0652 C.ar    1  LIG1        0.1215
     35 N         -10.0662    5.4549    0.3346 N.ar    1  LIG1       -0.2086
     36 H          -6.4207    6.1669   -0.6067 H       1  LIG1        0.0663
     37 O          -9.7122    3.2600    0.5612 O.3     1  LIG1       -0.4919
     38 H          -8.9792    2.5951    0.4470 H       1  LIG1        0.2937
     39 O          -8.0871    8.2515   -0.7726 O.3     1  LIG1       -0.4929
     40 C          -6.8901    8.8362   -0.3021 C.3     1  LIG1        0.0789
     41 H          -6.9184    9.8835   -0.6061 H       1  LIG1        0.0660
     42 H          -6.8298    8.7777    0.7890 H       1  LIG1        0.0660
     43 H          -6.0010    8.3701   -0.7444 H       1  LIG1        0.0660
     44 C         -10.5613    8.9684    0.8158 C.ar    1  LIG1        0.2220
     45 C         -10.7288    7.7431    0.1409 C.ar    1  LIG1        0.0688
     46 C         -11.9734    7.5079   -0.4100 C.ar    1  LIG1       -0.0040
     47 C         -12.9764    8.4771   -0.3349 C.ar    1  LIG1        0.1390
     48 C         -12.6880    9.6626    0.3212 C.ar    1  LIG1        0.0730
     49 N         -11.4977    9.8888    0.8953 N.ar    1  LIG1       -0.2172
     50 H         -12.1756    6.5635   -0.9017 H       1  LIG1        0.0663
     51 H         -13.4166   10.4607    0.4113 H       1  LIG1        0.0868
     52 O          -9.4038    9.2219    1.4709 O.3     1  LIG1       -0.4919
     53 H          -9.5373   10.0853    1.8886 H       1  LIG1        0.2937
     54 O         -14.1661    8.1707   -0.9226 O.3     1  LIG1       -0.4936
     55 C         -15.1964    9.1292   -0.8425 C.3     1  LIG1        0.0789
     56 H         -16.0566    8.6979   -1.3543 H       1  LIG1        0.0660
     57 H         -15.4680    9.3451    0.1981 H       1  LIG1        0.0660
     58 H         -14.9167   10.0672   -1.3380 H       1  LIG1        0.0660
@<TRIPOS>BOND
     1    15    12    1
     2    56    55    1
     3    58    55    1
     4    13    12    1
     5    54    55    1
     6    54    47    1
     7    50    46    1
     8    55    57    1
     9    39    33    1
    10    39    40    1
    11    29    26    1
    12    43    40    1
    13    12    11    1
    14    12    14    1
    15    36    32    1
    16    41    40    1
    17    46    47   ar
    18    46    45   ar
    19    11     4    1
    20    47    48   ar
    21    33    32   ar
    22    33    34   ar
    23    32    31   ar
    24    40    42    1
    25     7     3    1
    26     4     3   ar
    27     4     5   ar
    28     3     2   ar
    29    25    19    1
    30    25    26    1
    31    31    20    1
    32    31    30   ar
    33    22    18    1
    34    19    20   ar
    35    19    18   ar
    36    34    45    1
    37    34    35   ar
    38    20    21   ar
    39    18    17   ar
    40    26    27    1
    41    26    28    1
    42    45    44   ar
    43    17     5    1
    44    17    16   ar
    45     5     6   ar
    46    21    16   ar
    47     2     8    1
    48     2     1   ar
    49    16    23    1
    50    30    35   ar
    51    30    37    1
    52    48    51    1
    53    48    49   ar
    54    23    24    1
    55     6     1   ar
    56     1     9    1
    57    38    37    1
    58     9    10    1
    59    44    49   ar
    60    44    52    1
    61    52    53    1
