@<TRIPOS>MOLECULE
mol_data/opt/cam/geoms/mol2/6fl6fl6fl.out
 44 46 0 0 0
SMALL
GASTEIGER

@<TRIPOS>ATOM
      1 C          -4.5694   -2.2895   -0.0001 C.ar    1  LIG1        0.2130
      2 C          -3.1886   -2.4225   -0.0002 C.ar    1  LIG1        0.0033
      3 C          -2.4377   -1.2567   -0.0003 C.ar    1  LIG1       -0.0128
      4 C          -3.0528   -0.0110   -0.0003 C.ar    1  LIG1        0.1464
      5 C          -4.4683    0.0483   -0.0002 C.ar    1  LIG1        0.1215
      6 N          -5.1562   -1.1068   -0.0001 N.ar    1  LIG1       -0.2092
      7 H          -1.3583   -1.3308   -0.0004 H       1  LIG1        0.0656
      8 H          -2.7092   -3.3951   -0.0002 H       1  LIG1        0.0672
      9 O          -5.4252   -3.3348   -0.0000 O.3     1  LIG1       -0.4924
     10 H          -4.9303   -4.1623   -0.0001 H       1  LIG1        0.2937
     11 O          -2.3463    1.1541   -0.0004 O.3     1  LIG1       -0.4930
     12 C          -0.9349    1.0914   -0.0006 C.3     1  LIG1        0.0789
     13 H          -0.5877    2.1240   -0.0006 H       1  LIG1        0.0660
     14 H          -0.5541    0.5853    0.8937 H       1  LIG1        0.0660
     15 H          -0.5543    0.5852   -0.8948 H       1  LIG1        0.0660
     16 C          -6.7089    1.2094   -0.0001 C.ar    1  LIG1        0.2226
     17 C          -5.2920    1.2744   -0.0002 C.ar    1  LIG1        0.0689
     18 C          -4.7601    2.5712   -0.0002 C.ar    1  LIG1       -0.0034
     19 C          -5.5533    3.7027   -0.0002 C.ar    1  LIG1        0.1470
     20 C          -6.9614    3.5546   -0.0001 C.ar    1  LIG1        0.1215
     21 N          -7.4518    2.3078   -0.0000 N.ar    1  LIG1       -0.2086
     22 H          -3.6902    2.6794   -0.0003 H       1  LIG1        0.0663
     23 O          -7.4056    0.0816    0.0000 O.3     1  LIG1       -0.4919
     24 H          -6.7444   -0.6631    0.0000 H       1  LIG1        0.2937
     25 O          -5.0185    4.9618   -0.0002 O.3     1  LIG1       -0.4929
     26 C          -3.6161    5.1009   -0.0003 C.3     1  LIG1        0.0789
     27 H          -3.4194    6.1729   -0.0004 H       1  LIG1        0.0660
     28 H          -3.1642    4.6533    0.8928 H       1  LIG1        0.0660
     29 H          -3.1643    4.6533   -0.8935 H       1  LIG1        0.0660
     30 C          -9.3635    4.3461    0.0000 C.ar    1  LIG1        0.2220
     31 C          -7.9663    4.6386   -0.0001 C.ar    1  LIG1        0.0688
     32 C          -7.6115    5.9993   -0.0001 C.ar    1  LIG1       -0.0040
     33 C          -8.5873    6.9765   -0.0001 C.ar    1  LIG1        0.1390
     34 C          -9.9208    6.5702    0.0000 C.ar    1  LIG1        0.0730
     35 N         -10.2921    5.3050    0.0001 N.ar    1  LIG1       -0.2172
     36 H          -6.5686    6.2644   -0.0002 H       1  LIG1        0.0663
     37 H         -10.7039    7.3258    0.0001 H       1  LIG1        0.0868
     38 O          -9.8538    3.1138    0.0001 O.3     1  LIG1       -0.4919
     39 H          -9.0733    2.4923    0.0001 H       1  LIG1        0.2937
     40 O          -8.3608    8.3242   -0.0001 O.3     1  LIG1       -0.4936
     41 C          -7.0216    8.7553   -0.0003 C.3     1  LIG1        0.0789
     42 H          -7.0489    9.8452   -0.0003 H       1  LIG1        0.0660
     43 H          -6.4830    8.4102    0.8916 H       1  LIG1        0.0660
     44 H          -6.4831    8.4101   -0.8921 H       1  LIG1        0.0660
@<TRIPOS>BOND
     1    15    12    1
     2    29    26    1
     3    44    41    1
     4    13    12    1
     5    12    11    1
     6    12    14    1
     7     7     3    1
     8    11     4    1
     9    27    26    1
    10     3     4   ar
    11     3     2   ar
    12    26    25    1
    13    26    28    1
    14     4     5   ar
    15    42    41    1
    16    22    18    1
    17    41    40    1
    18    41    43    1
    19     8     2    1
    20    25    19    1
    21     2     1   ar
    22    18    19   ar
    23    18    17   ar
    24    36    32    1
    25     5    17    1
    26     5     6   ar
    27    19    20   ar
    28    17    16   ar
    29    40    33    1
    30    32    33   ar
    31    32    31   ar
    32     1     6   ar
    33     1     9    1
    34    20    31    1
    35    20    21   ar
    36    33    34   ar
    37    31    30   ar
    38    16    21   ar
    39    16    23    1
    40    10     9    1
    41    24    23    1
    42    34    37    1
    43    34    35   ar
    44    30    35   ar
    45    30    38    1
    46    39    38    1
