@<TRIPOS>MOLECULE
mol_data/opt/cam/geoms/mol2/6ga.out
 12 12 0 0 0
SMALL
GASTEIGER

@<TRIPOS>ATOM
      1 C          -4.5260   -1.9550    0.0001 C.ar    1  LIG1        0.0939
      2 C          -3.1289   -1.9563   -0.0000 C.ar    1  LIG1       -0.0300
      3 C          -2.4774   -0.7338   -0.0002 C.ar    1  LIG1       -0.0578
      4 C          -3.2273    0.4368   -0.0003 C.ar    1  LIG1       -0.0435
      5 C          -4.6098    0.3225   -0.0002 C.ar    1  LIG1        0.0288
      6 N          -5.2539   -0.8442   -0.0000 N.ar    1  LIG1       -0.2490
      7 H          -1.3927   -0.6967   -0.0003 H       1  LIG1        0.0619
      8 H          -2.5709   -2.8853    0.0001 H       1  LIG1        0.0644
      9 H          -5.2383    1.2096   -0.0003 H       1  LIG1        0.0830
     10 S          -5.5001   -3.4429    0.0003 S.3     1  LIG1       -0.1234
     11 H          -4.4704   -4.3058    0.0003 H       1  LIG1        0.1086
     12 H          -2.7554    1.4123   -0.0004 H       1  LIG1        0.0633
@<TRIPOS>BOND
     1    12     4    1
     2     4     5   ar
     3     4     3   ar
     4     9     5    1
     5     7     3    1
     6     5     6   ar
     7     3     2   ar
     8     6     1   ar
     9     2     1   ar
    10     2     8    1
    11     1    10    1
    12    10    11    1
