@<TRIPOS>MOLECULE
mol_data/opt/cam/geoms/mol2/6ga6ga-6ga.out
 32 34 0 0 0
SMALL
GASTEIGER

@<TRIPOS>ATOM
      1 C          -4.1498   -2.1352    0.2189 C.ar    1  LIG1        0.0946
      2 C          -2.7857   -1.9880   -0.0329 C.ar    1  LIG1       -0.0300
      3 C          -2.3200   -0.7136   -0.3085 C.ar    1  LIG1       -0.0572
      4 C          -3.2016    0.3582   -0.3066 C.ar    1  LIG1       -0.0355
      5 C          -4.5472    0.1229   -0.0183 C.ar    1  LIG1        0.0748
      6 N          -4.9977   -1.1138    0.2265 N.ar    1  LIG1       -0.2406
      7 H          -1.2701   -0.5558   -0.5324 H       1  LIG1        0.0619
      8 H          -2.1174   -2.8405   -0.0241 H       1  LIG1        0.0644
      9 S          -4.9175   -3.6974    0.5695 S.3     1  LIG1       -0.1234
     10 H          -3.8270   -4.4557    0.3709 H       1  LIG1        0.1086
     11 H          -2.8583    1.3559   -0.5487 H       1  LIG1        0.0639
     12 C          -6.8473    1.2283   -0.4064 C.ar    1  LIG1        0.1038
     13 C          -5.5076    1.2558    0.0385 C.ar    1  LIG1        0.0320
     14 C          -5.0665    2.4724    0.5616 C.ar    1  LIG1       -0.0480
     15 C          -5.8806    3.5887    0.5846 C.ar    1  LIG1       -0.0349
     16 C          -7.1672    3.4839    0.0530 C.ar    1  LIG1        0.0748
     17 N          -7.6163    2.3148   -0.4065 N.ar    1  LIG1       -0.2400
     18 H          -4.0678    2.5336    0.9812 H       1  LIG1        0.0626
     19 S          -7.6961   -0.1768   -1.0710 S.3     1  LIG1       -0.1227
     20 H          -6.8355   -1.0921   -0.5834 H       1  LIG1        0.1086
     21 H          -5.5357    4.5132    1.0298 H       1  LIG1        0.0639
     22 C          -9.4563    4.6714    0.1963 C.ar    1  LIG1        0.1031
     23 C          -8.0563    4.6732   -0.0117 C.ar    1  LIG1        0.0320
     24 C          -7.4681    5.9131   -0.2701 C.ar    1  LIG1       -0.0486
     25 C          -8.2204    7.0749   -0.2782 C.ar    1  LIG1       -0.0429
     26 C          -9.5756    6.9583   -0.0094 C.ar    1  LIG1        0.0289
     27 N         -10.1742    5.7948    0.2133 N.ar    1  LIG1       -0.2483
     28 H          -6.4048    5.9574   -0.4813 H       1  LIG1        0.0625
     29 H         -10.2165    7.8365    0.0192 H       1  LIG1        0.0830
     30 S         -10.4603    3.2480    0.5170 S.3     1  LIG1       -0.1228
     31 H          -9.5514    2.3418    0.1060 H       1  LIG1        0.1086
     32 H          -7.7714    8.0390   -0.4851 H       1  LIG1        0.0633
@<TRIPOS>BOND
     1    19    20    1
     2    19    12    1
     3    11     4    1
     4     7     3    1
     5    32    25    1
     6    28    24    1
     7    17    12   ar
     8    17    16   ar
     9    12    13   ar
    10     3     4   ar
    11     3     2   ar
    12     4     5   ar
    13    25    24   ar
    14    25    26   ar
    15    24    23   ar
    16     2     8    1
    17     2     1   ar
    18     5    13    1
    19     5     6   ar
    20    23    16    1
    21    23    22   ar
    22    26    29    1
    23    26    27   ar
    24    13    14   ar
    25    16    15   ar
    26    31    30    1
    27    22    27   ar
    28    22    30    1
    29     1     6   ar
    30     1     9    1
    31    10     9    1
    32    14    15   ar
    33    14    18    1
    34    15    21    1
