@<TRIPOS>MOLECULE
mol_data/opt/cam/geoms/mol2/6ga6ga-6ga-6ga.out
 42 45 0 0 0
SMALL
GASTEIGER

@<TRIPOS>ATOM
      1 C          -3.9158   -2.1710    0.0557 C.ar    1  LIG1        0.0946
      2 C          -2.5417   -1.9299    0.0469 C.ar    1  LIG1       -0.0300
      3 C          -2.1235   -0.6113   -0.0067 C.ar    1  LIG1       -0.0572
      4 C          -3.0631    0.4100   -0.0296 C.ar    1  LIG1       -0.0355
      5 C          -4.4183    0.0781    0.0080 C.ar    1  LIG1        0.0748
      6 N          -4.8196   -1.1988    0.0378 N.ar    1  LIG1       -0.2406
      7 H          -1.0641   -0.3785   -0.0380 H       1  LIG1        0.0619
      8 H          -1.8283   -2.7447    0.0699 H       1  LIG1        0.0644
      9 S          -4.6243   -3.7980    0.1017 S.3     1  LIG1       -0.1234
     10 H          -3.4681   -4.4745    0.0061 H       1  LIG1        0.1086
     11 H          -2.7522    1.4445   -0.1007 H       1  LIG1        0.0639
     12 C          -6.6993    1.1073   -0.6227 C.ar    1  LIG1        0.1038
     13 C          -5.4496    1.1483    0.0331 C.ar    1  LIG1        0.0320
     14 C          -5.1793    2.3132    0.7527 C.ar    1  LIG1       -0.0480
     15 C          -6.0610    3.3773    0.7679 C.ar    1  LIG1       -0.0349
     16 C          -7.2397    3.2733    0.0274 C.ar    1  LIG1        0.0748
     17 N          -7.5313    2.1466   -0.6249 N.ar    1  LIG1       -0.2400
     18 H          -4.2648    2.3727    1.3333 H       1  LIG1        0.0626
     19 S          -7.3370   -0.2475   -1.5672 S.3     1  LIG1       -0.1227
     20 H          -6.5069   -1.1716   -1.0440 H       1  LIG1        0.1086
     21 H          -5.8518    4.2552    1.3656 H       1  LIG1        0.0639
     22 C          -9.6005    4.3115   -0.1019 C.ar    1  LIG1        0.1038
     23 C          -8.1915    4.4114   -0.0452 C.ar    1  LIG1        0.0320
     24 C          -7.6749    5.7078   -0.0122 C.ar    1  LIG1       -0.0480
     25 C          -8.4979    6.8171   -0.0057 C.ar    1  LIG1       -0.0349
     26 C          -9.8793    6.6185   -0.0277 C.ar    1  LIG1        0.0748
     27 N         -10.3878    5.3864   -0.0725 N.ar    1  LIG1       -0.2400
     28 H          -6.5992    5.8462    0.0029 H       1  LIG1        0.0626
     29 S         -10.5391    2.8139   -0.1673 S.3     1  LIG1       -0.1227
     30 H          -9.4950    2.0187   -0.4813 H       1  LIG1        0.1086
     31 H          -8.0785    7.8137    0.0439 H       1  LIG1        0.0639
     32 C         -12.0414    7.8553    0.6529 C.ar    1  LIG1        0.1031
     33 C         -10.8054    7.7820   -0.0317 C.ar    1  LIG1        0.0320
     34 C         -10.4203    8.9213   -0.7413 C.ar    1  LIG1       -0.0486
     35 C         -11.1957   10.0680   -0.7288 C.ar    1  LIG1       -0.0429
     36 C         -12.3597   10.0430    0.0239 C.ar    1  LIG1        0.0289
     37 N         -12.7725    8.9692    0.6864 N.ar    1  LIG1       -0.2483
     38 H          -9.5038    8.8961   -1.3213 H       1  LIG1        0.0625
     39 H         -12.9995   10.9197    0.0922 H       1  LIG1        0.0830
     40 S         -12.7811    6.5529    1.5993 S.3     1  LIG1       -0.1228
     41 H         -12.0410    5.5613    1.0664 H       1  LIG1        0.1086
     42 H         -10.9065   10.9529   -1.2832 H       1  LIG1        0.0633
@<TRIPOS>BOND
     1    19    20    1
     2    19    12    1
     3    38    34    1
     4    42    35    1
     5    34    35   ar
     6    34    33   ar
     7    35    36   ar
     8    17    12   ar
     9    17    16   ar
    10    12    13   ar
    11    30    29    1
    12    29    22    1
    13    22    27   ar
    14    22    23   ar
    15    11     4    1
    16    27    26   ar
    17    23    24   ar
    18    23    16    1
    19     7     3    1
    20    33    26    1
    21    33    32   ar
    22     4     3   ar
    23     4     5   ar
    24    26    25   ar
    25    24    25   ar
    26    24    28    1
    27     3     2   ar
    28    25    31    1
    29    10     9    1
    30     5    13    1
    31     5     6   ar
    32    36    39    1
    33    36    37   ar
    34    16    15   ar
    35    13    14   ar
    36     6     1   ar
    37     2     1   ar
    38     2     8    1
    39     1     9    1
    40    32    37   ar
    41    32    40    1
    42    14    15   ar
    43    14    18    1
    44    15    21    1
    45    41    40    1
