@<TRIPOS>MOLECULE
mol_data/opt/cam/geoms/mol2/6ga6ga-6ga-6ga-.out
 42 45 0 0 0
SMALL
GASTEIGER

@<TRIPOS>ATOM
      1 C          -3.9128   -2.1692    0.0534 C.ar    1  LIG1        0.0946
      2 C          -2.5388   -1.9273    0.0501 C.ar    1  LIG1       -0.0300
      3 C          -2.1211   -0.6083    0.0013 C.ar    1  LIG1       -0.0572
      4 C          -3.0612    0.4125   -0.0224 C.ar    1  LIG1       -0.0355
      5 C          -4.4164    0.0797    0.0096 C.ar    1  LIG1        0.0748
      6 N          -4.8170   -1.1974    0.0348 N.ar    1  LIG1       -0.2406
      7 H          -1.0618   -0.3749   -0.0257 H       1  LIG1        0.0619
      8 H          -1.8250   -2.7417    0.0736 H       1  LIG1        0.0644
      9 S          -4.6205   -3.7967    0.0929 S.3     1  LIG1       -0.1234
     10 H          -3.4636   -4.4723   -0.0003 H       1  LIG1        0.1086
     11 H          -2.7507    1.4474   -0.0899 H       1  LIG1        0.0639
     12 C          -6.6957    1.1093   -0.6267 C.ar    1  LIG1        0.1038
     13 C          -5.4484    1.1493    0.0336 C.ar    1  LIG1        0.0320
     14 C          -5.1813    2.3126    0.7571 C.ar    1  LIG1       -0.0480
     15 C          -6.0636    3.3762    0.7718 C.ar    1  LIG1       -0.0349
     16 C          -7.2396    3.2733    0.0269 C.ar    1  LIG1        0.0748
     17 N          -7.5283    2.1481   -0.6292 N.ar    1  LIG1       -0.2400
     18 H          -4.2689    2.3712    1.3411 H       1  LIG1        0.0626
     19 S          -7.3293   -0.2435   -1.5768 S.3     1  LIG1       -0.1227
     20 H          -6.5005   -1.1685   -1.0529 H       1  LIG1        0.1086
     21 H          -5.8571    4.2527    1.3724 H       1  LIG1        0.0639
     22 C          -9.6005    4.3106   -0.1083 C.ar    1  LIG1        0.1038
     23 C          -8.1918    4.4111   -0.0463 C.ar    1  LIG1        0.0320
     24 C          -7.6760    5.7077   -0.0082 C.ar    1  LIG1       -0.0480
     25 C          -8.4997    6.8165   -0.0019 C.ar    1  LIG1       -0.0349
     26 C          -9.8809    6.6172   -0.0293 C.ar    1  LIG1        0.0748
     27 N         -10.3885    5.3849   -0.0790 N.ar    1  LIG1       -0.2400
     28 H          -6.6005    5.8467    0.0110 H       1  LIG1        0.0626
     29 S         -10.5381    2.8126   -0.1807 S.3     1  LIG1       -0.1227
     30 H          -9.4924    2.0188   -0.4929 H       1  LIG1        0.1086
     31 H          -8.0810    7.8132    0.0516 H       1  LIG1        0.0639
     32 C         -12.0461    7.8511    0.6467 C.ar    1  LIG1        0.1031
     33 C         -10.8076    7.7802   -0.0337 C.ar    1  LIG1        0.0320
     34 C         -10.4207    8.9214   -0.7391 C.ar    1  LIG1       -0.0486
     35 C         -11.1968   10.0677   -0.7266 C.ar    1  LIG1       -0.0429
     36 C         -12.3634   10.0402    0.0219 C.ar    1  LIG1        0.0289
     37 N         -12.7779    8.9645    0.6804 N.ar    1  LIG1       -0.2483
     38 H          -9.5021    8.8982   -1.3160 H       1  LIG1        0.0625
     39 H         -13.0039   10.9164    0.0902 H       1  LIG1        0.0830
     40 S         -12.7884    6.5460    1.5873 S.3     1  LIG1       -0.1228
     41 H         -12.0459    5.5561    1.0545 H       1  LIG1        0.1086
     42 H         -10.9061   10.9541   -1.2778 H       1  LIG1        0.0633
@<TRIPOS>BOND
     1    19    20    1
     2    19    12    1
     3    38    34    1
     4    42    35    1
     5    34    35   ar
     6    34    33   ar
     7    35    36   ar
     8    17    12   ar
     9    17    16   ar
    10    12    13   ar
    11    30    29    1
    12    29    22    1
    13    22    27   ar
    14    22    23   ar
    15    11     4    1
    16    27    26   ar
    17    23    24   ar
    18    23    16    1
    19    33    26    1
    20    33    32   ar
    21    26    25   ar
    22     7     3    1
    23     4     3   ar
    24     4     5   ar
    25    24    25   ar
    26    24    28    1
    27    25    31    1
    28    10     9    1
    29     3     2   ar
    30     5    13    1
    31     5     6   ar
    32    36    39    1
    33    36    37   ar
    34    16    15   ar
    35    13    14   ar
    36     6     1   ar
    37     2     1   ar
    38     2     8    1
    39     1     9    1
    40    32    37   ar
    41    32    40    1
    42    14    15   ar
    43    14    18    1
    44    15    21    1
    45    41    40    1
