@<TRIPOS>MOLECULE
mol_data/opt/cam/geoms/mol2/6ga6ga-.out
 22 23 0 0 0
SMALL
GASTEIGER

@<TRIPOS>ATOM
      1 C          -4.3368   -2.0418    0.3386 C.ar    1  LIG1        0.0946
      2 C          -2.9886   -2.0030   -0.0168 C.ar    1  LIG1       -0.0300
      3 C          -2.4680   -0.7832   -0.4148 C.ar    1  LIG1       -0.0572
      4 C          -3.2807    0.3414   -0.4288 C.ar    1  LIG1       -0.0355
      5 C          -4.6135    0.2152   -0.0321 C.ar    1  LIG1        0.0748
      6 N          -5.1192   -0.9697    0.3317 N.ar    1  LIG1       -0.2406
      7 H          -1.4297   -0.7101   -0.7218 H       1  LIG1        0.0619
      8 H          -2.3749   -2.8953    0.0067 H       1  LIG1        0.0644
      9 S          -5.1701   -3.5246    0.8516 S.3     1  LIG1       -0.1234
     10 H          -4.1410   -4.3620    0.6430 H       1  LIG1        0.1086
     11 H          -2.8973    1.2966   -0.7642 H       1  LIG1        0.0639
     12 C          -6.8526    1.4508   -0.3865 C.ar    1  LIG1        0.1031
     13 C          -5.4959    1.4121    0.0102 C.ar    1  LIG1        0.0320
     14 C          -4.9415    2.6168    0.4462 C.ar    1  LIG1       -0.0486
     15 C          -5.6825    3.7865    0.4455 C.ar    1  LIG1       -0.0429
     16 C          -6.9883    3.7144   -0.0141 C.ar    1  LIG1        0.0289
     17 N          -7.5568    2.5816   -0.4103 N.ar    1  LIG1       -0.2483
     18 H          -3.9165    2.6262    0.8019 H       1  LIG1        0.0625
     19 H          -7.6145    4.6023   -0.0588 H       1  LIG1        0.0830
     20 S          -7.8067    0.0712   -0.9611 S.3     1  LIG1       -0.1228
     21 H          -6.9830   -0.8790   -0.4813 H       1  LIG1        0.1086
     22 H          -5.2609    4.7237    0.7888 H       1  LIG1        0.0633
@<TRIPOS>BOND
     1    20    21    1
     2    20    12    1
     3    11     4    1
     4     7     3    1
     5     4     3   ar
     6     4     5   ar
     7     3     2   ar
     8    17    12   ar
     9    17    16   ar
    10    12    13   ar
    11    19    16    1
    12     5    13    1
    13     5     6   ar
    14     2     8    1
    15     2     1   ar
    16    16    15   ar
    17    13    14   ar
    18     6     1   ar
    19     1     9    1
    20    15    14   ar
    21    15    22    1
    22    14    18    1
    23    10     9    1
