@<TRIPOS>MOLECULE
mol_data/opt/cam/geoms/mol2/6ga6ga6ga6ga-.out
 42 45 0 0 0
SMALL
GASTEIGER

@<TRIPOS>ATOM
      1 C          -3.8565   -2.1235    0.3406 C.ar    1  LIG1        0.0946
      2 C          -2.5289   -1.9170   -0.0355 C.ar    1  LIG1       -0.0300
      3 C          -2.1688   -0.6429   -0.4396 C.ar    1  LIG1       -0.0572
      4 C          -3.1139    0.3736   -0.4398 C.ar    1  LIG1       -0.0355
      5 C          -4.4141    0.0833   -0.0233 C.ar    1  LIG1        0.0748
      6 N          -4.7643   -1.1548    0.3464 N.ar    1  LIG1       -0.2406
      7 H          -1.1523   -0.4425   -0.7619 H       1  LIG1        0.0619
      8 H          -1.8090   -2.7263   -0.0222 H       1  LIG1        0.0644
      9 S          -4.4923   -3.6956    0.8654 S.3     1  LIG1       -0.1234
     10 H          -3.3749   -4.4023    0.6300 H       1  LIG1        0.1086
     11 H          -2.8550    1.3680   -0.7806 H       1  LIG1        0.0639
     12 C          -6.8048    1.0169   -0.2932 C.ar    1  LIG1        0.1038
     13 C          -5.4384    1.1590    0.0336 C.ar    1  LIG1        0.0320
     14 C          -5.0378    2.4359    0.4297 C.ar    1  LIG1       -0.0480
     15 C          -5.9190    3.5005    0.4431 C.ar    1  LIG1       -0.0349
     16 C          -7.2345    3.2782    0.0333 C.ar    1  LIG1        0.0748
     17 N          -7.6409    2.0528   -0.3032 N.ar    1  LIG1       -0.2400
     18 H          -4.0149    2.5884    0.7573 H       1  LIG1        0.0626
     19 S          -7.6084   -0.4822   -0.7840 S.3     1  LIG1       -0.1227
     20 H          -6.6550   -1.3035   -0.3007 H       1  LIG1        0.1086
     21 H          -5.5999    4.4746    0.7913 H       1  LIG1        0.0639
     22 C          -9.5854    4.3219    0.2523 C.ar    1  LIG1        0.1038
     23 C          -8.2041    4.4007   -0.0353 C.ar    1  LIG1        0.0320
     24 C          -7.7313    5.6618   -0.4035 C.ar    1  LIG1       -0.0480
     25 C          -8.5580    6.7683   -0.4257 C.ar    1  LIG1       -0.0349
     26 C          -9.8936    6.6065   -0.0519 C.ar    1  LIG1        0.0748
     27 N         -10.3689    5.3990    0.2558 N.ar    1  LIG1       -0.2400
     28 H          -6.6942    5.7680   -0.7036 H       1  LIG1        0.0626
     29 S         -10.4782    2.8594    0.6927 S.3     1  LIG1       -0.1227
     30 H          -9.5363    1.9974    0.2551 H       1  LIG1        0.1086
     31 H          -8.1835    7.7298   -0.7525 H       1  LIG1        0.0639
     32 C         -12.1757    7.7799   -0.3480 C.ar    1  LIG1        0.1031
     33 C         -10.8064    7.7779    0.0108 C.ar    1  LIG1        0.0320
     34 C         -10.2725    8.9981    0.4308 C.ar    1  LIG1       -0.0486
     35 C         -11.0421   10.1483    0.4496 C.ar    1  LIG1       -0.0429
     36 C         -12.3579   10.0415    0.0256 C.ar    1  LIG1        0.0289
     37 N         -12.9076    8.8945   -0.3534 N.ar    1  LIG1       -0.2483
     38 H          -9.2394    9.0349    0.7603 H       1  LIG1        0.0625
     39 H         -13.0077   10.9131   -0.0028 H       1  LIG1        0.0830
     40 S         -13.1134    6.3780   -0.8875 S.3     1  LIG1       -0.1228
     41 H         -12.2360    5.4507   -0.4546 H       1  LIG1        0.1086
     42 H         -10.6358   11.0964    0.7812 H       1  LIG1        0.0633
@<TRIPOS>BOND
     1    40    41    1
     2    40    32    1
     3    19    20    1
     4    19    12    1
     5    11     4    1
     6     7     3    1
     7    31    25    1
     8    28    24    1
     9     4     3   ar
    10     4     5   ar
    11     3     2   ar
    12    25    24   ar
    13    25    26   ar
    14    24    23   ar
    15    37    32   ar
    16    37    36   ar
    17    32    33   ar
    18    17    12   ar
    19    17    16   ar
    20    12    13   ar
    21    26    33    1
    22    26    27   ar
    23     2     8    1
    24     2     1   ar
    25    23    16    1
    26    23    22   ar
    27     5    13    1
    28     5     6   ar
    29    39    36    1
    30    33    34   ar
    31    36    35   ar
    32    16    15   ar
    33    13    14   ar
    34    22    27   ar
    35    22    29    1
    36    30    29    1
    37     1     6   ar
    38     1     9    1
    39    14    15   ar
    40    14    18    1
    41    34    35   ar
    42    34    38    1
    43    15    21    1
    44    35    42    1
    45    10     9    1
