@<TRIPOS>MOLECULE
mol_data/opt/cam/geoms/mol2/6ga6ga6ga-6ga.out
 42 45 0 0 0
SMALL
GASTEIGER

@<TRIPOS>ATOM
      1 C          -3.8525   -2.1210   -0.3418 C.ar    1  LIG1        0.0946
      2 C          -2.5282   -1.9163    0.0467 C.ar    1  LIG1       -0.0300
      3 C          -2.1718   -0.6442    0.4605 C.ar    1  LIG1       -0.0572
      4 C          -3.1171    0.3721    0.4579 C.ar    1  LIG1       -0.0355
      5 C          -4.4136    0.0837    0.0287 C.ar    1  LIG1        0.0748
      6 N          -4.7604   -1.1525   -0.3503 N.ar    1  LIG1       -0.2406
      7 H          -1.1582   -0.4454    0.7926 H       1  LIG1        0.0619
      8 H          -1.8081   -2.7254    0.0354 H       1  LIG1        0.0644
      9 S          -4.4835   -3.6905   -0.8802 S.3     1  LIG1       -0.1234
     10 H          -3.3680   -4.3982   -0.6389 H       1  LIG1        0.1086
     11 H          -2.8613    1.3647    0.8061 H       1  LIG1        0.0639
     12 C          -6.8068    1.0156    0.2831 C.ar    1  LIG1        0.1038
     13 C          -5.4377    1.1596   -0.0313 C.ar    1  LIG1        0.0320
     14 C          -5.0339    2.4385   -0.4173 C.ar    1  LIG1       -0.0480
     15 C          -5.9152    3.5031   -0.4328 C.ar    1  LIG1       -0.0349
     16 C          -7.2341    3.2784   -0.0353 C.ar    1  LIG1        0.0748
     17 N          -7.6432    2.0512    0.2913 N.ar    1  LIG1       -0.2400
     18 H          -4.0083    2.5929   -0.7354 H       1  LIG1        0.0626
     19 S          -7.6142   -0.4862    0.7592 S.3     1  LIG1       -0.1227
     20 H          -6.6566   -1.3048    0.2798 H       1  LIG1        0.1086
     21 H          -5.5934    4.4790   -0.7731 H       1  LIG1        0.0639
     22 C          -9.5833    4.3229   -0.2690 C.ar    1  LIG1        0.1038
     23 C          -8.2046    4.4004    0.0308 C.ar    1  LIG1        0.0320
     24 C          -7.7351    5.6596    0.4096 C.ar    1  LIG1       -0.0480
     25 C          -8.5623    6.7659    0.4304 C.ar    1  LIG1       -0.0349
     26 C          -9.8946    6.6058    0.0444 C.ar    1  LIG1        0.0748
     27 N         -10.3669    5.3999   -0.2736 N.ar    1  LIG1       -0.2400
     28 H          -6.7007    5.7645    0.7190 H       1  LIG1        0.0626
     29 S         -10.4720    2.8625   -0.7246 S.3     1  LIG1       -0.1227
     30 H          -9.5336    1.9985   -0.2834 H       1  LIG1        0.1086
     31 H          -8.1907    7.7257    0.7654 H       1  LIG1        0.0639
     32 C         -12.1794    7.7773    0.3270 C.ar    1  LIG1        0.1031
     33 C         -10.8070    7.7773   -0.0200 C.ar    1  LIG1        0.0320
     34 C         -10.2698    8.9998   -0.4291 C.ar    1  LIG1       -0.0486
     35 C         -11.0395   10.1500   -0.4486 C.ar    1  LIG1       -0.0429
     36 C         -12.3589   10.0407   -0.0364 C.ar    1  LIG1        0.0289
     37 N         -12.9116    8.8917    0.3320 N.ar    1  LIG1       -0.2483
     38 H          -9.2340    9.0385   -0.7496 H       1  LIG1        0.0625
     39 H         -13.0091   10.9121   -0.0090 H       1  LIG1        0.0830
     40 S         -13.1213    6.3724    0.8513 S.3     1  LIG1       -0.1228
     41 H         -12.2402    5.4475    0.4210 H       1  LIG1        0.1086
     42 H         -10.6305   11.0999   -0.7718 H       1  LIG1        0.0633
@<TRIPOS>BOND
     1     9    10    1
     2     9     1    1
     3    21    15    1
     4    42    35    1
     5    38    34    1
     6    18    14    1
     7    29    30    1
     8    29    22    1
     9    35    34   ar
    10    35    36   ar
    11    15    14   ar
    12    15    16   ar
    13    34    33   ar
    14    14    13   ar
    15     6     1   ar
    16     6     5   ar
    17     1     2   ar
    18    27    22   ar
    19    27    26   ar
    20    22    23   ar
    21    36    39    1
    22    36    37   ar
    23    16    23    1
    24    16    17   ar
    25    13     5    1
    26    13    12   ar
    27    33    26    1
    28    33    32   ar
    29     5     4   ar
    30    23    24   ar
    31     8     2    1
    32    26    25   ar
    33     2     3   ar
    34    20    19    1
    35    12    17   ar
    36    12    19    1
    37    32    37   ar
    38    32    40    1
    39    24    25   ar
    40    24    28    1
    41    41    40    1
    42    25    31    1
    43     4     3   ar
    44     4    11    1
    45     3     7    1
