@<TRIPOS>MOLECULE
mol_data/opt/cam/geoms/mol2/6ga6ga.out
 22 23 0 0 0
SMALL
GASTEIGER

@<TRIPOS>ATOM
      1 C          -4.3335   -2.0401   -0.3478 C.ar    1  LIG1        0.0946
      2 C          -2.9888   -2.0031    0.0208 C.ar    1  LIG1       -0.0300
      3 C          -2.4721   -0.7854    0.4301 C.ar    1  LIG1       -0.0572
      4 C          -3.2849    0.3391    0.4422 C.ar    1  LIG1       -0.0355
      5 C          -4.6139    0.2150    0.0320 C.ar    1  LIG1        0.0748
      6 N          -5.1160   -0.9680   -0.3429 N.ar    1  LIG1       -0.2406
      7 H          -1.4368   -0.7140    0.7475 H       1  LIG1        0.0619
      8 H          -2.3749   -2.8953   -0.0014 H       1  LIG1        0.0644
      9 S          -5.1618   -3.5201   -0.8765 S.3     1  LIG1       -0.1234
     10 H          -4.1348   -4.3586   -0.6623 H       1  LIG1        0.1086
     11 H          -2.9047    1.2925    0.7862 H       1  LIG1        0.0639
     12 C          -6.8563    1.4488    0.3709 C.ar    1  LIG1        0.1031
     13 C          -5.4957    1.4122   -0.0126 C.ar    1  LIG1        0.0320
     14 C          -4.9372    2.6192   -0.4369 C.ar    1  LIG1       -0.0486
     15 C          -5.6782    3.7888   -0.4373 C.ar    1  LIG1       -0.0429
     16 C          -6.9884    3.7143    0.0092 C.ar    1  LIG1        0.0289
     17 N          -7.5607    2.5795    0.3938 N.ar    1  LIG1       -0.2483
     18 H          -3.9087    2.6303   -0.7825 H       1  LIG1        0.0625
     19 H          -7.6151    4.6020    0.0524 H       1  LIG1        0.0830
     20 S          -7.8159    0.0663    0.9290 S.3     1  LIG1       -0.1228
     21 H          -6.9875   -0.8815    0.4524 H       1  LIG1        0.1086
     22 H          -5.2533    4.7279   -0.7714 H       1  LIG1        0.0633
@<TRIPOS>BOND
     1     9    10    1
     2     9     1    1
     3    18    14    1
     4    22    15    1
     5    15    14   ar
     6    15    16   ar
     7    14    13   ar
     8     1     6   ar
     9     1     2   ar
    10     6     5   ar
    11    13     5    1
    12    13    12   ar
    13     8     2    1
    14    16    19    1
    15    16    17   ar
    16     2     3   ar
    17     5     4   ar
    18    12    17   ar
    19    12    20    1
    20     3     4   ar
    21     3     7    1
    22     4    11    1
    23    21    20    1
