@<TRIPOS>MOLECULE
mol_data/opt/cam/geoms/mol2/6ga6ga-6ga-.out
 32 34 0 0 0
SMALL
GASTEIGER

@<TRIPOS>ATOM
      1 C          -4.1508   -2.1357    0.2182 C.ar    1  LIG1        0.0946
      2 C          -2.7851   -1.9876   -0.0244 C.ar    1  LIG1       -0.0300
      3 C          -2.3178   -0.7123   -0.2929 C.ar    1  LIG1       -0.0572
      4 C          -3.1995    0.3594   -0.2935 C.ar    1  LIG1       -0.0355
      5 C          -4.5469    0.1231   -0.0147 C.ar    1  LIG1        0.0748
      6 N          -4.9989   -1.1144    0.2234 N.ar    1  LIG1       -0.2406
      7 H          -1.2665   -0.5537   -0.5095 H       1  LIG1        0.0619
      8 H          -2.1168   -2.8400   -0.0138 H       1  LIG1        0.0644
      9 S          -4.9206   -3.6990    0.5589 S.3     1  LIG1       -0.1234
     10 H          -3.8288   -4.4566    0.3649 H       1  LIG1        0.1086
     11 H          -2.8547    1.3579   -0.5302 H       1  LIG1        0.0639
     12 C          -6.8446    1.2295   -0.4143 C.ar    1  LIG1        0.1038
     13 C          -5.5079    1.2557    0.0394 C.ar    1  LIG1        0.0320
     14 C          -5.0702    2.4708    0.5691 C.ar    1  LIG1       -0.0480
     15 C          -5.8846    3.5869    0.5902 C.ar    1  LIG1       -0.0349
     16 C          -7.1677    3.4836    0.0499 C.ar    1  LIG1        0.0748
     17 N          -7.6137    2.3159   -0.4160 N.ar    1  LIG1       -0.2400
     18 H          -4.0744    2.5307    0.9953 H       1  LIG1        0.0626
     19 S          -7.6890   -0.1737   -1.0886 S.3     1  LIG1       -0.1227
     20 H          -6.8314   -1.0904   -0.5982 H       1  LIG1        0.1086
     21 H          -5.5427    4.5100    1.0405 H       1  LIG1        0.0639
     22 C          -9.4578    4.6706    0.1821 C.ar    1  LIG1        0.1031
     23 C          -8.0564    4.6730   -0.0169 C.ar    1  LIG1        0.0320
     24 C          -7.4667    5.9138   -0.2678 C.ar    1  LIG1       -0.0486
     25 C          -8.2191    7.0755   -0.2772 C.ar    1  LIG1       -0.0429
     26 C          -9.5760    6.9581   -0.0175 C.ar    1  LIG1        0.0289
     27 N         -10.1758    5.7938    0.1978 N.ar    1  LIG1       -0.2483
     28 H          -6.4021    5.9588   -0.4720 H       1  LIG1        0.0625
     29 H         -10.2171    7.8361    0.0097 H       1  LIG1        0.0830
     30 S         -10.4637    3.2461    0.4919 S.3     1  LIG1       -0.1228
     31 H          -9.5519    2.3412    0.0844 H       1  LIG1        0.1086
     32 H          -7.7688    8.0403   -0.4782 H       1  LIG1        0.0633
@<TRIPOS>BOND
     1    19    20    1
     2    19    12    1
     3    11     4    1
     4     7     3    1
     5    32    25    1
     6    28    24    1
     7    17    12   ar
     8    17    16   ar
     9    12    13   ar
    10     4     3   ar
    11     4     5   ar
    12     3     2   ar
    13    25    24   ar
    14    25    26   ar
    15    24    23   ar
    16     2     8    1
    17     2     1   ar
    18    26    29    1
    19    26    27   ar
    20    23    16    1
    21    23    22   ar
    22     5    13    1
    23     5     6   ar
    24    13    14   ar
    25    16    15   ar
    26    31    30    1
    27    22    27   ar
    28    22    30    1
    29     1     6   ar
    30     1     9    1
    31    10     9    1
    32    14    15   ar
    33    14    18    1
    34    15    21    1
