@<TRIPOS>MOLECULE
mol_data/opt/cam/geoms/mol2/6ga6ga-6ga6ga-.out
 42 45 0 0 0
SMALL
GASTEIGER

@<TRIPOS>ATOM
      1 C          -3.8564   -2.1232    0.3409 C.ar    1  LIG1        0.0946
      2 C          -2.5278   -1.9161   -0.0309 C.ar    1  LIG1       -0.0300
      3 C          -2.1666   -0.6414   -0.4325 C.ar    1  LIG1       -0.0572
      4 C          -3.1119    0.3749   -0.4346 C.ar    1  LIG1       -0.0355
      5 C          -4.4133    0.0839   -0.0224 C.ar    1  LIG1        0.0748
      6 N          -4.7644   -1.1546    0.3448 N.ar    1  LIG1       -0.2406
      7 H          -1.1492   -0.4405   -0.7516 H       1  LIG1        0.0619
      8 H          -1.8078   -2.7252   -0.0163 H       1  LIG1        0.0644
      9 S          -4.4936   -3.6960    0.8620 S.3     1  LIG1       -0.1234
     10 H          -3.3753   -4.4022    0.6293 H       1  LIG1        0.1086
     11 H          -2.8521    1.3697   -0.7736 H       1  LIG1        0.0639
     12 C          -6.8034    1.0174   -0.2987 C.ar    1  LIG1        0.1038
     13 C          -5.4381    1.1594    0.0325 C.ar    1  LIG1        0.0320
     14 C          -5.0388    2.4359    0.4312 C.ar    1  LIG1       -0.0480
     15 C          -5.9203    3.5004    0.4430 C.ar    1  LIG1       -0.0349
     16 C          -7.2345    3.2782    0.0289 C.ar    1  LIG1        0.0748
     17 N          -7.6397    2.0531   -0.3102 N.ar    1  LIG1       -0.2400
     18 H          -4.0170    2.5882    0.7621 H       1  LIG1        0.0626
     19 S          -7.6052   -0.4814   -0.7936 S.3     1  LIG1       -0.1227
     20 H          -6.6532   -1.3030   -0.3082 H       1  LIG1        0.1086
     21 H          -5.6025    4.4741    0.7932 H       1  LIG1        0.0639
     22 C          -9.5863    4.3213    0.2417 C.ar    1  LIG1        0.1038
     23 C          -8.2041    4.4006   -0.0416 C.ar    1  LIG1        0.0320
     24 C          -7.7304    5.6622   -0.4069 C.ar    1  LIG1       -0.0480
     25 C          -8.5573    6.7686   -0.4305 C.ar    1  LIG1       -0.0349
     26 C          -9.8940    6.6061   -0.0609 C.ar    1  LIG1        0.0748
     27 N         -10.3699    5.3982    0.2440 N.ar    1  LIG1       -0.2400
     28 H          -6.6924    5.7690   -0.7036 H       1  LIG1        0.0626
     29 S         -10.4802    2.8581    0.6778 S.3     1  LIG1       -0.1227
     30 H          -9.5367    1.9968    0.2422 H       1  LIG1        0.1086
     31 H          -8.1819    7.7305   -0.7551 H       1  LIG1        0.0639
     32 C         -12.1754    7.7794   -0.3628 C.ar    1  LIG1        0.1031
     33 C         -10.8071    7.7772    0.0002 C.ar    1  LIG1        0.0320
     34 C         -10.2748    8.9971    0.4231 C.ar    1  LIG1       -0.0486
     35 C         -11.0447   10.1472    0.4408 C.ar    1  LIG1       -0.0429
     36 C         -12.3592   10.0406    0.0126 C.ar    1  LIG1        0.0289
     37 N         -12.9075    8.8938   -0.3693 N.ar    1  LIG1       -0.2483
     38 H          -9.2427    9.0338    0.7558 H       1  LIG1        0.0625
     39 H         -13.0090   10.9121   -0.0168 H       1  LIG1        0.0830
     40 S         -13.1111    6.3779   -0.9068 S.3     1  LIG1       -0.1228
     41 H         -12.2349    5.4503   -0.4721 H       1  LIG1        0.1086
     42 H         -10.6395   11.0950    0.7747 H       1  LIG1        0.0633
@<TRIPOS>BOND
     1    40    41    1
     2    40    32    1
     3    19    20    1
     4    19    12    1
     5    11     4    1
     6    31    25    1
     7     7     3    1
     8    28    24    1
     9     4     3   ar
    10     4     5   ar
    11     3     2   ar
    12    25    24   ar
    13    25    26   ar
    14    24    23   ar
    15    37    32   ar
    16    37    36   ar
    17    32    33   ar
    18    17    12   ar
    19    17    16   ar
    20    12    13   ar
    21    26    33    1
    22    26    27   ar
    23    23    16    1
    24    23    22   ar
    25     2     8    1
    26     2     1   ar
    27     5    13    1
    28     5     6   ar
    29    39    36    1
    30    33    34   ar
    31    36    35   ar
    32    16    15   ar
    33    13    14   ar
    34    22    27   ar
    35    22    29    1
    36    30    29    1
    37     1     6   ar
    38     1     9    1
    39    34    35   ar
    40    34    38    1
    41    14    15   ar
    42    14    18    1
    43    35    42    1
    44    15    21    1
    45    10     9    1
