@<TRIPOS>MOLECULE
mol_data/opt/cam/geoms/mol2/6ga6ga6ga.out
 32 34 0 0 0
SMALL
GASTEIGER

@<TRIPOS>ATOM
      1 C          -4.0369   -2.0388   -0.6065 C.ar    1  LIG1        0.0946
      2 C          -2.8272   -2.0232    0.0877 C.ar    1  LIG1       -0.0300
      3 C          -2.5166   -0.8802    0.8048 C.ar    1  LIG1       -0.0572
      4 C          -3.3884    0.1994    0.7941 C.ar    1  LIG1       -0.0355
      5 C          -4.5651    0.1076    0.0480 C.ar    1  LIG1        0.0748
      6 N          -4.8733   -1.0080   -0.6248 N.ar    1  LIG1       -0.2406
      7 H          -1.5975   -0.8329    1.3797 H       1  LIG1        0.0619
      8 H          -2.1615   -2.8777    0.0765 H       1  LIG1        0.0644
      9 S          -4.6029   -3.4284   -1.5561 S.3     1  LIG1       -0.1234
     10 H          -3.6064   -4.2634   -1.2198 H       1  LIG1        0.1086
     11 H          -3.1731    1.0871    1.3749 H       1  LIG1        0.0639
     12 C          -6.9084    1.1882   -0.0365 C.ar    1  LIG1        0.1038
     13 C          -5.4980    1.2630   -0.0243 C.ar    1  LIG1        0.0320
     14 C          -4.9577    2.5496   -0.0380 C.ar    1  LIG1       -0.0480
     15 C          -5.7617    3.6734   -0.0347 C.ar    1  LIG1       -0.0349
     16 C          -7.1462    3.4996   -0.0130 C.ar    1  LIG1        0.0748
     17 N          -7.6769    2.2755   -0.0122 N.ar    1  LIG1       -0.2400
     18 H          -3.8796    2.6680   -0.0566 H       1  LIG1        0.0626
     19 S          -7.8731   -0.2965   -0.0294 S.3     1  LIG1       -0.1227
     20 H          -6.8617   -1.1150   -0.3785 H       1  LIG1        0.1086
     21 H          -5.3241    4.6633   -0.0214 H       1  LIG1        0.0639
     22 C          -9.2658    4.7932    0.6953 C.ar    1  LIG1        0.1031
     23 C          -8.0517    4.6791   -0.0218 C.ar    1  LIG1        0.0320
     24 C          -7.6676    5.7917   -0.7730 C.ar    1  LIG1       -0.0486
     25 C          -8.4224    6.9522   -0.7702 C.ar    1  LIG1       -0.0429
     26 C          -9.5648    6.9682    0.0153 C.ar    1  LIG1        0.0289
     27 N          -9.9766    5.9203    0.7186 N.ar    1  LIG1       -0.2483
     28 H          -6.7686    5.7345   -1.3778 H       1  LIG1        0.0625
     29 H         -10.1874    7.8577    0.0773 H       1  LIG1        0.0830
     30 S          -9.9998    3.5312    1.6995 S.3     1  LIG1       -0.1228
     31 H          -9.2937    2.5117    1.1738 H       1  LIG1        0.1086
     32 H          -8.1340    7.8165   -1.3565 H       1  LIG1        0.0633
@<TRIPOS>BOND
     1     9    10    1
     2     9     1    1
     3    28    24    1
     4    32    25    1
     5    24    25   ar
     6    24    23   ar
     7    25    26   ar
     8     6     1   ar
     9     6     5   ar
    10     1     2   ar
    11    20    19    1
    12    18    14    1
    13    14    15   ar
    14    14    13   ar
    15    12    19    1
    16    12    13   ar
    17    12    17   ar
    18    15    21    1
    19    15    16   ar
    20    13     5    1
    21    23    16    1
    22    23    22   ar
    23    16    17   ar
    24    26    29    1
    25    26    27   ar
    26     5     4   ar
    27     8     2    1
    28     2     3   ar
    29    22    27   ar
    30    22    30    1
    31     4     3   ar
    32     4    11    1
    33     3     7    1
    34    31    30    1
