@<TRIPOS>MOLECULE
mol_data/opt/cam/geoms/mol2/6ga6ga6ga-6ga-.out
 42 45 0 0 0
SMALL
GASTEIGER

@<TRIPOS>ATOM
      1 C          -3.8538   -2.1212   -0.3539 C.ar    1  LIG1        0.0946
      2 C          -2.5282   -1.9164    0.0296 C.ar    1  LIG1       -0.0300
      3 C          -2.1702   -0.6441    0.4416 C.ar    1  LIG1       -0.0572
      4 C          -3.1155    0.3722    0.4423 C.ar    1  LIG1       -0.0355
      5 C          -4.4136    0.0837    0.0180 C.ar    1  LIG1        0.0748
      6 N          -4.7618   -1.1526   -0.3593 N.ar    1  LIG1       -0.2406
      7 H          -1.1553   -0.4452    0.7699 H       1  LIG1        0.0619
      8 H          -1.8081   -2.7255    0.0159 H       1  LIG1        0.0644
      9 S          -4.4868   -3.6908   -0.8895 S.3     1  LIG1       -0.1234
     10 H          -3.3704   -4.3985   -0.6521 H       1  LIG1        0.1086
     11 H          -2.8584    1.3649    0.7892 H       1  LIG1        0.0639
     12 C          -6.8058    1.0156    0.2810 C.ar    1  LIG1        0.1038
     13 C          -5.4379    1.1596   -0.0386 C.ar    1  LIG1        0.0320
     14 C          -5.0355    2.4384   -0.4265 C.ar    1  LIG1       -0.0480
     15 C          -5.9168    3.5030   -0.4390 C.ar    1  LIG1       -0.0349
     16 C          -7.2342    3.2784   -0.0366 C.ar    1  LIG1        0.0748
     17 N          -7.6421    2.0513    0.2920 N.ar    1  LIG1       -0.2400
     18 H          -4.0110    2.5926   -0.7484 H       1  LIG1        0.0626
     19 S          -7.6115   -0.4860    0.7605 S.3     1  LIG1       -0.1227
     20 H          -6.6556   -1.3047    0.2778 H       1  LIG1        0.1086
     21 H          -5.5963    4.4787   -0.7808 H       1  LIG1        0.0639
     22 C          -9.5843    4.3228   -0.2619 C.ar    1  LIG1        0.1038
     23 C          -8.2044    4.4004    0.0328 C.ar    1  LIG1        0.0320
     24 C          -7.7336    5.6597    0.4094 C.ar    1  LIG1       -0.0480
     25 C          -8.5606    6.7660    0.4330 C.ar    1  LIG1       -0.0349
     26 C          -9.8944    6.6058    0.0519 C.ar    1  LIG1        0.0748
     27 N         -10.3679    5.3998   -0.2639 N.ar    1  LIG1       -0.2400
     28 H          -6.6980    5.7647    0.7150 H       1  LIG1        0.0626
     29 S         -10.4747    2.8623   -0.7137 S.3     1  LIG1       -0.1227
     30 H          -9.5347    1.9984   -0.2758 H       1  LIG1        0.1086
     31 H          -8.1878    7.7260    0.7663 H       1  LIG1        0.0639
     32 C         -12.1781    7.7775    0.3427 C.ar    1  LIG1        0.1031
     33 C         -10.8070    7.7774   -0.0095 C.ar    1  LIG1        0.0320
     34 C         -10.2713    8.9997   -0.4209 C.ar    1  LIG1       -0.0486
     35 C         -11.0410   10.1499   -0.4379 C.ar    1  LIG1       -0.0429
     36 C         -12.3588   10.0408   -0.0207 C.ar    1  LIG1        0.0289
     37 N         -12.9102    8.8919    0.3500 N.ar    1  LIG1       -0.2483
     38 H          -9.2366    9.0383   -0.7452 H       1  LIG1        0.0625
     39 H         -13.0089   10.9122    0.0087 H       1  LIG1        0.0830
     40 S         -13.1181    6.3727    0.8708 S.3     1  LIG1       -0.1228
     41 H         -12.2385    5.4477    0.4376 H       1  LIG1        0.1086
     42 H         -10.6332   11.0997   -0.7628 H       1  LIG1        0.0633
@<TRIPOS>BOND
     1     9    10    1
     2     9     1    1
     3    21    15    1
     4    42    35    1
     5    18    14    1
     6    38    34    1
     7    29    30    1
     8    29    22    1
     9    15    14   ar
    10    15    16   ar
    11    35    34   ar
    12    35    36   ar
    13    14    13   ar
    14    34    33   ar
    15     6     1   ar
    16     6     5   ar
    17     1     2   ar
    18    27    22   ar
    19    27    26   ar
    20    22    23   ar
    21    13     5    1
    22    13    12   ar
    23    16    23    1
    24    16    17   ar
    25    36    39    1
    26    36    37   ar
    27    33    26    1
    28    33    32   ar
    29     8     2    1
    30     5     4   ar
    31     2     3   ar
    32    23    24   ar
    33    26    25   ar
    34    20    19    1
    35    12    17   ar
    36    12    19    1
    37    32    37   ar
    38    32    40    1
    39    24    25   ar
    40    24    28    1
    41    25    31    1
    42    41    40    1
    43     3     4   ar
    44     3     7    1
    45     4    11    1
