@<TRIPOS>MOLECULE
mol_data/opt/cam/geoms/mol2/6ga6ga6ga-.out
 32 34 0 0 0
SMALL
GASTEIGER

@<TRIPOS>ATOM
      1 C          -4.1484   -2.1343   -0.2267 C.ar    1  LIG1        0.0946
      2 C          -2.7869   -1.9889    0.0398 C.ar    1  LIG1       -0.0300
      3 C          -2.3238   -0.7162    0.3275 C.ar    1  LIG1       -0.0572
      4 C          -3.2051    0.3558    0.3228 C.ar    1  LIG1       -0.0355
      5 C          -4.5478    0.1225    0.0195 C.ar    1  LIG1        0.0748
      6 N          -4.9960   -1.1127   -0.2370 N.ar    1  LIG1       -0.2406
      7 H          -1.2762   -0.5599    0.5629 H       1  LIG1        0.0619
      8 H          -2.1187   -2.8414    0.0328 H       1  LIG1        0.0644
      9 S          -4.9128   -3.6943   -0.5941 S.3     1  LIG1       -0.1234
     10 H          -3.8245   -4.4539   -0.3888 H       1  LIG1        0.1086
     11 H          -2.8641    1.3520    0.5741 H       1  LIG1        0.0639
     12 C          -6.8515    1.2262    0.3906 C.ar    1  LIG1        0.1038
     13 C          -5.5074    1.2559   -0.0405 C.ar    1  LIG1        0.0320
     14 C          -5.0607    2.4754   -0.5520 C.ar    1  LIG1       -0.0480
     15 C          -5.8744    3.5920   -0.5768 C.ar    1  LIG1       -0.0349
     16 C          -7.1664    3.4844   -0.0589 C.ar    1  LIG1        0.0748
     17 N          -7.6203    2.3128    0.3891 N.ar    1  LIG1       -0.2400
     18 H          -4.0579    2.5388   -0.9611 H       1  LIG1        0.0626
     19 S          -7.7073   -0.1826    1.0384 S.3     1  LIG1       -0.1227
     20 H          -6.8419   -1.0953    0.5543 H       1  LIG1        0.1086
     21 H          -5.5249    4.5189   -1.0132 H       1  LIG1        0.0639
     22 C          -9.4537    4.6733   -0.2187 C.ar    1  LIG1        0.1031
     23 C          -8.0558    4.6735    0.0036 C.ar    1  LIG1        0.0320
     24 C          -7.4701    5.9118    0.2751 C.ar    1  LIG1       -0.0486
     25 C          -8.2223    7.0737    0.2823 C.ar    1  LIG1       -0.0429
     26 C          -9.5747    6.9590   -0.0009 C.ar    1  LIG1        0.0289
     27 N         -10.1712    5.7969   -0.2364 N.ar    1  LIG1       -0.2483
     28 H          -6.4090    5.9547    0.4974 H       1  LIG1        0.0625
     29 H         -10.2151    7.8374   -0.0310 H       1  LIG1        0.0830
     30 S         -10.4546    3.2520   -0.5577 S.3     1  LIG1       -0.1228
     31 H          -9.5501    2.3432   -0.1428 H       1  LIG1        0.1086
     32 H          -7.7752    8.0365    0.4993 H       1  LIG1        0.0633
@<TRIPOS>BOND
     1    21    15    1
     2    18    14    1
     3     9    10    1
     4     9     1    1
     5    15    14   ar
     6    15    16   ar
     7    30    22    1
     8    30    31    1
     9    14    13   ar
    10     6     1   ar
    11     6     5   ar
    12    27    22   ar
    13    27    26   ar
    14     1     2   ar
    15    22    23   ar
    16    16    23    1
    17    16    17   ar
    18    13     5    1
    19    13    12   ar
    20    29    26    1
    21    26    25   ar
    22    23    24   ar
    23     5     4   ar
    24     8     2    1
    25     2     3   ar
    26    24    25   ar
    27    24    28    1
    28    25    32    1
    29     4     3   ar
    30     4    11    1
    31     3     7    1
    32    17    12   ar
    33    12    19    1
    34    20    19    1
