@<TRIPOS>MOLECULE
mol_data/opt/cam/geoms/mol2/6ga6ga-6ga6ga.out
 42 45 0 0 0
SMALL
GASTEIGER

@<TRIPOS>ATOM
      1 C          -3.8526   -2.1206    0.3432 C.ar    1  LIG1        0.0946
      2 C          -2.5290   -1.9170   -0.0480 C.ar    1  LIG1       -0.0300
      3 C          -2.1731   -0.6460   -0.4655 C.ar    1  LIG1       -0.0572
      4 C          -3.1183    0.3705   -0.4639 C.ar    1  LIG1       -0.0355
      5 C          -4.4141    0.0833   -0.0318 C.ar    1  LIG1        0.0748
      6 N          -4.7603   -1.1519    0.3508 N.ar    1  LIG1       -0.2406
      7 H          -1.1600   -0.4481   -0.7998 H       1  LIG1        0.0619
      8 H          -1.8089   -2.7262   -0.0360 H       1  LIG1        0.0644
      9 S          -4.4828   -3.6887    0.8865 S.3     1  LIG1       -0.1234
     10 H          -3.3678   -4.3971    0.6451 H       1  LIG1        0.1086
     11 H          -2.8630    1.3622   -0.8150 H       1  LIG1        0.0639
     12 C          -6.8076    1.0148   -0.2844 C.ar    1  LIG1        0.1038
     13 C          -5.4379    1.1594    0.0273 C.ar    1  LIG1        0.0320
     14 C          -5.0333    2.4393    0.4095 C.ar    1  LIG1       -0.0480
     15 C          -5.9145    3.5040    0.4238 C.ar    1  LIG1       -0.0349
     16 C          -7.2341    3.2785    0.0292 C.ar    1  LIG1        0.0748
     17 N          -7.6438    2.0505   -0.2938 N.ar    1  LIG1       -0.2400
     18 H          -4.0072    2.5943    0.7254 H       1  LIG1        0.0626
     19 S          -7.6160   -0.4881   -0.7554 S.3     1  LIG1       -0.1227
     20 H          -6.6577   -1.3056   -0.2757 H       1  LIG1        0.1086
     21 H          -5.5920    4.4807    0.7612 H       1  LIG1        0.0639
     22 C          -9.5827    4.3238    0.2642 C.ar    1  LIG1        0.1038
     23 C          -8.2045    4.4004   -0.0381 C.ar    1  LIG1        0.0320
     24 C          -7.7356    5.6586   -0.4208 C.ar    1  LIG1       -0.0480
     25 C          -8.5626    6.7649   -0.4430 C.ar    1  LIG1       -0.0349
     26 C          -9.8943    6.6059   -0.0542 C.ar    1  LIG1        0.0748
     27 N         -10.3662    5.4009    0.2675 N.ar    1  LIG1       -0.2400
     28 H          -6.7016    5.7626   -0.7322 H       1  LIG1        0.0626
     29 S         -10.4709    2.8647    0.7250 S.3     1  LIG1       -0.1227
     30 H          -9.5334    1.9994    0.2843 H       1  LIG1        0.1086
     31 H          -8.1915    7.7239   -0.7810 H       1  LIG1        0.0639
     32 C         -12.1794    7.7771   -0.3359 C.ar    1  LIG1        0.1031
     33 C         -10.8065    7.7778    0.0088 C.ar    1  LIG1        0.0320
     34 C         -10.2684    9.0012    0.4140 C.ar    1  LIG1       -0.0486
     35 C         -11.0380   10.1515    0.4319 C.ar    1  LIG1       -0.0429
     36 C         -12.3580   10.0414    0.0222 C.ar    1  LIG1        0.0289
     37 N         -12.9115    8.8915   -0.3424 N.ar    1  LIG1       -0.2483
     38 H          -9.2320    9.0405    0.7326 H       1  LIG1        0.0625
     39 H         -13.0082   10.9128   -0.0061 H       1  LIG1        0.0830
     40 S         -13.1224    6.3710   -0.8550 S.3     1  LIG1       -0.1228
     41 H         -12.2406    5.4471   -0.4241 H       1  LIG1        0.1086
     42 H         -10.6283   11.1021    0.7521 H       1  LIG1        0.0633
@<TRIPOS>BOND
     1    40    41    1
     2    40    32    1
     3    11     4    1
     4     7     3    1
     5    31    25    1
     6    19    12    1
     7    19    20    1
     8    28    24    1
     9     3     4   ar
    10     3     2   ar
    11     4     5   ar
    12    25    24   ar
    13    25    26   ar
    14    24    23   ar
    15    37    32   ar
    16    37    36   ar
    17    32    33   ar
    18    17    12   ar
    19    17    16   ar
    20    12    13   ar
    21    26    33    1
    22    26    27   ar
    23     2     8    1
    24     2     1   ar
    25    23    16    1
    26    23    22   ar
    27     5    13    1
    28     5     6   ar
    29    39    36    1
    30    33    34   ar
    31    36    35   ar
    32    13    14   ar
    33    16    15   ar
    34    22    27   ar
    35    22    29    1
    36    30    29    1
    37     1     6   ar
    38     1     9    1
    39    14    15   ar
    40    14    18    1
    41    34    35   ar
    42    34    38    1
    43    15    21    1
    44    35    42    1
    45    10     9    1
