@<TRIPOS>MOLECULE
mol_data/opt/cam/geoms/mol2/6gd.out
 13 13 0 0 0
SMALL
GASTEIGER

@<TRIPOS>ATOM
      1 C          -4.5435   -1.9979    0.0001 C.ar    1  LIG1        0.0940
      2 C          -3.1440   -1.9962   -0.0000 C.ar    1  LIG1       -0.0288
      3 C          -2.4915   -0.7798   -0.0002 C.ar    1  LIG1       -0.0404
      4 C          -3.2478    0.3958   -0.0003 C.ar    1  LIG1        0.0699
      5 C          -4.6393    0.2816   -0.0002 C.ar    1  LIG1        0.0462
      6 N          -5.2716   -0.8837   -0.0000 N.ar    1  LIG1       -0.2477
      7 H          -1.4084   -0.7309   -0.0002 H       1  LIG1        0.0632
      8 H          -2.5833   -2.9229    0.0001 H       1  LIG1        0.0644
      9 H          -5.2601    1.1733   -0.0003 H       1  LIG1        0.0843
     10 S          -5.5146   -3.4769    0.0003 S.3     1  LIG1       -0.1234
     11 H          -4.4848   -4.3395    0.0003 H       1  LIG1        0.1086
     12 N          -2.1181    2.7244   -0.0006 N.1     1  LIG1       -0.1908
     13 C          -2.6230    1.6838   -0.0004 C.1     1  LIG1        0.1007
@<TRIPOS>BOND
     1    12    13    3
     2    13     4    1
     3     4     5   ar
     4     4     3   ar
     5     9     5    1
     6     7     3    1
     7     5     6   ar
     8     3     2   ar
     9     6     1   ar
    10     2     1   ar
    11     2     8    1
    12     1    10    1
    13    10    11    1
