@<TRIPOS>MOLECULE
mol_data/opt/cam/geoms/mol2/6gd6gd6gd.out
 35 37 0 0 0
SMALL
GASTEIGER

@<TRIPOS>ATOM
      1 C          -4.0566   -1.9145   -1.0202 C.ar    1  LIG1        0.0947
      2 C          -2.8779   -2.0669   -0.2837 C.ar    1  LIG1       -0.0288
      3 C          -2.5562   -1.0795    0.6217 C.ar    1  LIG1       -0.0398
      4 C          -3.3852    0.0398    0.7597 C.ar    1  LIG1        0.0778
      5 C          -4.5298    0.1283   -0.0515 C.ar    1  LIG1        0.0921
      6 N          -4.8440   -0.8503   -0.9008 N.ar    1  LIG1       -0.2393
      7 H          -1.6676   -1.1626    1.2374 H       1  LIG1        0.0632
      8 H          -2.2440   -2.9362   -0.4063 H       1  LIG1        0.0644
      9 S          -4.6422   -3.0996   -2.1914 S.3     1  LIG1       -0.1234
     10 H          -3.6820   -4.0143   -1.9790 H       1  LIG1        0.1086
     11 N          -2.7593    1.8018    2.5497 N.1     1  LIG1       -0.1908
     12 C          -3.0553    1.0264    1.7441 C.1     1  LIG1        0.1013
     13 C          -6.8399    1.2494    0.0540 C.ar    1  LIG1        0.1039
     14 C          -5.4295    1.3125   -0.0180 C.ar    1  LIG1        0.0345
     15 C          -4.8708    2.5823   -0.0463 C.ar    1  LIG1       -0.0305
     16 C          -5.6644    3.7268    0.0141 C.ar    1  LIG1        0.0785
     17 C          -7.0560    3.5634    0.1165 C.ar    1  LIG1        0.0921
     18 N          -7.5901    2.3458    0.1415 N.ar    1  LIG1       -0.2387
     19 H          -3.7960    2.7018   -0.1120 H       1  LIG1        0.0638
     20 S          -7.8183   -0.2179    0.1012 S.3     1  LIG1       -0.1227
     21 H          -6.8614   -1.0488   -0.3449 H       1  LIG1        0.1086
     22 N          -4.4804    6.0285   -0.0086 N.1     1  LIG1       -0.1908
     23 C          -5.0269    5.0094    0.0070 C.1     1  LIG1        0.1013
     24 C          -9.0381    4.8684    1.0992 C.ar    1  LIG1        0.1032
     25 C          -7.9856    4.7235    0.1645 C.ar    1  LIG1        0.0345
     26 C          -7.8228    5.7426   -0.7670 C.ar    1  LIG1       -0.0311
     27 C          -8.6462    6.8649   -0.7357 C.ar    1  LIG1        0.0705
     28 C          -9.6113    6.9325    0.2691 C.ar    1  LIG1        0.0462
     29 N          -9.7989    5.9624    1.1474 N.ar    1  LIG1       -0.2471
     30 H          -7.0543    5.6703   -1.5274 H       1  LIG1        0.0638
     31 H         -10.2582    7.8015    0.3531 H       1  LIG1        0.0843
     32 S          -9.4768    3.7111    2.3584 S.3     1  LIG1       -0.1228
     33 H          -8.8502    2.6532    1.8182 H       1  LIG1        0.1086
     34 N          -8.4138    8.7678   -2.4740 N.1     1  LIG1       -0.1908
     35 C          -8.5114    7.9174   -1.6964 C.1     1  LIG1        0.1007
@<TRIPOS>BOND
     1    34    35    3
     2     9    10    1
     3     9     1    1
     4    35    27    1
     5    30    26    1
     6     1     6   ar
     7     1     2   ar
     8     6     5   ar
     9    26    27   ar
    10    26    25   ar
    11    27    28   ar
    12     8     2    1
    13    21    20    1
    14     2     3   ar
    15    19    15    1
    16     5    14    1
    17     5     4   ar
    18    15    14   ar
    19    15    16   ar
    20    14    13   ar
    21    22    23    3
    22    23    16    1
    23    16    17   ar
    24    13    20    1
    25    13    18   ar
    26    17    18   ar
    27    17    25    1
    28    25    24   ar
    29    28    31    1
    30    28    29   ar
    31     3     4   ar
    32     3     7    1
    33     4    12    1
    34    24    29   ar
    35    24    32    1
    36    12    11    3
    37    33    32    1
