@<TRIPOS>MOLECULE
mol_data/opt/cam/geoms/mol2/6gd6gd-6gd-6gd-.out
 46 49 0 0 0
SMALL
GASTEIGER

@<TRIPOS>ATOM
      1 C          -4.0048   -2.1885   -0.1331 C.ar    1  LIG1        0.0947
      2 C          -2.6194   -2.0117   -0.2024 C.ar    1  LIG1       -0.0288
      3 C          -2.1387   -0.7216   -0.2559 C.ar    1  LIG1       -0.0398
      4 C          -3.0290    0.3575   -0.2149 C.ar    1  LIG1        0.0778
      5 C          -4.4039    0.0864   -0.1080 C.ar    1  LIG1        0.0921
      6 N          -4.8554   -1.1677   -0.0867 N.ar    1  LIG1       -0.2393
      7 H          -1.0744   -0.5313   -0.3367 H       1  LIG1        0.0632
      8 H          -1.9437   -2.8575   -0.2270 H       1  LIG1        0.0644
      9 S          -4.7927   -3.7680   -0.0935 S.3     1  LIG1       -0.1234
     10 H          -3.6778   -4.5020   -0.2410 H       1  LIG1        0.1086
     11 N          -2.0663    2.7525   -0.4099 N.1     1  LIG1       -0.1908
     12 C          -2.5123    1.6891   -0.3210 C.1     1  LIG1        0.1013
     13 C          -6.6134    1.2404   -0.7355 C.ar    1  LIG1        0.1039
     14 C          -5.4091    1.1776    0.0015 C.ar    1  LIG1        0.0345
     15 C          -5.1816    2.2143    0.8956 C.ar    1  LIG1       -0.0305
     16 C          -6.0617    3.2905    1.0007 C.ar    1  LIG1        0.0785
     17 C          -7.1745    3.3204    0.1429 C.ar    1  LIG1        0.0921
     18 N          -7.4224    2.2950   -0.6664 N.ar    1  LIG1       -0.2387
     19 H          -4.3106    2.1946    1.5399 H       1  LIG1        0.0638
     20 S          -7.2102    0.0231   -1.8635 S.3     1  LIG1       -0.1227
     21 H          -6.4605   -0.9864   -1.3851 H       1  LIG1        0.1086
     22 N          -5.5973    5.0739    2.8181 N.1     1  LIG1       -0.1908
     23 C          -5.8161    4.2888    1.9976 C.1     1  LIG1        0.1013
     24 C          -9.5212    4.3662    0.0542 C.ar    1  LIG1        0.1039
     25 C          -8.1109    4.4732    0.0958 C.ar    1  LIG1        0.0345
     26 C          -7.5906    5.7603    0.1052 C.ar    1  LIG1       -0.0305
     27 C          -8.4203    6.8800    0.0985 C.ar    1  LIG1        0.0785
     28 C          -9.8104    6.6740    0.0940 C.ar    1  LIG1        0.0921
     29 N         -10.3075    5.4410    0.0805 N.ar    1  LIG1       -0.2387
     30 H          -6.5181    5.9132    0.1211 H       1  LIG1        0.0638
     31 S         -10.4584    2.8732    0.0227 S.3     1  LIG1       -0.1227
     32 H          -9.4421    2.0722   -0.3440 H       1  LIG1        0.1086
     33 N          -7.3130    9.2190    0.1586 N.1     1  LIG1       -0.1908
     34 C          -7.8242    8.1819    0.1354 C.1     1  LIG1        0.1013
     35 C         -11.9051    7.9131    0.9150 C.ar    1  LIG1        0.1032
     36 C         -10.7765    7.8047    0.0681 C.ar    1  LIG1        0.0345
     37 C         -10.5715    8.8319   -0.8460 C.ar    1  LIG1       -0.0311
     38 C         -11.4294    9.9280   -0.8794 C.ar    1  LIG1        0.0705
     39 C         -12.4733    9.9622    0.0451 C.ar    1  LIG1        0.0462
     40 N         -12.7007    8.9833    0.9039 N.ar    1  LIG1       -0.2471
     41 H          -9.7427    8.7866   -1.5423 H       1  LIG1        0.0638
     42 H         -13.1513   10.8106    0.0782 H       1  LIG1        0.0843
     43 S         -12.4088    6.7368    2.1315 S.3     1  LIG1       -0.1228
     44 H         -11.7111    5.7005    1.6380 H       1  LIG1        0.1086
     45 N         -11.1204   11.8436   -2.5915 N.1     1  LIG1       -0.1908
     46 C         -11.2518   10.9876   -1.8252 C.1     1  LIG1        0.1007
@<TRIPOS>BOND
     1    45    46    3
     2    20    21    1
     3    20    13    1
     4    46    38    1
     5    41    37    1
     6    38    37   ar
     7    38    39   ar
     8    37    36   ar
     9    13    18   ar
    10    13    14   ar
    11    18    17   ar
    12    11    12    3
    13    32    31    1
    14     7     3    1
    15    12     4    1
    16     3     4   ar
    17     3     2   ar
    18    10     9    1
    19     8     2    1
    20     4     5   ar
    21     2     1   ar
    22     1     9    1
    23     1     6   ar
    24     5     6   ar
    25     5    14    1
    26    14    15   ar
    27    31    24    1
    28    39    42    1
    29    39    40   ar
    30    24    29   ar
    31    24    25   ar
    32    36    28    1
    33    36    35   ar
    34    29    28   ar
    35    28    27   ar
    36    25    26   ar
    37    25    17    1
    38    27    26   ar
    39    27    34    1
    40    26    30    1
    41    34    33    3
    42    17    16   ar
    43    15    16   ar
    44    15    19    1
    45    40    35   ar
    46    35    43    1
    47    16    23    1
    48    44    43    1
    49    23    22    3
