@<TRIPOS>MOLECULE
mol_data/opt/cam/geoms/mol2/6gd6gd6gd6gd.out
 46 49 0 0 0
SMALL
GASTEIGER

@<TRIPOS>ATOM
      1 C          -3.9134   -2.1159   -0.5332 C.ar    1  LIG1        0.0947
      2 C          -2.5865   -1.9890   -0.1108 C.ar    1  LIG1       -0.0288
      3 C          -2.1846   -0.7679    0.3848 C.ar    1  LIG1       -0.0398
      4 C          -3.0885    0.2998    0.4285 C.ar    1  LIG1        0.0778
      5 C          -4.3929    0.0919   -0.0518 C.ar    1  LIG1        0.0921
      6 N          -4.7748   -1.1037   -0.5011 N.ar    1  LIG1       -0.2393
      7 H          -1.1736   -0.6251    0.7495 H       1  LIG1        0.0632
      8 H          -1.8978   -2.8233   -0.1570 H       1  LIG1        0.0644
      9 S          -4.6056   -3.6144   -1.1600 S.3     1  LIG1       -0.1234
     10 H          -3.5216   -4.3817   -0.9607 H       1  LIG1        0.1086
     11 N          -2.2942    2.5397    1.4545 N.1     1  LIG1       -0.1908
     12 C          -2.6645    1.5461    0.9926 C.1     1  LIG1        0.1013
     13 C          -6.7342    1.0770    0.3397 C.ar    1  LIG1        0.1039
     14 C          -5.3943    1.1911   -0.0955 C.ar    1  LIG1        0.0345
     15 C          -5.0173    2.4244   -0.6086 C.ar    1  LIG1       -0.0305
     16 C          -5.8980    3.5048   -0.6237 C.ar    1  LIG1        0.0785
     17 C          -7.1761    3.3243   -0.0681 C.ar    1  LIG1        0.0921
     18 N          -7.5534    2.1259    0.3666 N.ar    1  LIG1       -0.2387
     19 H          -4.0238    2.5613   -1.0187 H       1  LIG1        0.0638
     20 S          -7.5118   -0.3845    0.9478 S.3     1  LIG1       -0.1227
     21 H          -6.6333   -1.2443    0.4009 H       1  LIG1        0.1086
     22 N          -5.1243    5.7065   -1.7433 N.1     1  LIG1       -0.1908
     23 C          -5.4816    4.7312   -1.2349 C.1     1  LIG1        0.1013
     24 C          -9.5237    4.3561   -0.2509 C.ar    1  LIG1        0.1039
     25 C          -8.1460    4.4424    0.0572 C.ar    1  LIG1        0.0345
     26 C          -7.6959    5.6709    0.5232 C.ar    1  LIG1       -0.0305
     27 C          -8.5470    6.7706    0.6103 C.ar    1  LIG1        0.0785
     28 C          -9.8746    6.6169    0.1732 C.ar    1  LIG1        0.0921
     29 N         -10.3167    5.4247   -0.2140 N.ar    1  LIG1       -0.2387
     30 H          -6.6667    5.7871    0.8417 H       1  LIG1        0.0638
     31 S         -10.3930    2.9113   -0.7664 S.3     1  LIG1       -0.1227
     32 H          -9.4766    2.0323   -0.3191 H       1  LIG1        0.1086
     33 N          -7.6175    8.9567    1.6386 N.1     1  LIG1       -0.1908
     34 C          -8.0476    7.9899    1.1718 C.1     1  LIG1        0.1013
     35 C         -12.1633    7.7129    0.5819 C.ar    1  LIG1        0.1032
     36 C         -10.8254    7.7578    0.1194 C.ar    1  LIG1        0.0345
     37 C         -10.3826    8.9609   -0.4202 C.ar    1  LIG1       -0.0311
     38 C         -11.2224   10.0704   -0.4547 C.ar    1  LIG1        0.0705
     39 C         -12.4998    9.9324    0.0890 C.ar    1  LIG1        0.0462
     40 N         -12.9491    8.7911    0.5813 N.ar    1  LIG1       -0.2471
     41 H          -9.3797    9.0425   -0.8225 H       1  LIG1        0.0638
     42 H         -13.1812   10.7784    0.1134 H       1  LIG1        0.0843
     43 S         -12.9833    6.3099    1.2706 S.3     1  LIG1       -0.1228
     44 H         -12.1295    5.3878    0.7927 H       1  LIG1        0.1086
     45 N         -10.4690   12.3208   -1.4864 N.1     1  LIG1       -0.1908
     46 C         -10.7985   11.3138   -1.0230 C.1     1  LIG1        0.1007
@<TRIPOS>BOND
     1    22    23    3
     2    45    46    3
     3    23    16    1
     4     9    10    1
     5     9     1    1
     6    46    38    1
     7    19    15    1
     8    41    37    1
     9    31    32    1
    10    31    24    1
    11    16    15   ar
    12    16    17   ar
    13    15    14   ar
    14     1     6   ar
    15     1     2   ar
    16     6     5   ar
    17    38    37   ar
    18    38    39   ar
    19    37    36   ar
    20    24    29   ar
    21    24    25   ar
    22    29    28   ar
    23     8     2    1
    24     2     3   ar
    25    14     5    1
    26    14    13   ar
    27    17    25    1
    28    17    18   ar
    29     5     4   ar
    30    25    26   ar
    31    39    42    1
    32    39    40   ar
    33    36    28    1
    34    36    35   ar
    35    28    27   ar
    36    13    18   ar
    37    13    20    1
    38     3     4   ar
    39     3     7    1
    40    21    20    1
    41     4    12    1
    42    26    27   ar
    43    26    30    1
    44    40    35   ar
    45    35    43    1
    46    27    34    1
    47    44    43    1
    48    12    11    3
    49    34    33    3
