@<TRIPOS>MOLECULE
mol_data/opt/cam/geoms/mol2/6gd6gd-6gd6gd-.out
 46 49 0 0 0
SMALL
GASTEIGER

@<TRIPOS>ATOM
      1 C          -3.9165   -2.1197    0.5063 C.ar    1  LIG1        0.0947
      2 C          -2.5914   -1.9934    0.0779 C.ar    1  LIG1       -0.0288
      3 C          -2.1906   -0.7720   -0.4179 C.ar    1  LIG1       -0.0398
      4 C          -3.0938    0.2966   -0.4559 C.ar    1  LIG1        0.0778
      5 C          -4.3961    0.0892    0.0301 C.ar    1  LIG1        0.0921
      6 N          -4.7771   -1.1067    0.4795 N.ar    1  LIG1       -0.2393
      7 H          -1.1812   -0.6296   -0.7870 H       1  LIG1        0.0632
      8 H          -1.9033   -2.8285    0.1198 H       1  LIG1        0.0644
      9 S          -4.6071   -3.6184    1.1341 S.3     1  LIG1       -0.1234
     10 H          -3.5248   -4.3865    0.9287 H       1  LIG1        0.1086
     11 N          -2.3021    2.5372   -1.4824 N.1     1  LIG1       -0.1908
     12 C          -2.6712    1.5432   -1.0203 C.1     1  LIG1        0.1013
     13 C          -6.7383    1.0770   -0.3493 C.ar    1  LIG1        0.1039
     14 C          -5.3964    1.1892    0.0799 C.ar    1  LIG1        0.0345
     15 C          -5.0158    2.4215    0.5929 C.ar    1  LIG1       -0.0305
     16 C          -5.8955    3.5026    0.6136 C.ar    1  LIG1        0.0785
     17 C          -7.1763    3.3240    0.0637 C.ar    1  LIG1        0.0921
     18 N          -7.5566    2.1265   -0.3709 N.ar    1  LIG1       -0.2387
     19 H          -4.0203    2.5569    0.9987 H       1  LIG1        0.0638
     20 S          -7.5200   -0.3830   -0.9557 S.3     1  LIG1       -0.1227
     21 H          -6.6397   -1.2443   -0.4141 H       1  LIG1        0.1086
     22 N          -5.1147    5.7022    1.7326 N.1     1  LIG1       -0.1908
     23 C          -5.4752    4.7278    1.2245 C.1     1  LIG1        0.1013
     24 C          -9.5221    4.3577    0.2587 C.ar    1  LIG1        0.1039
     25 C          -8.1458    4.4431   -0.0557 C.ar    1  LIG1        0.0345
     26 C          -7.6968    5.6719   -0.5220 C.ar    1  LIG1       -0.0305
     27 C          -8.5473    6.7726   -0.6037 C.ar    1  LIG1        0.0785
     28 C          -9.8730    6.6194   -0.1607 C.ar    1  LIG1        0.0921
     29 N         -10.3144    5.4271    0.2268 N.ar    1  LIG1       -0.2387
     30 H          -6.6689    5.7877   -0.8451 H       1  LIG1        0.0638
     31 S         -10.3904    2.9130    0.7761 S.3     1  LIG1       -0.1227
     32 H          -9.4769    2.0338    0.3234 H       1  LIG1        0.1086
     33 N          -7.6205    8.9592   -1.6333 N.1     1  LIG1       -0.1908
     34 C          -8.0493    7.9921   -1.1659 C.1     1  LIG1        0.1013
     35 C         -12.1625    7.7180   -0.5573 C.ar    1  LIG1        0.1032
     36 C         -10.8225    7.7610   -0.1010 C.ar    1  LIG1        0.0345
     37 C         -10.3761    8.9631    0.4382 C.ar    1  LIG1       -0.0311
     38 C         -11.2148   10.0732    0.4780 C.ar    1  LIG1        0.0705
     39 C         -12.4948    9.9371   -0.0600 C.ar    1  LIG1        0.0462
     40 N         -12.9473    8.7968   -0.5516 N.ar    1  LIG1       -0.2471
     41 H          -9.3713    9.0432    0.8360 H       1  LIG1        0.0638
     42 H         -13.1755   10.7837   -0.0800 H       1  LIG1        0.0843
     43 S         -12.9869    6.3166   -1.2441 S.3     1  LIG1       -0.1228
     44 H         -12.1318    5.3931   -0.7714 H       1  LIG1        0.1086
     45 N         -10.4547   12.3215    1.5094 N.1     1  LIG1       -0.1908
     46 C         -10.7872   11.3155    1.0461 C.1     1  LIG1        0.1007
@<TRIPOS>BOND
     1    33    34    3
     2    11    12    3
     3    43    44    1
     4    43    35    1
     5    34    27    1
     6    12     4    1
     7    20    21    1
     8    20    13    1
     9    30    26    1
    10     7     3    1
    11    27    26   ar
    12    27    28   ar
    13    35    40   ar
    14    35    36   ar
    15    40    39   ar
    16    26    25   ar
    17     4     3   ar
    18     4     5   ar
    19     3     2   ar
    20    18    13   ar
    21    18    17   ar
    22    13    14   ar
    23    28    36    1
    24    28    29   ar
    25    36    37   ar
    26    42    39    1
    27    39    38   ar
    28    25    17    1
    29    25    24   ar
    30     5    14    1
    31     5     6   ar
    32    17    16   ar
    33     2     8    1
    34     2     1   ar
    35    14    15   ar
    36    29    24   ar
    37    24    31    1
    38    32    31    1
    39    37    38   ar
    40    37    41    1
    41    38    46    1
    42     6     1   ar
    43     1     9    1
    44    15    16   ar
    45    15    19    1
    46    16    23    1
    47    10     9    1
    48    46    45    3
    49    23    22    3
