@<TRIPOS>MOLECULE
mol_data/opt/cam/geoms/mol2/6gd6gd6gd-6gd.out
 46 49 0 0 0
SMALL
GASTEIGER

@<TRIPOS>ATOM
      1 C          -3.9144   -2.1186   -0.5081 C.ar    1  LIG1        0.0947
      2 C          -2.5945   -1.9962   -0.0629 C.ar    1  LIG1       -0.0288
      3 C          -2.1990   -0.7783    0.4457 C.ar    1  LIG1       -0.0398
      4 C          -3.1019    0.2906    0.4799 C.ar    1  LIG1        0.0778
      5 C          -4.3983    0.0874   -0.0231 C.ar    1  LIG1        0.0921
      6 N          -4.7746   -1.1052   -0.4851 N.ar    1  LIG1       -0.2393
      7 H          -1.1941   -0.6391    0.8280 H       1  LIG1        0.0632
      8 H          -1.9065   -2.8314   -0.1020 H       1  LIG1        0.0644
      9 S          -4.5983   -3.6127   -1.1541 S.3     1  LIG1       -0.1234
     10 H          -3.5190   -4.3829   -0.9408 H       1  LIG1        0.1086
     11 N          -2.3213    2.5238    1.5307 N.1     1  LIG1       -0.1908
     12 C          -2.6854    1.5332    1.0576 C.1     1  LIG1        0.1013
     13 C          -6.7443    1.0743    0.3344 C.ar    1  LIG1        0.1039
     14 C          -5.3972    1.1885   -0.0778 C.ar    1  LIG1        0.0345
     15 C          -5.0098    2.4238   -0.5780 C.ar    1  LIG1       -0.0305
     16 C          -5.8884    3.5057   -0.6021 C.ar    1  LIG1        0.0785
     17 C          -7.1759    3.3243   -0.0690 C.ar    1  LIG1        0.0921
     18 N          -7.5622    2.1243    0.3531 N.ar    1  LIG1       -0.2387
     19 H          -4.0093    2.5612   -0.9708 H       1  LIG1        0.0638
     20 S          -7.5343   -0.3891    0.9216 S.3     1  LIG1       -0.1227
     21 H          -6.6479   -1.2475    0.3851 H       1  LIG1        0.1086
     22 N          -5.0928    5.7120   -1.6970 N.1     1  LIG1       -0.1908
     23 C          -5.4600    4.7346   -1.1999 C.1     1  LIG1        0.1013
     24 C          -9.5186    4.3610   -0.2855 C.ar    1  LIG1        0.1039
     25 C          -8.1461    4.4433    0.0460 C.ar    1  LIG1        0.0345
     26 C          -7.7019    5.6686    0.5259 C.ar    1  LIG1       -0.0305
     27 C          -8.5527    6.7693    0.6045 C.ar    1  LIG1        0.0785
     28 C          -9.8730    6.6201    0.1446 C.ar    1  LIG1        0.0921
     29 N         -10.3104    5.4306   -0.2562 N.ar    1  LIG1       -0.2387
     30 H          -6.6780    5.7816    0.8622 H       1  LIG1        0.0638
     31 S         -10.3814    2.9203   -0.8230 S.3     1  LIG1       -0.1227
     32 H          -9.4740    2.0375   -0.3651 H       1  LIG1        0.1086
     33 N          -7.6371    8.9484    1.6598 N.1     1  LIG1       -0.1908
     34 C          -8.0608    7.9848    1.1808 C.1     1  LIG1        0.1013
     35 C         -12.1665    7.7176    0.5207 C.ar    1  LIG1        0.1032
     36 C         -10.8210    7.7627    0.0810 C.ar    1  LIG1        0.0345
     37 C         -10.3674    8.9680   -0.4449 C.ar    1  LIG1       -0.0311
     38 C         -11.2049   10.0790   -0.4875 C.ar    1  LIG1        0.0705
     39 C         -12.4914    9.9402    0.0341 C.ar    1  LIG1        0.0462
     40 N         -12.9505    8.7970    0.5126 N.ar    1  LIG1       -0.2471
     41 H          -9.3578    9.0501   -0.8299 H       1  LIG1        0.0638
     42 H         -13.1718   10.7872    0.0515 H       1  LIG1        0.0843
     43 S         -13.0001    6.3123    1.1882 S.3     1  LIG1       -0.1228
     44 H         -12.1398    5.3914    0.7198 H       1  LIG1        0.1086
     45 N         -10.4309   12.3336   -1.4946 N.1     1  LIG1       -0.1908
     46 C         -10.7697   11.3247   -1.0421 C.1     1  LIG1        0.1007
@<TRIPOS>BOND
     1    22    23    3
     2    45    46    3
     3    23    16    1
     4     9    10    1
     5     9     1    1
     6    46    38    1
     7    19    15    1
     8    41    37    1
     9    31    32    1
    10    31    24    1
    11    16    15   ar
    12    16    17   ar
    13    15    14   ar
    14     1     6   ar
    15     1     2   ar
    16    38    37   ar
    17    38    39   ar
    18     6     5   ar
    19    37    36   ar
    20    24    29   ar
    21    24    25   ar
    22    29    28   ar
    23     8     2    1
    24    14     5    1
    25    14    13   ar
    26    17    25    1
    27    17    18   ar
    28     2     3   ar
    29     5     4   ar
    30    39    42    1
    31    39    40   ar
    32    25    26   ar
    33    36    28    1
    34    36    35   ar
    35    28    27   ar
    36    13    18   ar
    37    13    20    1
    38    21    20    1
    39     3     4   ar
    40     3     7    1
    41     4    12    1
    42    40    35   ar
    43    35    43    1
    44    26    27   ar
    45    26    30    1
    46    27    34    1
    47    44    43    1
    48    12    11    3
    49    34    33    3
