@<TRIPOS>MOLECULE
mol_data/opt/cam/geoms/mol2/6gd6gd-6gd.out
 35 37 0 0 0
SMALL
GASTEIGER

@<TRIPOS>ATOM
      1 C          -4.1727   -2.1263    0.2730 C.ar    1  LIG1        0.0947
      2 C          -2.8184   -2.0326   -0.0613 C.ar    1  LIG1       -0.0288
      3 C          -2.3318   -0.7959   -0.4248 C.ar    1  LIG1       -0.0398
      4 C          -3.1814    0.3163   -0.4259 C.ar    1  LIG1        0.0778
      5 C          -4.5208    0.1359   -0.0391 C.ar    1  LIG1        0.0921
      6 N          -4.9832   -1.0727    0.2818 N.ar    1  LIG1       -0.2393
      7 H          -1.2952   -0.6743   -0.7184 H       1  LIG1        0.0632
      8 H          -2.1729   -2.9019   -0.0496 H       1  LIG1        0.0644
      9 S          -4.9699   -3.6356    0.7263 S.3     1  LIG1       -0.1234
     10 H          -3.9117   -4.4373    0.5230 H       1  LIG1        0.1086
     11 N          -2.2195    2.5879   -1.2100 N.1     1  LIG1       -0.1908
     12 C          -2.6661    1.5816   -0.8558 C.1     1  LIG1        0.1013
     13 C          -6.7850    1.2722   -0.4744 C.ar    1  LIG1        0.1039
     14 C          -5.4707    1.2772    0.0451 C.ar    1  LIG1        0.0345
     15 C          -5.0693    2.4398    0.6884 C.ar    1  LIG1       -0.0305
     16 C          -5.8991    3.5578    0.7525 C.ar    1  LIG1        0.0785
     17 C          -7.1485    3.4933    0.1117 C.ar    1  LIG1        0.0921
     18 N          -7.5525    2.3589   -0.4521 N.ar    1  LIG1       -0.2387
     19 H          -4.0973    2.4890    1.1650 H       1  LIG1        0.0638
     20 S          -7.5909   -0.0875   -1.2587 S.3     1  LIG1       -0.1227
     21 H          -6.7841   -1.0375   -0.7533 H       1  LIG1        0.1086
     22 N          -5.0814    5.6031    2.1118 N.1     1  LIG1       -0.1908
     23 C          -5.4615    4.7013    1.4956 C.1     1  LIG1        0.1013
     24 C          -9.4471    4.6276    0.2950 C.ar    1  LIG1        0.1032
     25 C          -8.0562    4.6673    0.0319 C.ar    1  LIG1        0.0345
     26 C          -7.5140    5.8982   -0.3223 C.ar    1  LIG1       -0.0311
     27 C          -8.3156    7.0352   -0.3684 C.ar    1  LIG1        0.0705
     28 C          -9.6606    6.8933   -0.0258 C.ar    1  LIG1        0.0462
     29 N         -10.2008    5.7283    0.2869 N.ar    1  LIG1       -0.2471
     30 H          -6.4621    5.9806   -0.5695 H       1  LIG1        0.0638
     31 H         -10.3196    7.7571   -0.0168 H       1  LIG1        0.0843
     32 S         -10.3875    3.1969    0.7249 S.3     1  LIG1       -0.1228
     33 H          -9.4961    2.2928    0.2831 H       1  LIG1        0.1086
     34 N          -7.3710    9.3421   -1.0630 N.1     1  LIG1       -0.1908
     35 C          -7.7868    8.3095   -0.7495 C.1     1  LIG1        0.1007
@<TRIPOS>BOND
     1    20    21    1
     2    20    13    1
     3    11    12    3
     4    34    35    3
     5    12     4    1
     6    35    27    1
     7     7     3    1
     8    30    26    1
     9    13    18   ar
    10    13    14   ar
    11    18    17   ar
    12     4     3   ar
    13     4     5   ar
    14     3     2   ar
    15    27    26   ar
    16    27    28   ar
    17    26    25   ar
    18     2     8    1
    19     2     1   ar
    20     5    14    1
    21     5     6   ar
    22    28    31    1
    23    28    29   ar
    24    25    17    1
    25    25    24   ar
    26    14    15   ar
    27    17    16   ar
    28     1     6   ar
    29     1     9    1
    30    33    32    1
    31    29    24   ar
    32    24    32    1
    33    10     9    1
    34    15    16   ar
    35    15    19    1
    36    16    23    1
    37    23    22    3
