@<TRIPOS>MOLECULE
mol_data/opt/cam/geoms/mol2/6gd6gd6gd-6gd-.out
 46 49 0 0 0
SMALL
GASTEIGER

@<TRIPOS>ATOM
      1 C          -3.9079   -2.1148   -0.5089 C.ar    1  LIG1        0.0947
      2 C          -2.5906   -1.9930   -0.0562 C.ar    1  LIG1       -0.0288
      3 C          -2.1986   -0.7767    0.4587 C.ar    1  LIG1       -0.0398
      4 C          -3.1023    0.2916    0.4916 C.ar    1  LIG1        0.0778
      5 C          -4.3959    0.0892   -0.0192 C.ar    1  LIG1        0.0921
      6 N          -4.7689   -1.1020   -0.4872 N.ar    1  LIG1       -0.2393
      7 H          -1.1958   -0.6381    0.8469 H       1  LIG1        0.0632
      8 H          -1.9018   -2.8277   -0.0943 H       1  LIG1        0.0644
      9 S          -4.5874   -3.6071   -1.1638 S.3     1  LIG1       -0.1234
     10 H          -3.5088   -4.3773   -0.9471 H       1  LIG1        0.1086
     11 N          -2.3289    2.5217    1.5542 N.1     1  LIG1       -0.1908
     12 C          -2.6898    1.5325    1.0757 C.1     1  LIG1        0.1013
     13 C          -6.7444    1.0735    0.3288 C.ar    1  LIG1        0.1039
     14 C          -5.3952    1.1899   -0.0756 C.ar    1  LIG1        0.0345
     15 C          -5.0057    2.4271   -0.5695 C.ar    1  LIG1       -0.0305
     16 C          -5.8849    3.5086   -0.5948 C.ar    1  LIG1        0.0785
     17 C          -7.1752    3.3247   -0.0693 C.ar    1  LIG1        0.0921
     18 N          -7.5631    2.1230    0.3466 N.ar    1  LIG1       -0.2387
     19 H          -4.0033    2.5665   -0.9564 H       1  LIG1        0.0638
     20 S          -7.5366   -0.3923    0.9069 S.3     1  LIG1       -0.1227
     21 H          -6.6469   -1.2483    0.3723 H       1  LIG1        0.1086
     22 N          -5.0847    5.7191   -1.6779 N.1     1  LIG1       -0.1908
     23 C          -5.4541    4.7398   -1.1860 C.1     1  LIG1        0.1013
     24 C          -9.5172    4.3606   -0.2951 C.ar    1  LIG1        0.1039
     25 C          -8.1467    4.4427    0.0442 C.ar    1  LIG1        0.0345
     26 C          -7.7059    5.6666    0.5306 C.ar    1  LIG1       -0.0305
     27 C          -8.5577    6.7666    0.6083 C.ar    1  LIG1        0.0785
     28 C          -9.8755    6.6181    0.1407 C.ar    1  LIG1        0.0921
     29 N         -10.3099    5.4297   -0.2665 N.ar    1  LIG1       -0.2387
     30 H          -6.6839    5.7791    0.8728 H       1  LIG1        0.0638
     31 S         -10.3763    2.9212   -0.8422 S.3     1  LIG1       -0.1227
     32 H          -9.4708    2.0374   -0.3822 H       1  LIG1        0.1086
     33 N          -7.6493    8.9426    1.6759 N.1     1  LIG1       -0.1908
     34 C          -8.0698    7.9804    1.1914 C.1     1  LIG1        0.1013
     35 C         -12.1716    7.7129    0.5080 C.ar    1  LIG1        0.1032
     36 C         -10.8238    7.7604    0.0757 C.ar    1  LIG1        0.0345
     37 C         -10.3681    8.9677   -0.4436 C.ar    1  LIG1       -0.0311
     38 C         -11.2059   10.0783   -0.4870 C.ar    1  LIG1        0.0705
     39 C         -12.4952    9.9369    0.0271 C.ar    1  LIG1        0.0462
     40 N         -12.9563    8.7919    0.4993 N.ar    1  LIG1       -0.2471
     41 H          -9.3565    9.0516   -0.8228 H       1  LIG1        0.0638
     42 H         -13.1762   10.7835    0.0436 H       1  LIG1        0.0843
     43 S         -13.0079    6.3049    1.1662 S.3     1  LIG1       -0.1228
     44 H         -12.1445    5.3861    0.6994 H       1  LIG1        0.1086
     45 N         -10.4279   12.3367   -1.4823 N.1     1  LIG1       -0.1908
     46 C         -10.7685   11.3261   -1.0350 C.1     1  LIG1        0.1007
@<TRIPOS>BOND
     1    22    23    3
     2    45    46    3
     3    23    16    1
     4     9    10    1
     5     9     1    1
     6    46    38    1
     7    19    15    1
     8    31    32    1
     9    31    24    1
    10    41    37    1
    11    16    15   ar
    12    16    17   ar
    13    15    14   ar
    14     1     6   ar
    15     1     2   ar
    16     6     5   ar
    17    38    37   ar
    18    38    39   ar
    19    37    36   ar
    20    24    29   ar
    21    24    25   ar
    22    29    28   ar
    23     8     2    1
    24    14     5    1
    25    14    13   ar
    26    17    25    1
    27    17    18   ar
    28     2     3   ar
    29     5     4   ar
    30    39    42    1
    31    39    40   ar
    32    25    26   ar
    33    36    28    1
    34    36    35   ar
    35    28    27   ar
    36    13    18   ar
    37    13    20    1
    38    21    20    1
    39     3     4   ar
    40     3     7    1
    41     4    12    1
    42    40    35   ar
    43    35    43    1
    44    26    27   ar
    45    26    30    1
    46    27    34    1
    47    44    43    1
    48    12    11    3
    49    34    33    3
