@<TRIPOS>MOLECULE
mol_data/opt/cam/geoms/mol2/6gd6gd6gd-.out
 35 37 0 0 0
SMALL
GASTEIGER

@<TRIPOS>ATOM
      1 C          -4.1773   -2.1276   -0.2812 C.ar    1  LIG1        0.0947
      2 C          -2.8268   -2.0385    0.0695 C.ar    1  LIG1       -0.0288
      3 C          -2.3424   -0.8050    0.4467 C.ar    1  LIG1       -0.0398
      4 C          -3.1901    0.3086    0.4450 C.ar    1  LIG1        0.0778
      5 C          -4.5252    0.1331    0.0415 C.ar    1  LIG1        0.0921
      6 N          -4.9859   -1.0727   -0.2926 N.ar    1  LIG1       -0.2393
      7 H          -1.3091   -0.6871    0.7531 H       1  LIG1        0.0632
      8 H          -2.1827   -2.9089    0.0597 H       1  LIG1        0.0644
      9 S          -4.9716   -3.6326   -0.7535 S.3     1  LIG1       -0.1234
     10 H          -3.9172   -4.4375   -0.5431 H       1  LIG1        0.1086
     11 N          -2.2336    2.5735    1.2550 N.1     1  LIG1       -0.1908
     12 C          -2.6777    1.5702    0.8891 C.1     1  LIG1        0.1013
     13 C          -6.7924    1.2705    0.4578 C.ar    1  LIG1        0.1039
     14 C          -5.4721    1.2765   -0.0463 C.ar    1  LIG1        0.0345
     15 C          -5.0613    2.4426   -0.6774 C.ar    1  LIG1       -0.0305
     16 C          -5.8884    3.5624   -0.7439 C.ar    1  LIG1        0.0785
     17 C          -7.1454    3.4960   -0.1182 C.ar    1  LIG1        0.0921
     18 N          -7.5577    2.3586    0.4335 N.ar    1  LIG1       -0.2387
     19 H          -4.0838    2.4932   -1.1423 H       1  LIG1        0.0638
     20 S          -7.6096   -0.0928    1.2238 S.3     1  LIG1       -0.1227
     21 H          -6.7986   -1.0410    0.7217 H       1  LIG1        0.1086
     22 N          -5.0515    5.6150   -2.0804 N.1     1  LIG1       -0.1908
     23 C          -5.4403    4.7099   -1.4745 C.1     1  LIG1        0.1013
     24 C          -9.4397    4.6354   -0.3209 C.ar    1  LIG1        0.1032
     25 C          -8.0520    4.6709   -0.0413 C.ar    1  LIG1        0.0345
     26 C          -7.5118    5.8986    0.3271 C.ar    1  LIG1       -0.0311
     27 C          -8.3120    7.0367    0.3712 C.ar    1  LIG1        0.0705
     28 C          -9.6532    6.8993    0.0120 C.ar    1  LIG1        0.0462
     29 N         -10.1916    5.7373   -0.3144 N.ar    1  LIG1       -0.2471
     30 H          -6.4628    5.9776    0.5871 H       1  LIG1        0.0638
     31 H         -10.3106    7.7643    0.0010 H       1  LIG1        0.0843
     32 S         -10.3774    3.2092   -0.7709 S.3     1  LIG1       -0.1228
     33 H          -9.4928    2.3007   -0.3247 H       1  LIG1        0.1086
     34 N          -7.3718    9.3374    1.0917 N.1     1  LIG1       -0.1908
     35 C          -7.7856    8.3076    0.7667 C.1     1  LIG1        0.1007
@<TRIPOS>BOND
     1    22    23    3
     2    23    16    1
     3    19    15    1
     4    32    33    1
     5    32    24    1
     6     9    10    1
     7     9     1    1
     8    16    15   ar
     9    16    17   ar
    10    15    14   ar
    11    24    29   ar
    12    24    25   ar
    13    29    28   ar
    14     6     1   ar
    15     6     5   ar
    16     1     2   ar
    17    17    25    1
    18    17    18   ar
    19    14     5    1
    20    14    13   ar
    21    25    26   ar
    22    31    28    1
    23    28    27   ar
    24     5     4   ar
    25     8     2    1
    26     2     3   ar
    27    26    27   ar
    28    26    30    1
    29    27    35    1
    30    18    13   ar
    31     4     3   ar
    32     4    12    1
    33     3     7    1
    34    13    20    1
    35    21    20    1
    36    35    34    3
    37    12    11    3
