@<TRIPOS>MOLECULE
mol_data/opt/cam/geoms/mol2/6gd6gd-6gd-.out
 35 37 0 0 0
SMALL
GASTEIGER

@<TRIPOS>ATOM
      1 C          -4.1733   -2.1264    0.2759 C.ar    1  LIG1        0.0947
      2 C          -2.8168   -2.0315   -0.0489 C.ar    1  LIG1       -0.0288
      3 C          -2.3280   -0.7938   -0.4062 C.ar    1  LIG1       -0.0398
      4 C          -3.1779    0.3181   -0.4104 C.ar    1  LIG1        0.0778
      5 C          -4.5199    0.1364   -0.0332 C.ar    1  LIG1        0.0921
      6 N          -4.9842   -1.0731    0.2817 N.ar    1  LIG1       -0.2393
      7 H          -1.2895   -0.6712   -0.6924 H       1  LIG1        0.0632
      8 H          -2.1711   -2.9007   -0.0349 H       1  LIG1        0.0644
      9 S          -4.9731   -3.6370    0.7201 S.3     1  LIG1       -0.1234
     10 H          -3.9133   -4.4380    0.5222 H       1  LIG1        0.1086
     11 N          -2.2114    2.5919   -1.1825 N.1     1  LIG1       -0.1908
     12 C          -2.6601    1.5846   -0.8337 C.1     1  LIG1        0.1013
     13 C          -6.7814    1.2731   -0.4813 C.ar    1  LIG1        0.1039
     14 C          -5.4707    1.2773    0.0472 C.ar    1  LIG1        0.0345
     15 C          -5.0740    2.4384    0.6960 C.ar    1  LIG1       -0.0305
     16 C          -5.9046    3.5560    0.7571 C.ar    1  LIG1        0.0785
     17 C          -7.1496    3.4927    0.1076 C.ar    1  LIG1        0.0921
     18 N          -7.5493    2.3595   -0.4616 N.ar    1  LIG1       -0.2387
     19 H          -4.1054    2.4868    1.1793 H       1  LIG1        0.0638
     20 S          -7.5815   -0.0849   -1.2743 S.3     1  LIG1       -0.1227
     21 H          -6.7779   -1.0359   -0.7657 H       1  LIG1        0.1086
     22 N          -5.0968    5.5984    2.1269 N.1     1  LIG1       -0.1908
     23 C          -5.4724    4.6979    1.5059 C.1     1  LIG1        0.1013
     24 C          -9.4497    4.6259    0.2779 C.ar    1  LIG1        0.1032
     25 C          -8.0571    4.6666    0.0244 C.ar    1  LIG1        0.0345
     26 C          -7.5128    5.8985   -0.3232 C.ar    1  LIG1       -0.0311
     27 C          -8.3144    7.0354   -0.3720 C.ar    1  LIG1        0.0705
     28 C          -9.6617    6.8923   -0.0390 C.ar    1  LIG1        0.0462
     29 N         -10.2036    5.7264    0.2672 N.ar    1  LIG1       -0.2471
     30 H          -6.4593    5.9818   -0.5629 H       1  LIG1        0.0638
     31 H         -10.3210    7.7559   -0.0324 H       1  LIG1        0.0843
     32 S         -10.3925    3.1940    0.6979 S.3     1  LIG1       -0.1228
     33 H          -9.4979    2.2911    0.2601 H       1  LIG1        0.1086
     34 N          -7.3658    9.3442   -1.0546 N.1     1  LIG1       -0.1908
     35 C          -7.7834    8.3108   -0.7464 C.1     1  LIG1        0.1007
@<TRIPOS>BOND
     1    20    21    1
     2    20    13    1
     3    11    12    3
     4    34    35    3
     5    12     4    1
     6    35    27    1
     7     7     3    1
     8    30    26    1
     9    13    18   ar
    10    13    14   ar
    11    18    17   ar
    12     4     3   ar
    13     4     5   ar
    14     3     2   ar
    15    27    26   ar
    16    27    28   ar
    17    26    25   ar
    18     2     8    1
    19     2     1   ar
    20    28    31    1
    21    28    29   ar
    22     5    14    1
    23     5     6   ar
    24    25    17    1
    25    25    24   ar
    26    14    15   ar
    27    17    16   ar
    28    33    32    1
    29    29    24   ar
    30     1     6   ar
    31     1     9    1
    32    24    32    1
    33    10     9    1
    34    15    16   ar
    35    15    19    1
    36    16    23    1
    37    23    22    3
