@<TRIPOS>MOLECULE
mol_data/opt/cam/geoms/mol2/6gd6gd6gd6gd-.out
 46 49 0 0 0
SMALL
GASTEIGER

@<TRIPOS>ATOM
      1 C          -3.9275   -2.1268    0.4999 C.ar    1  LIG1        0.0947
      2 C          -2.6004   -2.0007    0.0779 C.ar    1  LIG1       -0.0288
      3 C          -2.1957   -0.7778   -0.4110 C.ar    1  LIG1       -0.0398
      4 C          -3.0971    0.2923   -0.4486 C.ar    1  LIG1        0.0778
      5 C          -4.4018    0.0847    0.0308 C.ar    1  LIG1        0.0921
      6 N          -4.7865   -1.1124    0.4736 N.ar    1  LIG1       -0.2393
      7 H          -1.1844   -0.6353   -0.7751 H       1  LIG1        0.0632
      8 H          -1.9136   -2.8369    0.1193 H       1  LIG1        0.0644
      9 S          -4.6231   -3.6271    1.1184 S.3     1  LIG1       -0.1234
     10 H          -3.5409   -4.3959    0.9146 H       1  LIG1        0.1086
     11 N          -2.2977    2.5359   -1.4623 N.1     1  LIG1       -0.1908
     12 C          -2.6703    1.5407   -1.0059 C.1     1  LIG1        0.1013
     13 C          -6.7409    1.0775   -0.3548 C.ar    1  LIG1        0.1039
     14 C          -5.4007    1.1860    0.0808 C.ar    1  LIG1        0.0345
     15 C          -5.0207    2.4156    0.6006 C.ar    1  LIG1       -0.0305
     16 C          -5.8989    3.4979    0.6219 C.ar    1  LIG1        0.0785
     17 C          -7.1775    3.3235    0.0656 C.ar    1  LIG1        0.0921
     18 N          -7.5577    2.1283   -0.3757 N.ar    1  LIG1       -0.2387
     19 H          -4.0268    2.5479    1.0113 H       1  LIG1        0.0638
     20 S          -7.5221   -0.3788   -0.9707 S.3     1  LIG1       -0.1227
     21 H          -6.6453   -1.2437   -0.4289 H       1  LIG1        0.1086
     22 N          -5.1199    5.6916    1.7535 N.1     1  LIG1       -0.1908
     23 C          -5.4796    4.7199    1.2398 C.1     1  LIG1        0.1013
     24 C          -9.5227    4.3598    0.2546 C.ar    1  LIG1        0.1039
     25 C          -8.1449    4.4445   -0.0534 C.ar    1  LIG1        0.0345
     26 C          -7.6920    5.6745   -0.5126 C.ar    1  LIG1       -0.0305
     27 C          -8.5405    6.7767   -0.5934 C.ar    1  LIG1        0.0785
     28 C          -9.8684    6.6237   -0.1570 C.ar    1  LIG1        0.0921
     29 N         -10.3132    5.4304    0.2237 N.ar    1  LIG1       -0.2387
     30 H          -6.6626    5.7901   -0.8307 H       1  LIG1        0.0638
     31 S         -10.3953    2.9141    0.7622 S.3     1  LIG1       -0.1227
     32 H          -9.4811    2.0355    0.3099 H       1  LIG1        0.1086
     33 N          -7.6061    8.9662   -1.6098 N.1     1  LIG1       -0.1908
     34 C          -8.0384    7.9979   -1.1483 C.1     1  LIG1        0.1013
     35 C         -12.1546    7.7272   -0.5590 C.ar    1  LIG1        0.1032
     36 C         -10.8165    7.7664   -0.0967 C.ar    1  LIG1        0.0345
     37 C         -10.3708    8.9656    0.4496 C.ar    1  LIG1       -0.0311
     38 C         -11.2081   10.0768    0.4903 C.ar    1  LIG1        0.0705
     39 C         -12.4859    9.9447   -0.0539 C.ar    1  LIG1        0.0462
     40 N         -12.9379    8.8072   -0.5523 N.ar    1  LIG1       -0.2471
     41 H          -9.3677    9.0426    0.8520 H       1  LIG1        0.0638
     42 H         -13.1653   10.7925   -0.0734 H       1  LIG1        0.0843
     43 S         -12.9780    6.3299   -1.2553 S.3     1  LIG1       -0.1228
     44 H         -12.1262    5.4033   -0.7827 H       1  LIG1        0.1086
     45 N         -10.4493   12.3197    1.5343 N.1     1  LIG1       -0.1908
     46 C         -10.7812   11.3160    1.0654 C.1     1  LIG1        0.1007
@<TRIPOS>BOND
     1    33    34    3
     2    11    12    3
     3    43    44    1
     4    43    35    1
     5    34    27    1
     6    12     4    1
     7    20    21    1
     8    20    13    1
     9    30    26    1
    10     7     3    1
    11    27    26   ar
    12    27    28   ar
    13    35    40   ar
    14    35    36   ar
    15    40    39   ar
    16    26    25   ar
    17     4     3   ar
    18     4     5   ar
    19     3     2   ar
    20    18    13   ar
    21    18    17   ar
    22    13    14   ar
    23    28    36    1
    24    28    29   ar
    25    36    37   ar
    26    42    39    1
    27    39    38   ar
    28    25    17    1
    29    25    24   ar
    30     5    14    1
    31     5     6   ar
    32    17    16   ar
    33     2     8    1
    34     2     1   ar
    35    14    15   ar
    36    29    24   ar
    37    24    31    1
    38    32    31    1
    39    37    38   ar
    40    37    41    1
    41     6     1   ar
    42    38    46    1
    43     1     9    1
    44    15    16   ar
    45    15    19    1
    46    16    23    1
    47    10     9    1
    48    46    45    3
    49    23    22    3
