@<TRIPOS>MOLECULE
mol_data/opt/cam/geoms/mol2/6gd6gd-6gd6gd.out
 46 49 0 0 0
SMALL
GASTEIGER

@<TRIPOS>ATOM
      1 C          -3.9036   -2.1118    0.5113 C.ar    1  LIG1        0.0947
      2 C          -2.5861   -1.9894    0.0592 C.ar    1  LIG1       -0.0288
      3 C          -2.1948   -0.7731   -0.4564 C.ar    1  LIG1       -0.0398
      4 C          -3.0993    0.2945   -0.4904 C.ar    1  LIG1        0.0778
      5 C          -4.3930    0.0915    0.0198 C.ar    1  LIG1        0.0921
      6 N          -4.7653   -1.0997    0.4885 N.ar    1  LIG1       -0.2393
      7 H          -1.1919   -0.6340   -0.8441 H       1  LIG1        0.0632
      8 H          -1.8967   -2.8235    0.0982 H       1  LIG1        0.0644
      9 S          -4.5823   -3.6042    1.1668 S.3     1  LIG1       -0.1234
     10 H          -3.5030   -4.3738    0.9513 H       1  LIG1        0.1086
     11 N          -2.3270    2.5245   -1.5541 N.1     1  LIG1       -0.1908
     12 C          -2.6874    1.5353   -1.0752 C.1     1  LIG1        0.1013
     13 C          -6.7421    1.0738   -0.3301 C.ar    1  LIG1        0.1039
     14 C          -5.3931    1.1914    0.0749 C.ar    1  LIG1        0.0345
     15 C          -5.0049    2.4293    0.5682 C.ar    1  LIG1       -0.0305
     16 C          -5.8849    3.5101    0.5923 C.ar    1  LIG1        0.0785
     17 C          -7.1747    3.3249    0.0663 C.ar    1  LIG1        0.0921
     18 N          -7.5615    2.1226   -0.3490 N.ar    1  LIG1       -0.2387
     19 H          -4.0027    2.5697    0.9555 H       1  LIG1        0.0638
     20 S          -7.5329   -0.3931   -0.9076 S.3     1  LIG1       -0.1227
     21 H          -6.6428   -1.2480   -0.3719 H       1  LIG1        0.1086
     22 N          -5.0869    5.7219    1.6744 N.1     1  LIG1       -0.1908
     23 C          -5.4553    4.7420    1.1830 C.1     1  LIG1        0.1013
     24 C          -9.5177    4.3592    0.2902 C.ar    1  LIG1        0.1039
     25 C          -8.1470    4.4421   -0.0485 C.ar    1  LIG1        0.0345
     26 C          -7.7069    5.6660   -0.5355 C.ar    1  LIG1       -0.0305
     27 C          -8.5595    6.7653   -0.6144 C.ar    1  LIG1        0.0785
     28 C          -9.8774    6.6161   -0.1474 C.ar    1  LIG1        0.0921
     29 N         -10.3112    5.4277    0.2604 N.ar    1  LIG1       -0.2387
     30 H          -6.6848    5.7790   -0.8773 H       1  LIG1        0.0638
     31 S         -10.3759    2.9196    0.8378 S.3     1  LIG1       -0.1227
     32 H          -9.4696    2.0361    0.3789 H       1  LIG1        0.1086
     33 N          -7.6521    8.9413   -1.6829 N.1     1  LIG1       -0.1908
     34 C          -8.0721    7.9791   -1.1980 C.1     1  LIG1        0.1013
     35 C         -12.1742    7.7090   -0.5166 C.ar    1  LIG1        0.1032
     36 C         -10.8266    7.7577   -0.0837 C.ar    1  LIG1        0.0345
     37 C         -10.3720    8.9657    0.4351 C.ar    1  LIG1       -0.0311
     38 C         -11.2108   10.0757    0.4773 C.ar    1  LIG1        0.0705
     39 C         -12.4997    9.9331   -0.0373 C.ar    1  LIG1        0.0462
     40 N         -12.9596    8.7874   -0.5090 N.ar    1  LIG1       -0.2471
     41 H          -9.3607    9.0507    0.8148 H       1  LIG1        0.0638
     42 H         -13.1813   10.7791   -0.0548 H       1  LIG1        0.0843
     43 S         -13.0091    6.2999   -1.1743 S.3     1  LIG1       -0.1228
     44 H         -12.1452    5.3821   -0.7064 H       1  LIG1        0.1086
     45 N         -10.4349   12.3354    1.4715 N.1     1  LIG1       -0.1908
     46 C         -10.7745   11.3242    1.0247 C.1     1  LIG1        0.1007
@<TRIPOS>BOND
     1    33    34    3
     2    11    12    3
     3    34    27    1
     4    43    44    1
     5    43    35    1
     6    12     4    1
     7    20    21    1
     8    20    13    1
     9    30    26    1
    10     7     3    1
    11    27    26   ar
    12    27    28   ar
    13    26    25   ar
    14    35    40   ar
    15    35    36   ar
    16    40    39   ar
    17     4     3   ar
    18     4     5   ar
    19     3     2   ar
    20    18    13   ar
    21    18    17   ar
    22    13    14   ar
    23    28    36    1
    24    28    29   ar
    25    36    37   ar
    26    42    39    1
    27    25    17    1
    28    25    24   ar
    29    39    38   ar
    30     5    14    1
    31     5     6   ar
    32     2     8    1
    33     2     1   ar
    34    17    16   ar
    35    14    15   ar
    36    29    24   ar
    37    24    31    1
    38    32    31    1
    39    37    38   ar
    40    37    41    1
    41    38    46    1
    42     6     1   ar
    43     1     9    1
    44    15    16   ar
    45    15    19    1
    46    16    23    1
    47    10     9    1
    48    46    45    3
    49    23    22    3
