@<TRIPOS>MOLECULE
mol_data/opt/cam/geoms/mol2/6gd6gd-6gd-6gd.out
 46 49 0 0 0
SMALL
GASTEIGER

@<TRIPOS>ATOM
      1 C          -4.0034   -2.1880   -0.1203 C.ar    1  LIG1        0.0947
      2 C          -2.6195   -2.0114   -0.2144 C.ar    1  LIG1       -0.0288
      3 C          -2.1405   -0.7218   -0.2904 C.ar    1  LIG1       -0.0398
      4 C          -3.0307    0.3574   -0.2469 C.ar    1  LIG1        0.0778
      5 C          -4.4035    0.0869   -0.1143 C.ar    1  LIG1        0.0921
      6 N          -4.8538   -1.1671   -0.0714 N.ar    1  LIG1       -0.2393
      7 H          -1.0778   -0.5319   -0.3908 H       1  LIG1        0.0632
      8 H          -1.9437   -2.8571   -0.2407 H       1  LIG1        0.0644
      9 S          -4.7896   -3.7673   -0.0499 S.3     1  LIG1       -0.1234
     10 H          -3.6767   -4.5025   -0.2075 H       1  LIG1        0.1086
     11 N          -2.0729    2.7504   -0.4847 N.1     1  LIG1       -0.1908
     12 C          -2.5167    1.6879   -0.3764 C.1     1  LIG1        0.1013
     13 C          -6.6238    1.2327   -0.7182 C.ar    1  LIG1        0.1039
     14 C          -5.4075    1.1787   -0.0004 C.ar    1  LIG1        0.0345
     15 C          -5.1660    2.2256    0.8780 C.ar    1  LIG1       -0.0305
     16 C          -6.0449    3.3024    0.9856 C.ar    1  LIG1        0.0785
     17 C          -7.1717    3.3222    0.1459 C.ar    1  LIG1        0.0921
     18 N          -7.4322    2.2876   -0.6476 N.ar    1  LIG1       -0.2387
     19 H          -4.2845    2.2135    1.5081 H       1  LIG1        0.0638
     20 S          -7.2384    0.0025   -1.8223 S.3     1  LIG1       -0.1227
     21 H          -6.4802   -1.0012   -1.3450 H       1  LIG1        0.1086
     22 N          -5.5517    5.1064    2.7749 N.1     1  LIG1       -0.1908
     23 C          -5.7835    4.3121    1.9669 C.1     1  LIG1        0.1013
     24 C          -9.5202    4.3658    0.0843 C.ar    1  LIG1        0.1039
     25 C          -8.1095    4.4740    0.1013 C.ar    1  LIG1        0.0345
     26 C          -7.5899    5.7613    0.0877 C.ar    1  LIG1       -0.0305
     27 C          -8.4203    6.8805    0.0820 C.ar    1  LIG1        0.0785
     28 C          -9.8102    6.6738    0.1028 C.ar    1  LIG1        0.0921
     29 N         -10.3066    5.4405    0.1114 N.ar    1  LIG1       -0.2387
     30 H          -6.5174    5.9149    0.0842 H       1  LIG1        0.0638
     31 S         -10.4569    2.8722    0.0850 S.3     1  LIG1       -0.1227
     32 H          -9.4463    2.0675   -0.2894 H       1  LIG1        0.1086
     33 N          -7.3138    9.2205    0.0975 N.1     1  LIG1       -0.1908
     34 C          -7.8246    8.1829    0.0945 C.1     1  LIG1        0.1013
     35 C         -11.8919    7.9212    0.9443 C.ar    1  LIG1        0.1032
     36 C         -10.7773    7.8037    0.0802 C.ar    1  LIG1        0.0345
     37 C         -10.5881    8.8206   -0.8487 C.ar    1  LIG1       -0.0311
     38 C         -11.4472    9.9159   -0.8803 C.ar    1  LIG1        0.0705
     39 C         -12.4757    9.9600    0.0608 C.ar    1  LIG1        0.0462
     40 N         -12.6882    8.9908    0.9343 N.ar    1  LIG1       -0.2471
     41 H          -9.7709    8.7679   -1.5580 H       1  LIG1        0.0638
     42 H         -13.1535   10.8085    0.0956 H       1  LIG1        0.0843
     43 S         -12.3747    6.7584    2.1821 S.3     1  LIG1       -0.1228
     44 H         -11.6846    5.7169    1.6888 H       1  LIG1        0.1086
     45 N         -11.1677   11.8123   -2.6187 N.1     1  LIG1       -0.1908
     46 C         -11.2859   10.9648   -1.8407 C.1     1  LIG1        0.1007
@<TRIPOS>BOND
     1    45    46    3
     2    46    38    1
     3    20    21    1
     4    20    13    1
     5    41    37    1
     6    38    37   ar
     7    38    39   ar
     8    37    36   ar
     9    13    18   ar
    10    13    14   ar
    11    18    17   ar
    12    11    12    3
    13     7     3    1
    14    12     4    1
    15     3     4   ar
    16     3     2   ar
    17    32    31    1
    18     4     5   ar
    19     8     2    1
    20     2     1   ar
    21    10     9    1
    22     1     6   ar
    23     1     9    1
    24     5     6   ar
    25     5    14    1
    26    14    15   ar
    27    39    42    1
    28    39    40   ar
    29    36    28    1
    30    36    35   ar
    31    27    26   ar
    32    27    34    1
    33    27    28   ar
    34    30    26    1
    35    24    31    1
    36    24    25   ar
    37    24    29   ar
    38    26    25   ar
    39    34    33    3
    40    25    17    1
    41    28    29   ar
    42    17    16   ar
    43    15    16   ar
    44    15    19    1
    45    40    35   ar
    46    35    43    1
    47    16    23    1
    48    44    43    1
    49    23    22    3
