@<TRIPOS>MOLECULE
mol_data/opt/cam/geoms/mol2/6gd6gd-.out
 24 25 0 0 0
SMALL
GASTEIGER

@<TRIPOS>ATOM
      1 C          -4.3715   -2.0118    0.5203 C.ar    1  LIG1        0.0947
      2 C          -3.0193   -2.0373    0.1663 C.ar    1  LIG1       -0.0288
      3 C          -2.4667   -0.8779   -0.3327 C.ar    1  LIG1       -0.0398
      4 C          -3.2500    0.2761   -0.4471 C.ar    1  LIG1        0.0778
      5 C          -4.5923    0.2193   -0.0327 C.ar    1  LIG1        0.0921
      6 N          -5.1194   -0.9179    0.4222 N.ar    1  LIG1       -0.2393
      7 H          -1.4291   -0.8506   -0.6461 H       1  LIG1        0.0632
      8 H          -2.4262   -2.9378    0.2663 H       1  LIG1        0.0644
      9 S          -5.2489   -3.4145    1.1409 S.3     1  LIG1       -0.1234
     10 H          -4.2388   -4.2924    1.0267 H       1  LIG1        0.1086
     11 N          -2.1542    2.3836   -1.4758 N.1     1  LIG1       -0.1908
     12 C          -2.6642    1.4544   -1.0130 C.1     1  LIG1        0.1013
     13 C          -6.7766    1.4419   -0.6103 C.ar    1  LIG1        0.1032
     14 C          -5.4724    1.4186   -0.0623 C.ar    1  LIG1        0.0345
     15 C          -4.9934    2.6056    0.4797 C.ar    1  LIG1       -0.0311
     16 C          -5.7663    3.7630    0.4373 C.ar    1  LIG1        0.0705
     17 C          -7.0134    3.6867   -0.1828 C.ar    1  LIG1        0.0462
     18 N          -7.4972    2.5615   -0.6808 N.ar    1  LIG1       -0.2471
     19 H          -4.0137    2.6381    0.9415 H       1  LIG1        0.0638
     20 H          -7.6411    4.5696   -0.2668 H       1  LIG1        0.0843
     21 S          -7.6260    0.0697   -1.3281 S.3     1  LIG1       -0.1228
     22 H          -6.8667   -0.8876   -0.7700 H       1  LIG1        0.1086
     23 N          -4.9368    5.9861    1.4698 N.1     1  LIG1       -0.1908
     24 C          -5.3025    4.9920    1.0058 C.1     1  LIG1        0.1007
@<TRIPOS>BOND
     1    11    12    3
     2    21    22    1
     3    21    13    1
     4    12     4    1
     5    18    13   ar
     6    18    17   ar
     7     7     3    1
     8    13    14   ar
     9     4     3   ar
    10     4     5   ar
    11     3     2   ar
    12    20    17    1
    13    17    16   ar
    14    14     5    1
    15    14    15   ar
    16     5     6   ar
    17     2     8    1
    18     2     1   ar
    19     6     1   ar
    20    16    15   ar
    21    16    24    1
    22    15    19    1
    23     1     9    1
    24    24    23    3
    25    10     9    1
