@<TRIPOS>MOLECULE
mol_data/opt/cam/geoms/mol2/6gd6gd.out
 24 25 0 0 0
SMALL
GASTEIGER

@<TRIPOS>ATOM
      1 C          -4.3667   -2.0097   -0.5267 C.ar    1  LIG1        0.0947
      2 C          -3.0187   -2.0374   -0.1575 C.ar    1  LIG1       -0.0288
      3 C          -2.4713   -0.8804    0.3527 C.ar    1  LIG1       -0.0398
      4 C          -3.2553    0.2735    0.4631 C.ar    1  LIG1        0.0778
      5 C          -4.5929    0.2191    0.0333 C.ar    1  LIG1        0.0921
      6 N          -5.1153   -0.9160   -0.4324 N.ar    1  LIG1       -0.2393
      7 H          -1.4373   -0.8547    0.6779 H       1  LIG1        0.0632
      8 H          -2.4248   -2.9377   -0.2545 H       1  LIG1        0.0644
      9 S          -5.2376   -3.4094   -1.1631 S.3     1  LIG1       -0.1234
     10 H          -4.2292   -4.2882   -1.0412 H       1  LIG1        0.1086
     11 N          -2.1704    2.3762    1.5130 N.1     1  LIG1       -0.1908
     12 C          -2.6755    1.4492    1.0405 C.1     1  LIG1        0.1013
     13 C          -6.7831    1.4402    0.5913 C.ar    1  LIG1        0.1032
     14 C          -5.4728    1.4186    0.0580 C.ar    1  LIG1        0.0345
     15 C          -4.9873    2.6077   -0.4735 C.ar    1  LIG1       -0.0311
     16 C          -5.7602    3.7652   -0.4350 C.ar    1  LIG1        0.0705
     17 C          -7.0142    3.6869    0.1706 C.ar    1  LIG1        0.0462
     18 N          -7.5041    2.5598    0.6583 N.ar    1  LIG1       -0.2471
     19 H          -4.0023    2.6417   -0.9240 H       1  LIG1        0.0638
     20 H          -7.6425    4.5697    0.2512 H       1  LIG1        0.0843
     21 S          -7.6412    0.0653    1.2936 S.3     1  LIG1       -0.1228
     22 H          -6.8760   -0.8899    0.7400 H       1  LIG1        0.1086
     23 N          -4.9181    5.9924   -1.4486 N.1     1  LIG1       -0.1908
     24 C          -5.2894    4.9964   -0.9930 C.1     1  LIG1        0.1007
@<TRIPOS>BOND
     1    23    24    3
     2     9    10    1
     3     9     1    1
     4    24    16    1
     5    19    15    1
     6     1     6   ar
     7     1     2   ar
     8    15    16   ar
     9    15    14   ar
    10    16    17   ar
    11     6     5   ar
    12     8     2    1
    13     2     3   ar
    14     5    14    1
    15     5     4   ar
    16    14    13   ar
    17    17    20    1
    18    17    18   ar
    19     3     4   ar
    20     3     7    1
    21     4    12    1
    22    13    18   ar
    23    13    21    1
    24    22    21    1
    25    12    11    3
