@<TRIPOS>MOLECULE
mol_data/opt/cam/geoms/mol2/6ge.out
 14 14 0 0 0
SMALL
GASTEIGER

@<TRIPOS>ATOM
      1 C          -4.5489   -2.0088    0.0001 C.ar    1  LIG1        0.0940
      2 C          -3.1515   -2.0076   -0.0000 C.ar    1  LIG1       -0.0289
      3 C          -2.4987   -0.7901   -0.0002 C.ar    1  LIG1       -0.0424
      4 C          -3.2449    0.3933   -0.0002 C.ar    1  LIG1        0.0428
      5 C          -4.6373    0.2699   -0.0002 C.ar    1  LIG1        0.0442
      6 N          -5.2741   -0.8947   -0.0000 N.ar    1  LIG1       -0.2478
      7 H          -1.4152   -0.7444   -0.0002 H       1  LIG1        0.0631
      8 H          -2.5910   -2.9350    0.0001 H       1  LIG1        0.0644
      9 H          -5.2579    1.1618   -0.0002 H       1  LIG1        0.0842
     10 S          -5.5229   -3.4921    0.0002 S.3     1  LIG1       -0.1234
     11 H          -4.4938   -4.3557    0.0003 H       1  LIG1        0.1086
     12 C          -2.6210    1.6784   -0.0004 C.1     1  LIG1       -0.0681
     13 C          -2.0967    2.7619   -0.0005 C.1     1  LIG1       -0.1139
     14 H          -1.6349    3.7224   -0.0008 H       1  LIG1        0.1232
@<TRIPOS>BOND
     1    14    13    1
     2    13    12    3
     3    12     4    1
     4     4     5   ar
     5     4     3   ar
     6     9     5    1
     7     7     3    1
     8     5     6   ar
     9     3     2   ar
    10     6     1   ar
    11     2     1   ar
    12     2     8    1
    13     1    10    1
    14    10    11    1
