@<TRIPOS>MOLECULE
mol_data/opt/cam/geoms/mol2/6ge6ge.out
 26 27 0 0 0
SMALL
GASTEIGER

@<TRIPOS>ATOM
      1 C          -4.4036   -1.9697   -0.6427 C.ar    1  LIG1        0.0947
      2 C          -3.0357   -2.0111   -0.3680 C.ar    1  LIG1       -0.0288
      3 C          -2.4519   -0.8697    0.1394 C.ar    1  LIG1       -0.0418
      4 C          -3.2123    0.2887    0.3447 C.ar    1  LIG1        0.0508
      5 C          -4.5781    0.2399    0.0042 C.ar    1  LIG1        0.0901
      6 N          -5.1375   -0.8797   -0.4618 N.ar    1  LIG1       -0.2394
      7 H          -1.3975   -0.8574    0.3921 H       1  LIG1        0.0631
      8 H          -2.4525   -2.9087   -0.5342 H       1  LIG1        0.0644
      9 S          -5.3225   -3.3516   -1.2663 S.3     1  LIG1       -0.1234
     10 H          -4.3129   -4.2369   -1.2334 H       1  LIG1        0.1086
     11 C          -2.5846    1.4398    0.9148 C.1     1  LIG1       -0.0675
     12 C          -2.0111    2.3780    1.4043 C.1     1  LIG1       -0.1138
     13 H          -1.5223    3.2194    1.8396 H       1  LIG1        0.1232
     14 C          -6.7189    1.4397    0.7603 C.ar    1  LIG1        0.1032
     15 C          -5.4579    1.4344    0.1251 C.ar    1  LIG1        0.0343
     16 C          -5.0226    2.6362   -0.4216 C.ar    1  LIG1       -0.0331
     17 C          -5.7881    3.7957   -0.3065 C.ar    1  LIG1        0.0434
     18 C          -6.9917    3.6893    0.3933 C.ar    1  LIG1        0.0442
     19 N          -7.4397    2.5514    0.8998 N.ar    1  LIG1       -0.2471
     20 H          -4.0731    2.6781   -0.9413 H       1  LIG1        0.0638
     21 H          -7.6173    4.5662    0.5368 H       1  LIG1        0.0842
     22 S          -7.5034    0.0404    1.5132 S.3     1  LIG1       -0.1228
     23 H          -6.7990   -0.8969    0.8572 H       1  LIG1        0.1086
     24 C          -5.3625    5.0391   -0.8663 C.1     1  LIG1       -0.0681
     25 C          -5.0074    6.0889   -1.3362 C.1     1  LIG1       -0.1139
     26 H          -4.6963    7.0187   -1.7537 H       1  LIG1        0.1232
@<TRIPOS>BOND
     1    26    25    1
     2    25    24    3
     3     9    10    1
     4     9     1    1
     5    20    16    1
     6    24    17    1
     7     1     6   ar
     8     1     2   ar
     9     8     2    1
    10     6     5   ar
    11    16    17   ar
    12    16    15   ar
    13     2     3   ar
    14    17    18   ar
    15     5    15    1
    16     5     4   ar
    17    15    14   ar
    18     3     4   ar
    19     3     7    1
    20     4    11    1
    21    18    21    1
    22    18    19   ar
    23    14    19   ar
    24    14    22    1
    25    23    22    1
    26    11    12    3
    27    12    13    1
