@<TRIPOS>MOLECULE
mol_data/opt/cam/geoms/mol2/6ge6ge-6ge.out
 38 40 0 0 0
SMALL
GASTEIGER

@<TRIPOS>ATOM
      1 C          -4.1720   -2.0954    0.2957 C.ar    1  LIG1        0.0947
      2 C          -2.8184   -2.0112   -0.0352 C.ar    1  LIG1       -0.0288
      3 C          -2.3267   -0.7776   -0.4055 C.ar    1  LIG1       -0.0418
      4 C          -3.1616    0.3474   -0.4217 C.ar    1  LIG1        0.0508
      5 C          -4.5041    0.1663   -0.0374 C.ar    1  LIG1        0.0901
      6 N          -4.9746   -1.0391    0.2930 N.ar    1  LIG1       -0.2394
      7 H          -1.2881   -0.6645   -0.6954 H       1  LIG1        0.0631
      8 H          -2.1765   -2.8835   -0.0150 H       1  LIG1        0.0644
      9 S          -4.9788   -3.6026    0.7616 S.3     1  LIG1       -0.1234
     10 H          -3.9264   -4.4116    0.5566 H       1  LIG1        0.1086
     11 C          -2.6281    1.6004   -0.8569 C.1     1  LIG1       -0.0675
     12 C          -2.1312    2.6277   -1.2396 C.1     1  LIG1       -0.1138
     13 H          -1.7081    3.5457   -1.5787 H       1  LIG1        0.1232
     14 C          -6.7649    1.3003   -0.4913 C.ar    1  LIG1        0.1039
     15 C          -5.4576    1.3057    0.0382 C.ar    1  LIG1        0.0344
     16 C          -5.0671    2.4668    0.6907 C.ar    1  LIG1       -0.0325
     17 C          -5.8941    3.5888    0.7645 C.ar    1  LIG1        0.0514
     18 C          -7.1425    3.5119    0.1190 C.ar    1  LIG1        0.0902
     19 N          -7.5393    2.3799   -0.4590 N.ar    1  LIG1       -0.2387
     20 H          -4.0947    2.5126    1.1656 H       1  LIG1        0.0638
     21 S          -7.5508   -0.0598   -1.3079 S.3     1  LIG1       -0.1227
     22 H          -6.7598   -1.0117   -0.7813 H       1  LIG1        0.1086
     23 C          -5.4516    4.7281    1.5066 C.1     1  LIG1       -0.0675
     24 C          -5.0387    5.6580    2.1497 C.1     1  LIG1       -0.1138
     25 H          -4.6935    6.4902    2.7193 H       1  LIG1        0.1232
     26 C          -9.4523    4.6211    0.3161 C.ar    1  LIG1        0.1032
     27 C          -8.0663    4.6753    0.0442 C.ar    1  LIG1        0.0343
     28 C          -7.5438    5.9118   -0.3194 C.ar    1  LIG1       -0.0331
     29 C          -8.3510    7.0471   -0.3680 C.ar    1  LIG1        0.0434
     30 C          -9.6926    6.8810   -0.0178 C.ar    1  LIG1        0.0442
     31 N         -10.2201    5.7109    0.3036 N.ar    1  LIG1       -0.2471
     32 H          -6.4928    5.9999   -0.5655 H       1  LIG1        0.0638
     33 H         -10.3631    7.7363   -0.0103 H       1  LIG1        0.0842
     34 S         -10.3654    3.1725    0.7660 S.3     1  LIG1       -0.1228
     35 H          -9.4729    2.2845    0.2929 H       1  LIG1        0.1086
     36 C          -7.8351    8.3244   -0.7462 C.1     1  LIG1       -0.0681
     37 C          -7.4050    9.4028   -1.0643 C.1     1  LIG1       -0.1139
     38 H          -7.0278   10.3583   -1.3477 H       1  LIG1        0.1232
@<TRIPOS>BOND
     1    13    12    1
     2    38    37    1
     3    21    22    1
     4    21    14    1
     5    12    11    3
     6    37    36    3
     7    11     4    1
     8    36    29    1
     9     7     3    1
    10    32    28    1
    11    14    19   ar
    12    14    15   ar
    13    19    18   ar
    14     4     3   ar
    15     4     5   ar
    16     3     2   ar
    17    29    28   ar
    18    29    30   ar
    19    28    27   ar
    20     5    15    1
    21     5     6   ar
    22     2     8    1
    23     2     1   ar
    24    30    33    1
    25    30    31   ar
    26    15    16   ar
    27    27    18    1
    28    27    26   ar
    29    18    17   ar
    30    35    34    1
    31     6     1   ar
    32     1     9    1
    33    31    26   ar
    34    26    34    1
    35    10     9    1
    36    16    17   ar
    37    16    20    1
    38    17    23    1
    39    23    24    3
    40    24    25    1
