@<TRIPOS>MOLECULE
mol_data/opt/cam/geoms/mol2/6ge6ge-6ge-6ge.out
 50 53 0 0 0
SMALL
GASTEIGER

@<TRIPOS>ATOM
      1 C          -4.0359   -2.1524   -0.2353 C.ar    1  LIG1        0.0947
      2 C          -2.6527   -1.9994   -0.3476 C.ar    1  LIG1       -0.0288
      3 C          -2.1555   -0.7158   -0.4234 C.ar    1  LIG1       -0.0418
      4 C          -3.0170    0.3876   -0.3645 C.ar    1  LIG1        0.0508
      5 C          -4.3932    0.1298   -0.2160 C.ar    1  LIG1        0.0901
      6 N          -4.8651   -1.1187   -0.1713 N.ar    1  LIG1       -0.2394
      7 H          -1.0908   -0.5448   -0.5360 H       1  LIG1        0.0631
      8 H          -1.9910   -2.8561   -0.3865 H       1  LIG1        0.0644
      9 S          -4.8488   -3.7245   -0.1587 S.3     1  LIG1       -0.1234
     10 H          -3.7517   -4.4761   -0.3464 H       1  LIG1        0.1086
     11 C          -2.4699    1.7022   -0.4924 C.1     1  LIG1       -0.0675
     12 C          -1.9585    2.7850   -0.6134 C.1     1  LIG1       -0.1138
     13 H          -1.5215    3.7515   -0.7222 H       1  LIG1        0.1232
     14 C          -6.6071    1.3036   -0.7854 C.ar    1  LIG1        0.1039
     15 C          -5.3862    1.2297   -0.0826 C.ar    1  LIG1        0.0344
     16 C          -5.1304    2.2620    0.8090 C.ar    1  LIG1       -0.0325
     17 C          -5.9965    3.3471    0.9559 C.ar    1  LIG1        0.0514
     18 C          -7.1376    3.3738    0.1327 C.ar    1  LIG1        0.0902
     19 N          -7.4130    2.3554   -0.6799 N.ar    1  LIG1       -0.2387
     20 H          -4.2364    2.2324    1.4195 H       1  LIG1        0.0638
     21 S          -7.2291    0.0975   -1.9213 S.3     1  LIG1       -0.1227
     22 H          -6.4894   -0.9240   -1.4533 H       1  LIG1        0.1086
     23 C          -5.7024    4.3389    1.9429 C.1     1  LIG1       -0.0675
     24 C          -5.4190    5.1425    2.7930 C.1     1  LIG1       -0.1138
     25 H          -5.1886    5.8614    3.5458 H       1  LIG1        0.1232
     26 C          -9.4905    4.4101    0.1458 C.ar    1  LIG1        0.1039
     27 C          -8.0827    4.5216    0.1227 C.ar    1  LIG1        0.0344
     28 C          -7.5706    5.8112    0.1000 C.ar    1  LIG1       -0.0325
     29 C          -8.3945    6.9375    0.1269 C.ar    1  LIG1        0.0514
     30 C          -9.7825    6.7170    0.1887 C.ar    1  LIG1        0.0902
     31 N         -10.2779    5.4811    0.2013 N.ar    1  LIG1       -0.2387
     32 H          -6.4986    5.9603    0.0716 H       1  LIG1        0.0638
     33 S         -10.4157    2.9031    0.1676 S.3     1  LIG1       -0.1227
     34 H          -9.4152    2.1186   -0.2733 H       1  LIG1        0.1086
     35 C          -7.7932    8.2349    0.1378 C.1     1  LIG1       -0.0675
     36 C          -7.2392    9.3034    0.1524 C.1     1  LIG1       -0.1138
     37 H          -6.7692   10.2600    0.1668 H       1  LIG1        0.1232
     38 C         -11.8334    7.9520    1.1177 C.ar    1  LIG1        0.1032
     39 C         -10.7588    7.8403    0.2080 C.ar    1  LIG1        0.0343
     40 C         -10.6184    8.8585   -0.7282 C.ar    1  LIG1       -0.0331
     41 C         -11.4794    9.9552   -0.7302 C.ar    1  LIG1        0.0434
     42 C         -12.4662    9.9839    0.2569 C.ar    1  LIG1        0.0442
     43 N         -12.6383    9.0137    1.1407 N.ar    1  LIG1       -0.2471
     44 H          -9.8273    8.8059   -1.4661 H       1  LIG1        0.0638
     45 H         -13.1483   10.8276    0.3206 H       1  LIG1        0.0842
     46 S         -12.2417    6.7779    2.3800 S.3     1  LIG1       -0.1228
     47 H         -11.5995    5.7369    1.8230 H       1  LIG1        0.1086
     48 C         -11.3564   11.0087   -1.6872 C.1     1  LIG1       -0.0681
     49 C         -11.2560   11.8988   -2.4915 C.1     1  LIG1       -0.1139
     50 H         -11.1709   12.6860   -3.2046 H       1  LIG1        0.1232
@<TRIPOS>BOND
     1    50    49    1
     2    49    48    3
     3    21    22    1
     4    21    14    1
     5    48    41    1
     6    44    40    1
     7    14    19   ar
     8    14    15   ar
     9    41    40   ar
    10    41    42   ar
    11    40    39   ar
    12    13    12    1
    13    19    18   ar
    14    12    11    3
    15     7     3    1
    16    11     4    1
    17     3     4   ar
    18     3     2   ar
    19     8     2    1
    20     4     5   ar
    21     2     1   ar
    22    10     9    1
    23    34    33    1
    24     1     6   ar
    25     1     9    1
    26     5     6   ar
    27     5    15    1
    28    15    16   ar
    29    32    28    1
    30    28    27   ar
    31    28    29   ar
    32    27    18    1
    33    27    26   ar
    34    29    35    1
    35    29    30   ar
    36    18    17   ar
    37    35    36    3
    38    26    33    1
    39    26    31   ar
    40    36    37    1
    41    30    31   ar
    42    30    39    1
    43    39    38   ar
    44    42    45    1
    45    42    43   ar
    46    16    17   ar
    47    16    20    1
    48    17    23    1
    49    38    43   ar
    50    38    46    1
    51    47    46    1
    52    23    24    3
    53    24    25    1
