@<TRIPOS>MOLECULE
mol_data/opt/cam/geoms/mol2/6ge6ge-.out
 26 27 0 0 0
SMALL
GASTEIGER

@<TRIPOS>ATOM
      1 C          -4.4100   -1.9730    0.6323 C.ar    1  LIG1        0.0947
      2 C          -3.0395   -2.0132    0.3702 C.ar    1  LIG1       -0.0288
      3 C          -2.4509   -0.8692   -0.1259 C.ar    1  LIG1       -0.0418
      4 C          -3.2093    0.2903   -0.3323 C.ar    1  LIG1        0.0508
      5 C          -4.5781    0.2399   -0.0049 C.ar    1  LIG1        0.0901
      6 N          -5.1420   -0.8820    0.4502 N.ar    1  LIG1       -0.2394
      7 H          -1.3942   -0.8558   -0.3686 H       1  LIG1        0.0631
      8 H          -2.4580   -2.9117    0.5372 H       1  LIG1        0.0644
      9 S          -5.3347   -3.3579    1.2402 S.3     1  LIG1       -0.1234
     10 H          -4.3250   -4.2432    1.2121 H       1  LIG1        0.1086
     11 C          -2.5761    1.4443   -0.8905 C.1     1  LIG1       -0.0675
     12 C          -1.9980    2.3849   -1.3697 C.1     1  LIG1       -0.1138
     13 H          -1.5051    3.2285   -1.7961 H       1  LIG1        0.1232
     14 C          -6.7116    1.4438   -0.7748 C.ar    1  LIG1        0.1032
     15 C          -5.4567    1.4351   -0.1278 C.ar    1  LIG1        0.0343
     16 C          -5.0264    2.6341    0.4292 C.ar    1  LIG1       -0.0331
     17 C          -5.7907    3.7942    0.3130 C.ar    1  LIG1        0.0434
     18 C          -6.9877    3.6916   -0.3987 C.ar    1  LIG1        0.0442
     19 N          -7.4311    2.5564   -0.9153 N.ar    1  LIG1       -0.2471
     20 H          -4.0818    2.6731    0.9580 H       1  LIG1        0.0638
     21 H          -7.6119    4.5693   -0.5435 H       1  LIG1        0.0842
     22 S          -7.4891    0.0486   -1.5422 S.3     1  LIG1       -0.1228
     23 H          -6.7910   -0.8922   -0.8845 H       1  LIG1        0.1086
     24 C          -5.3703    5.0347    0.8831 C.1     1  LIG1       -0.0681
     25 C          -5.0195    6.0819    1.3618 C.1     1  LIG1       -0.1139
     26 H          -4.7122    7.0096    1.7869 H       1  LIG1        0.1232
@<TRIPOS>BOND
     1    13    12    1
     2    22    23    1
     3    22    14    1
     4    12    11    3
     5    19    14   ar
     6    19    18   ar
     7    11     4    1
     8    14    15   ar
     9    21    18    1
    10    18    17   ar
    11     7     3    1
    12     4     3   ar
    13     4     5   ar
    14    15     5    1
    15    15    16   ar
    16     3     2   ar
    17     5     6   ar
    18    17    16   ar
    19    17    24    1
    20     2     8    1
    21     2     1   ar
    22    16    20    1
    23     6     1   ar
    24     1     9    1
    25    24    25    3
    26    10     9    1
    27    25    26    1
