@<TRIPOS>MOLECULE
mol_data/opt/cam/geoms/mol2/6ge6ge-6ge-.out
 38 40 0 0 0
SMALL
GASTEIGER

@<TRIPOS>ATOM
      1 C          -4.1675   -2.0937    0.2992 C.ar    1  LIG1        0.0947
      2 C          -2.8091   -2.0054   -0.0106 C.ar    1  LIG1       -0.0288
      3 C          -2.3142   -0.7689   -0.3669 C.ar    1  LIG1       -0.0418
      4 C          -3.1508    0.3547   -0.3899 C.ar    1  LIG1        0.0508
      5 C          -4.4987    0.1692   -0.0270 C.ar    1  LIG1        0.0901
      6 N          -4.9719   -1.0389    0.2898 N.ar    1  LIG1       -0.2394
      7 H          -1.2715   -0.6524   -0.6404 H       1  LIG1        0.0631
      8 H          -2.1660   -2.8766    0.0147 H       1  LIG1        0.0644
      9 S          -4.9784   -3.6048    0.7448 S.3     1  LIG1       -0.1234
     10 H          -3.9216   -4.4108    0.5517 H       1  LIG1        0.1086
     11 C          -2.6131    1.6109   -0.8104 C.1     1  LIG1       -0.0675
     12 C          -2.1123    2.6411   -1.1800 C.1     1  LIG1       -0.1138
     13 H          -1.6859    3.5617   -1.5077 H       1  LIG1        0.1232
     14 C          -6.7545    1.3014   -0.5094 C.ar    1  LIG1        0.1039
     15 C          -5.4554    1.3064    0.0400 C.ar    1  LIG1        0.0344
     16 C          -5.0770    2.4647    0.7046 C.ar    1  LIG1       -0.0325
     17 C          -5.9072    3.5848    0.7717 C.ar    1  LIG1        0.0514
     18 C          -7.1455    3.5091    0.1069 C.ar    1  LIG1        0.0902
     19 N          -7.5313    2.3794   -0.4832 N.ar    1  LIG1       -0.2387
     20 H          -4.1121    2.5098    1.1945 H       1  LIG1        0.0638
     21 S          -7.5252   -0.0557   -1.3450 S.3     1  LIG1       -0.1227
     22 H          -6.7406   -1.0089   -0.8114 H       1  LIG1        0.1086
     23 C          -5.4782    4.7210    1.5264 C.1     1  LIG1       -0.0675
     24 C          -5.0771    5.6481    2.1809 C.1     1  LIG1       -0.1138
     25 H          -4.7427    6.4780    2.7603 H       1  LIG1        0.1232
     26 C          -9.4602    4.6129    0.2747 C.ar    1  LIG1        0.1032
     27 C          -8.0704    4.6711    0.0242 C.ar    1  LIG1        0.0343
     28 C          -7.5448    5.9105   -0.3249 C.ar    1  LIG1       -0.0331
     29 C          -8.3534    7.0445   -0.3798 C.ar    1  LIG1        0.0434
     30 C          -9.6998    6.8740   -0.0511 C.ar    1  LIG1        0.0442
     31 N         -10.2299    5.7012    0.2562 N.ar    1  LIG1       -0.2471
     32 H          -6.4903    6.0019   -0.5545 H       1  LIG1        0.0638
     33 H         -10.3720    7.7280   -0.0493 H       1  LIG1        0.0842
     34 S         -10.3772    3.1602    0.7028 S.3     1  LIG1       -0.1228
     35 H          -9.4759    2.2764    0.2387 H       1  LIG1        0.1086
     36 C          -7.8342    8.3248   -0.7434 C.1     1  LIG1       -0.0681
     37 C          -7.4014    9.4057   -1.0492 C.1     1  LIG1       -0.1139
     38 H          -7.0208   10.3629   -1.3220 H       1  LIG1        0.1232
@<TRIPOS>BOND
     1    13    12    1
     2    21    22    1
     3    21    14    1
     4    38    37    1
     5    12    11    3
     6    37    36    3
     7    11     4    1
     8    36    29    1
     9     7     3    1
    10    32    28    1
    11    14    19   ar
    12    14    15   ar
    13    19    18   ar
    14     4     3   ar
    15     4     5   ar
    16    29    28   ar
    17    29    30   ar
    18     3     2   ar
    19    28    27   ar
    20    30    33    1
    21    30    31   ar
    22     5    15    1
    23     5     6   ar
    24     2     8    1
    25     2     1   ar
    26    27    18    1
    27    27    26   ar
    28    15    16   ar
    29    18    17   ar
    30    35    34    1
    31    31    26   ar
    32    26    34    1
    33     6     1   ar
    34     1     9    1
    35    10     9    1
    36    16    17   ar
    37    16    20    1
    38    17    23    1
    39    23    24    3
    40    24    25    1
