@<TRIPOS>MOLECULE
mol_data/opt/cam/geoms/mol2/6ge6ge6ge.out
 38 40 0 0 0
SMALL
GASTEIGER

@<TRIPOS>ATOM
      1 C          -4.1190   -1.8368   -1.2607 C.ar    1  LIG1        0.0947
      2 C          -2.9018   -2.0190   -0.6017 C.ar    1  LIG1       -0.0288
      3 C          -2.5184   -1.0579    0.3094 C.ar    1  LIG1       -0.0418
      4 C          -3.3195    0.0688    0.5374 C.ar    1  LIG1        0.0508
      5 C          -4.5107    0.1796   -0.2053 C.ar    1  LIG1        0.0901
      6 N          -4.8858   -0.7724   -1.0636 N.ar    1  LIG1       -0.2394
      7 H          -1.5946   -1.1662    0.8666 H       1  LIG1        0.0631
      8 H          -2.2840   -2.8895   -0.7861 H       1  LIG1        0.0644
      9 S          -4.7843   -2.9878   -2.4324 S.3     1  LIG1       -0.1234
     10 H          -3.8262   -3.9190   -2.2954 H       1  LIG1        0.1086
     11 C          -2.9160    1.0195    1.5259 C.1     1  LIG1       -0.0675
     12 C          -2.5386    1.7854    2.3742 C.1     1  LIG1       -0.1138
     13 H          -2.2235    2.4738    3.1250 H       1  LIG1        0.1232
     14 C          -6.8007    1.3059    0.0901 C.ar    1  LIG1        0.1039
     15 C          -5.4024    1.3647   -0.0872 C.ar    1  LIG1        0.0344
     16 C          -4.8438    2.6336   -0.1411 C.ar    1  LIG1       -0.0325
     17 C          -5.6156    3.7886   -0.0038 C.ar    1  LIG1        0.0514
     18 C          -6.9966    3.6187    0.2032 C.ar    1  LIG1        0.0902
     19 N          -7.5364    2.4020    0.2485 N.ar    1  LIG1       -0.2387
     20 H          -3.7756    2.7425   -0.2821 H       1  LIG1        0.0638
     21 S          -7.7737   -0.1690    0.1956 S.3     1  LIG1       -0.1227
     22 H          -6.8642   -0.9842   -0.3645 H       1  LIG1        0.1086
     23 C          -4.9672    5.0627   -0.0335 C.1     1  LIG1       -0.0675
     24 C          -4.3744    6.1099   -0.0586 C.1     1  LIG1       -0.1138
     25 H          -3.8681    7.0478   -0.0772 H       1  LIG1        0.1232
     26 C          -8.8788    4.9145    1.3738 C.ar    1  LIG1        0.1032
     27 C          -7.9198    4.7773    0.3464 C.ar    1  LIG1        0.0343
     28 C          -7.8459    5.8046   -0.5875 C.ar    1  LIG1       -0.0331
     29 C          -8.6586    6.9323   -0.4790 C.ar    1  LIG1        0.0434
     30 C          -9.5264    6.9813    0.6137 C.ar    1  LIG1        0.0442
     31 N          -9.6347    6.0042    1.5002 N.ar    1  LIG1       -0.2471
     32 H          -7.1449    5.7346   -1.4103 H       1  LIG1        0.0638
     33 H         -10.1642    7.8483    0.7639 H       1  LIG1        0.0842
     34 S          -9.1846    3.7375    2.6625 S.3     1  LIG1       -0.1228
     35 H          -8.6508    2.6814    2.0260 H       1  LIG1        0.1086
     36 C          -8.6033    7.9962   -1.4308 C.1     1  LIG1       -0.0681
     37 C          -8.5594    8.8949   -2.2304 C.1     1  LIG1       -0.1139
     38 H          -8.5244    9.6902   -2.9388 H       1  LIG1        0.1232
@<TRIPOS>BOND
     1    38    37    1
     2     9    10    1
     3     9     1    1
     4    37    36    3
     5    36    29    1
     6    32    28    1
     7     1     6   ar
     8     1     2   ar
     9     6     5   ar
    10     8     2    1
    11     2     3   ar
    12    28    29   ar
    13    28    27   ar
    14    29    30   ar
    15    22    21    1
    16    20    16    1
    17     5    15    1
    18     5     4   ar
    19    16    15   ar
    20    16    17   ar
    21    15    14   ar
    22    25    24    1
    23    24    23    3
    24    23    17    1
    25    17    18   ar
    26    14    21    1
    27    14    19   ar
    28    18    19   ar
    29    18    27    1
    30     3     4   ar
    31     3     7    1
    32    27    26   ar
    33     4    11    1
    34    30    33    1
    35    30    31   ar
    36    26    31   ar
    37    26    34    1
    38    11    12    3
    39    35    34    1
    40    12    13    1
