@<TRIPOS>MOLECULE
mol_data/opt/cam/geoms/mol2/6ge6ge-6ge-6ge-.out
 50 53 0 0 0
SMALL
GASTEIGER

@<TRIPOS>ATOM
      1 C          -4.0352   -2.1519   -0.2361 C.ar    1  LIG1        0.0947
      2 C          -2.6503   -1.9988   -0.3247 C.ar    1  LIG1       -0.0288
      3 C          -2.1514   -0.7149   -0.3814 C.ar    1  LIG1       -0.0418
      4 C          -3.0134    0.3885   -0.3271 C.ar    1  LIG1        0.0508
      5 C          -4.3918    0.1302   -0.2032 C.ar    1  LIG1        0.0901
      6 N          -4.8649   -1.1184   -0.1767 N.ar    1  LIG1       -0.2394
      7 H          -1.0849   -0.5435   -0.4753 H       1  LIG1        0.0631
      8 H          -1.9884   -2.8555   -0.3601 H       1  LIG1        0.0644
      9 S          -4.8499   -3.7242   -0.1861 S.3     1  LIG1       -0.1234
     10 H          -3.7502   -4.4747   -0.3624 H       1  LIG1        0.1086
     11 C          -2.4637    1.7039   -0.4349 C.1     1  LIG1       -0.0675
     12 C          -1.9500    2.7874   -0.5383 C.1     1  LIG1       -0.1138
     13 H          -1.5108    3.7545   -0.6317 H       1  LIG1        0.1232
     14 C          -6.5958    1.3101   -0.7983 C.ar    1  LIG1        0.1039
     15 C          -5.3864    1.2294   -0.0765 C.ar    1  LIG1        0.0344
     16 C          -5.1447    2.2540    0.8279 C.ar    1  LIG1       -0.0325
     17 C          -6.0126    3.3383    0.9701 C.ar    1  LIG1        0.0514
     18 C          -7.1402    3.3726    0.1287 C.ar    1  LIG1        0.0902
     19 N          -7.4028    2.3613   -0.6969 N.ar    1  LIG1       -0.2387
     20 H          -4.2607    2.2187    1.4526 H       1  LIG1        0.0638
     21 S          -7.1997    0.1139   -1.9543 S.3     1  LIG1       -0.1227
     22 H          -6.4682   -0.9119   -1.4832 H       1  LIG1        0.1086
     23 C          -5.7341    4.3215    1.9701 C.1     1  LIG1       -0.0675
     24 C          -5.4642    5.1176    2.8315 C.1     1  LIG1       -0.1138
     25 H          -5.2458    5.8300    3.5941 H       1  LIG1        0.1232
     26 C          -9.4925    4.4101    0.1125 C.ar    1  LIG1        0.1039
     27 C          -8.0846    4.5210    0.1132 C.ar    1  LIG1        0.0344
     28 C          -7.5716    5.8105    0.1097 C.ar    1  LIG1       -0.0325
     29 C          -8.3953    6.9369    0.1329 C.ar    1  LIG1        0.0514
     30 C          -9.7842    6.7166    0.1704 C.ar    1  LIG1        0.0902
     31 N         -10.2803    5.4810    0.1643 N.ar    1  LIG1       -0.2387
     32 H          -6.4992    5.9592    0.1000 H       1  LIG1        0.0638
     33 S         -10.4186    2.9034    0.1065 S.3     1  LIG1       -0.1227
     34 H          -9.4115    2.1222   -0.3248 H       1  LIG1        0.1086
     35 C          -7.7937    8.2338    0.1646 C.1     1  LIG1       -0.0675
     36 C          -7.2396    9.3019    0.1973 C.1     1  LIG1       -0.1138
     37 H          -6.7696   10.2581    0.2273 H       1  LIG1        0.1232
     38 C         -11.8495    7.9448    1.0765 C.ar    1  LIG1        0.1032
     39 C         -10.7603    7.8403    0.1834 C.ar    1  LIG1        0.0343
     40 C         -10.6043    8.8663   -0.7417 C.ar    1  LIG1       -0.0331
     41 C         -11.4647    9.9635   -0.7484 C.ar    1  LIG1        0.0434
     42 C         -12.4674    9.9844    0.2229 C.ar    1  LIG1        0.0442
     43 N         -12.6542    9.0067    1.0955 N.ar    1  LIG1       -0.2471
     44 H          -9.8014    8.8196   -1.4671 H       1  LIG1        0.0638
     45 H         -13.1501   10.8279    0.2827 H       1  LIG1        0.0842
     46 S         -12.2786    6.7603    2.3220 S.3     1  LIG1       -0.1228
     47 H         -11.6279    5.7237    1.7666 H       1  LIG1        0.1086
     48 C         -11.3258   11.0251   -1.6942 C.1     1  LIG1       -0.0681
     49 C         -11.2120   11.9219   -2.4891 C.1     1  LIG1       -0.1139
     50 H         -11.1151   12.7151   -3.1941 H       1  LIG1        0.1232
@<TRIPOS>BOND
     1    50    49    1
     2    49    48    3
     3    21    22    1
     4    21    14    1
     5    48    41    1
     6    44    40    1
     7    14    19   ar
     8    14    15   ar
     9    41    40   ar
    10    41    42   ar
    11    40    39   ar
    12    19    18   ar
    13    13    12    1
    14    12    11    3
    15     7     3    1
    16    11     4    1
    17     3     4   ar
    18     3     2   ar
    19    10     9    1
    20     8     2    1
    21     4     5   ar
    22    34    33    1
    23     2     1   ar
    24     1     9    1
    25     1     6   ar
    26     5     6   ar
    27     5    15    1
    28    15    16   ar
    29    32    28    1
    30    33    26    1
    31    28    27   ar
    32    28    29   ar
    33    26    27   ar
    34    26    31   ar
    35    27    18    1
    36    18    17   ar
    37    29    35    1
    38    29    30   ar
    39    31    30   ar
    40    35    36    3
    41    30    39    1
    42    39    38   ar
    43    36    37    1
    44    42    45    1
    45    42    43   ar
    46    16    17   ar
    47    16    20    1
    48    17    23    1
    49    38    43   ar
    50    38    46    1
    51    47    46    1
    52    23    24    3
    53    24    25    1
