@<TRIPOS>MOLECULE
mol_data/opt/cam/geoms/mol2/6ge6ge6ge-6ge.out
 50 53 0 0 0
SMALL
GASTEIGER

@<TRIPOS>ATOM
      1 C          -3.9317   -2.0780   -0.6025 C.ar    1  LIG1        0.0947
      2 C          -2.6041   -1.9743   -0.1830 C.ar    1  LIG1       -0.0288
      3 C          -2.1890   -0.7649    0.3322 C.ar    1  LIG1       -0.0418
      4 C          -3.0721    0.3207    0.4044 C.ar    1  LIG1        0.0508
      5 C          -4.3810    0.1260   -0.0762 C.ar    1  LIG1        0.0901
      6 N          -4.7788   -1.0584   -0.5478 N.ar    1  LIG1       -0.2394
      7 H          -1.1745   -0.6410    0.6943 H       1  LIG1        0.0631
      8 H          -1.9243   -2.8152   -0.2467 H       1  LIG1        0.0644
      9 S          -4.6432   -3.5622   -1.2579 S.3     1  LIG1       -0.1234
     10 H          -3.5696   -4.3462   -1.0669 H       1  LIG1        0.1086
     11 C          -2.6198    1.5451    0.9876 C.1     1  LIG1       -0.0675
     12 C          -2.1910    2.5489    1.4947 C.1     1  LIG1       -0.1138
     13 H          -1.8274    3.4447    1.9443 H       1  LIG1        0.1232
     14 C          -6.7135    1.1193    0.3412 C.ar    1  LIG1        0.1039
     15 C          -5.3786    1.2295   -0.1012 C.ar    1  LIG1        0.0344
     16 C          -5.0033    2.4641   -0.6120 C.ar    1  LIG1       -0.0325
     17 C          -5.8739    3.5553   -0.6288 C.ar    1  LIG1        0.0514
     18 C          -7.1533    3.3655   -0.0741 C.ar    1  LIG1        0.0902
     19 N          -7.5316    2.1665    0.3647 N.ar    1  LIG1       -0.2387
     20 H          -4.0077    2.5949   -1.0176 H       1  LIG1        0.0638
     21 S          -7.4839   -0.3451    0.9688 S.3     1  LIG1       -0.1227
     22 H          -6.6259   -1.2066    0.3930 H       1  LIG1        0.1086
     23 C          -5.4389    4.7780   -1.2290 C.1     1  LIG1       -0.0675
     24 C          -5.0290    5.7809   -1.7535 C.1     1  LIG1       -0.1138
     25 H          -4.6841    6.6756   -2.2194 H       1  LIG1        0.1232
     26 C          -9.5076    4.3834   -0.2570 C.ar    1  LIG1        0.1039
     27 C          -8.1331    4.4761    0.0528 C.ar    1  LIG1        0.0344
     28 C          -7.6962    5.7047    0.5299 C.ar    1  LIG1       -0.0325
     29 C          -8.5470    6.8060    0.6331 C.ar    1  LIG1        0.0514
     30 C          -9.8754    6.6351    0.1998 C.ar    1  LIG1        0.0902
     31 N         -10.3097    5.4426   -0.2017 N.ar    1  LIG1       -0.2387
     32 H          -6.6655    5.8216    0.8404 H       1  LIG1        0.0638
     33 S         -10.3594    2.9316   -0.7996 S.3     1  LIG1       -0.1227
     34 H          -9.4430    2.0590   -0.3384 H       1  LIG1        0.1086
     35 C          -8.0428    8.0209    1.1941 C.1     1  LIG1       -0.0675
     36 C          -7.5750    9.0174    1.6810 C.1     1  LIG1       -0.1138
     37 H          -7.1824    9.9084    2.1147 H       1  LIG1        0.1232
     38 C         -12.1749    7.6976    0.6383 C.ar    1  LIG1        0.1032
     39 C         -10.8456    7.7621    0.1615 C.ar    1  LIG1        0.0343
     40 C         -10.4302    8.9728   -0.3826 C.ar    1  LIG1       -0.0331
     41 C         -11.2794   10.0777   -0.4107 C.ar    1  LIG1        0.0434
     42 C         -12.5486    9.9102    0.1468 C.ar    1  LIG1        0.0442
     43 N         -12.9783    8.7617    0.6437 N.ar    1  LIG1       -0.2471
     44 H          -9.4303    9.0645   -0.7886 H       1  LIG1        0.0638
     45 H         -13.2438   10.7451    0.1782 H       1  LIG1        0.0842
     46 S         -12.9568    6.2735    1.3412 S.3     1  LIG1       -0.1228
     47 H         -12.1056    5.3703    0.8222 H       1  LIG1        0.1086
     48 C         -10.8737   11.3274   -0.9715 C.1     1  LIG1       -0.0681
     49 C         -10.5362   12.3825   -1.4427 C.1     1  LIG1       -0.1139
     50 H         -10.2413   13.3168   -1.8618 H       1  LIG1        0.1232
@<TRIPOS>BOND
     1    25    24    1
     2    50    49    1
     3    24    23    3
     4    49    48    3
     5     9    10    1
     6     9     1    1
     7    23    17    1
     8    20    16    1
     9    48    41    1
    10    33    34    1
    11    33    26    1
    12    44    40    1
    13    17    16   ar
    14    17    18   ar
    15    16    15   ar
    16     1     6   ar
    17     1     2   ar
    18     6     5   ar
    19    41    40   ar
    20    41    42   ar
    21    40    39   ar
    22    26    31   ar
    23    26    27   ar
    24     8     2    1
    25    31    30   ar
    26     2     3   ar
    27    15     5    1
    28    15    14   ar
    29     5     4   ar
    30    18    27    1
    31    18    19   ar
    32    27    28   ar
    33    42    45    1
    34    42    43   ar
    35    39    30    1
    36    39    38   ar
    37    30    29   ar
    38     3     4   ar
    39     3     7    1
    40    14    19   ar
    41    14    21    1
    42    22    21    1
    43     4    11    1
    44    28    29   ar
    45    28    32    1
    46    29    35    1
    47    38    43   ar
    48    38    46    1
    49    47    46    1
    50    11    12    3
    51    35    36    3
    52    12    13    1
    53    36    37    1
