@<TRIPOS>MOLECULE
mol_data/opt/cam/geoms/mol2/6ge6ge-6ge6ge-.out
 50 53 0 0 0
SMALL
GASTEIGER

@<TRIPOS>ATOM
      1 C          -3.9335   -2.0788    0.6040 C.ar    1  LIG1        0.0947
      2 C          -2.6025   -1.9728    0.1957 C.ar    1  LIG1       -0.0288
      3 C          -2.1838   -0.7611   -0.3113 C.ar    1  LIG1       -0.0418
      4 C          -3.0668    0.3243   -0.3862 C.ar    1  LIG1        0.0508
      5 C          -4.3795    0.1272    0.0830 C.ar    1  LIG1        0.0901
      6 N          -4.7806   -1.0593    0.5465 N.ar    1  LIG1       -0.2394
      7 H          -1.1666   -0.6354   -0.6646 H       1  LIG1        0.0631
      8 H          -1.9229   -2.8136    0.2616 H       1  LIG1        0.0644
      9 S          -4.6496   -3.5658    1.2477 S.3     1  LIG1       -0.1234
     10 H          -3.5741   -4.3486    1.0624 H       1  LIG1        0.1086
     11 C          -2.6104    1.5513   -0.9608 C.1     1  LIG1       -0.0675
     12 C          -2.1780    2.5573   -1.4605 C.1     1  LIG1       -0.1138
     13 H          -1.8112    3.4549   -1.9039 H       1  LIG1        0.1232
     14 C          -6.7090    1.1210   -0.3493 C.ar    1  LIG1        0.1039
     15 C          -5.3778    1.2301    0.1044 C.ar    1  LIG1        0.0344
     16 C          -5.0073    2.4628    0.6232 C.ar    1  LIG1       -0.0325
     17 C          -5.8785    3.5535    0.6373 C.ar    1  LIG1        0.0514
     18 C          -7.1533    3.3654    0.0715 C.ar    1  LIG1        0.0902
     19 N          -7.5274    2.1680   -0.3752 N.ar    1  LIG1       -0.2387
     20 H          -4.0150    2.5924    1.0374 H       1  LIG1        0.0638
     21 S          -7.4735   -0.3412   -0.9890 S.3     1  LIG1       -0.1227
     22 H          -6.6196   -1.2045   -0.4100 H       1  LIG1        0.1086
     23 C          -5.4491    4.7740    1.2460 C.1     1  LIG1       -0.0675
     24 C          -5.0440    5.7750    1.7778 C.1     1  LIG1       -0.1138
     25 H          -4.7034    6.6681    2.2499 H       1  LIG1        0.1232
     26 C          -9.5096    4.3812    0.2392 C.ar    1  LIG1        0.1039
     27 C          -8.1327    4.4760   -0.0589 C.ar    1  LIG1        0.0344
     28 C          -7.6925    5.7067   -0.5273 C.ar    1  LIG1       -0.0325
     29 C          -8.5431    6.8081   -0.6329 C.ar    1  LIG1        0.0514
     30 C          -9.8749    6.6347   -0.2112 C.ar    1  LIG1        0.0902
     31 N         -10.3118    5.4403    0.1817 N.ar    1  LIG1       -0.2387
     32 H          -6.6593    5.8255   -0.8288 H       1  LIG1        0.0638
     33 S         -10.3650    2.9267    0.7688 S.3     1  LIG1       -0.1227
     34 H          -9.4444    2.0565    0.3113 H       1  LIG1        0.1086
     35 C          -8.0349    8.0255   -1.1847 C.1     1  LIG1       -0.0675
     36 C          -7.5637    9.0243   -1.6636 C.1     1  LIG1       -0.1138
     37 H          -7.1677    9.9173   -2.0900 H       1  LIG1        0.1232
     38 C         -12.1713    7.6977   -0.6642 C.ar    1  LIG1        0.1032
     39 C         -10.8460    7.7609   -0.1762 C.ar    1  LIG1        0.0343
     40 C         -10.4358    8.9696    0.3763 C.ar    1  LIG1       -0.0331
     41 C         -11.2858   10.0739    0.4021 C.ar    1  LIG1        0.0434
     42 C         -12.5504    9.9080   -0.1665 C.ar    1  LIG1        0.0442
     43 N         -12.9752    8.7613   -0.6717 N.ar    1  LIG1       -0.2471
     44 H          -9.4394    9.0602    0.7909 H       1  LIG1        0.0638
     45 H         -13.2458   10.7427   -0.2001 H       1  LIG1        0.0842
     46 S         -12.9465    6.2761   -1.3794 S.3     1  LIG1       -0.1228
     47 H         -12.0988    5.3712   -0.8575 H       1  LIG1        0.1086
     48 C         -10.8855   11.3215    0.9714 C.1     1  LIG1       -0.0681
     49 C         -10.5526   12.3748    1.4497 C.1     1  LIG1       -0.1139
     50 H         -10.2618   13.3078    1.8747 H       1  LIG1        0.1232
@<TRIPOS>BOND
     1    37    36    1
     2    13    12    1
     3    36    35    3
     4    12    11    3
     5    46    47    1
     6    46    38    1
     7    35    29    1
     8    21    22    1
     9    21    14    1
    10    11     4    1
    11    32    28    1
    12    43    38   ar
    13    43    42   ar
    14     7     3    1
    15    38    39   ar
    16    29    28   ar
    17    29    30   ar
    18    28    27   ar
    19     4     3   ar
    20     4     5   ar
    21    19    14   ar
    22    19    18   ar
    23    14    15   ar
    24     3     2   ar
    25    30    39    1
    26    30    31   ar
    27    45    42    1
    28    39    40   ar
    29    42    41   ar
    30    27    18    1
    31    27    26   ar
    32    18    17   ar
    33     5    15    1
    34     5     6   ar
    35    15    16   ar
    36    31    26   ar
    37     2     8    1
    38     2     1   ar
    39    26    33    1
    40    34    33    1
    41    40    41   ar
    42    40    44    1
    43    41    48    1
    44     6     1   ar
    45     1     9    1
    46    16    17   ar
    47    16    20    1
    48    17    23    1
    49    48    49    3
    50    10     9    1
    51    23    24    3
    52    49    50    1
    53    24    25    1
