@<TRIPOS>MOLECULE
mol_data/opt/cam/geoms/mol2/6ge6ge6ge6ge-.out
 50 53 0 0 0
SMALL
GASTEIGER

@<TRIPOS>ATOM
      1 C          -3.9450   -2.0854    0.6003 C.ar    1  LIG1        0.0947
      2 C          -2.6117   -1.9795    0.1998 C.ar    1  LIG1       -0.0288
      3 C          -2.1888   -0.7664   -0.3003 C.ar    1  LIG1       -0.0418
      4 C          -3.0700    0.3204   -0.3760 C.ar    1  LIG1        0.0508
      5 C          -4.3855    0.1230    0.0853 C.ar    1  LIG1        0.0901
      6 N          -4.7905   -1.0647    0.5421 N.ar    1  LIG1       -0.2394
      7 H          -1.1694   -0.6405   -0.6476 H       1  LIG1        0.0631
      8 H          -1.9334   -2.8213    0.2661 H       1  LIG1        0.0644
      9 S          -4.6663   -3.5741    1.2344 S.3     1  LIG1       -0.1234
     10 H          -3.5908   -4.3575    1.0518 H       1  LIG1        0.1086
     11 C          -2.6090    1.5490   -0.9433 C.1     1  LIG1       -0.0675
     12 C          -2.1727    2.5564   -1.4367 C.1     1  LIG1       -0.1138
     13 H          -1.8026    3.4552   -1.8749 H       1  LIG1        0.1232
     14 C          -6.7114    1.1215   -0.3559 C.ar    1  LIG1        0.1039
     15 C          -5.3826    1.2271    0.1054 C.ar    1  LIG1        0.0344
     16 C          -5.0133    2.4574    0.6309 C.ar    1  LIG1       -0.0325
     17 C          -5.8833    3.5492    0.6444 C.ar    1  LIG1        0.0514
     18 C          -7.1551    3.3648    0.0710 C.ar    1  LIG1        0.0902
     19 N          -7.5283    2.1696   -0.3822 N.ar    1  LIG1       -0.2387
     20 H          -4.0232    2.5841    1.0510 H       1  LIG1        0.0638
     21 S          -7.4743   -0.3373   -1.0054 S.3     1  LIG1       -0.1227
     22 H          -6.6247   -1.2040   -0.4249 H       1  LIG1        0.1086
     23 C          -5.4555    4.7668    1.2600 C.1     1  LIG1       -0.0675
     24 C          -5.0520    5.7652    1.7978 C.1     1  LIG1       -0.1138
     25 H          -4.7128    6.6562    2.2748 H       1  LIG1        0.1232
     26 C          -9.5110    4.3832    0.2298 C.ar    1  LIG1        0.1039
     27 C          -8.1323    4.4772   -0.0606 C.ar    1  LIG1        0.0344
     28 C          -7.6881    5.7090   -0.5221 C.ar    1  LIG1       -0.0325
     29 C          -8.5365    6.8119   -0.6282 C.ar    1  LIG1        0.0514
     30 C          -9.8708    6.6388   -0.2143 C.ar    1  LIG1        0.0902
     31 N         -10.3114    5.4436    0.1719 N.ar    1  LIG1       -0.2387
     32 H          -6.6531    5.8275   -0.8176 H       1  LIG1        0.0638
     33 S         -10.3712    2.9280    0.7495 S.3     1  LIG1       -0.1227
     34 H          -9.4493    2.0582    0.2940 H       1  LIG1        0.1086
     35 C          -8.0237    8.0307   -1.1727 C.1     1  LIG1       -0.0675
     36 C          -7.5485    9.0306   -1.6453 C.1     1  LIG1       -0.1138
     37 H          -7.1490    9.9248   -2.0660 H       1  LIG1        0.1232
     38 C         -12.1632    7.7068   -0.6756 C.ar    1  LIG1        0.1032
     39 C         -10.8405    7.7663   -0.1803 C.ar    1  LIG1        0.0343
     40 C         -10.4315    8.9723    0.3789 C.ar    1  LIG1       -0.0331
     41 C         -11.2801   10.0777    0.4041 C.ar    1  LIG1        0.0434
     42 C         -12.5418    9.9158   -0.1719 C.ar    1  LIG1        0.0442
     43 N         -12.9656    8.7717   -0.6836 N.ar    1  LIG1       -0.2471
     44 H          -9.4372    9.0599    0.7991 H       1  LIG1        0.0638
     45 H         -13.2358   10.7516   -0.2061 H       1  LIG1        0.0842
     46 S         -12.9367    6.2890   -1.4003 S.3     1  LIG1       -0.1228
     47 H         -12.0933    5.3809   -0.8771 H       1  LIG1        0.1086
     48 C         -10.8811   11.3227    0.9801 C.1     1  LIG1       -0.0681
     49 C         -10.5491   12.3738    1.4641 C.1     1  LIG1       -0.1139
     50 H         -10.2591   13.3047    1.8939 H       1  LIG1        0.1232
@<TRIPOS>BOND
     1    37    36    1
     2    13    12    1
     3    36    35    3
     4    12    11    3
     5    46    47    1
     6    46    38    1
     7    35    29    1
     8    21    22    1
     9    21    14    1
    10    11     4    1
    11    32    28    1
    12    43    38   ar
    13    43    42   ar
    14    38    39   ar
    15     7     3    1
    16    29    28   ar
    17    29    30   ar
    18    28    27   ar
    19    19    14   ar
    20    19    18   ar
    21     4     3   ar
    22     4     5   ar
    23    14    15   ar
    24     3     2   ar
    25    30    39    1
    26    30    31   ar
    27    45    42    1
    28    39    40   ar
    29    42    41   ar
    30    27    18    1
    31    27    26   ar
    32    18    17   ar
    33     5    15    1
    34     5     6   ar
    35    15    16   ar
    36    31    26   ar
    37     2     8    1
    38     2     1   ar
    39    26    33    1
    40    34    33    1
    41    40    41   ar
    42    40    44    1
    43    41    48    1
    44     6     1   ar
    45     1     9    1
    46    16    17   ar
    47    16    20    1
    48    17    23    1
    49    48    49    3
    50    10     9    1
    51    23    24    3
    52    49    50    1
    53    24    25    1
