@<TRIPOS>MOLECULE
mol_data/opt/cam/geoms/mol2/6ge6ge6ge6ge.out
 50 53 0 0 0
SMALL
GASTEIGER

@<TRIPOS>ATOM
      1 C          -3.6562   -1.6157   -1.6776 C.ar    1  LIG1        0.0947
      2 C          -2.7085   -2.0028   -0.7280 C.ar    1  LIG1       -0.0288
      3 C          -2.6578   -1.2911    0.4516 C.ar    1  LIG1       -0.0418
      4 C          -3.5157   -0.2042    0.6664 C.ar    1  LIG1        0.0508
      5 C          -4.4101    0.1307   -0.3681 C.ar    1  LIG1        0.0901
      6 N          -4.4706   -0.5844   -1.4943 N.ar    1  LIG1       -0.2394
      7 H          -1.9576   -1.5689    1.2314 H       1  LIG1        0.0631
      8 H          -2.0442   -2.8405   -0.9018 H       1  LIG1        0.0644
      9 S          -3.8869   -2.4393   -3.2291 S.3     1  LIG1       -0.1234
     10 H          -2.9989   -3.4240   -3.0153 H       1  LIG1        0.1086
     11 C          -3.4700    0.4791    1.9214 C.1     1  LIG1       -0.0675
     12 C          -3.3999    1.0151    2.9968 C.1     1  LIG1       -0.1138
     13 H          -3.3548    1.4996    3.9455 H       1  LIG1        0.1232
     14 C          -6.6998    1.2787   -0.5655 C.ar    1  LIG1        0.1039
     15 C          -5.3203    1.3038   -0.2705 C.ar    1  LIG1        0.0344
     16 C          -4.8048    2.5209    0.1506 C.ar    1  LIG1       -0.0325
     17 C          -5.6064    3.6545    0.2979 C.ar    1  LIG1        0.0514
     18 C          -6.9753    3.5147    0.0068 C.ar    1  LIG1        0.0902
     19 N          -7.4725    2.3487   -0.4020 N.ar    1  LIG1       -0.2387
     20 H          -3.7512    2.6025    0.3872 H       1  LIG1        0.0638
     21 S          -7.6205   -0.1287   -1.1152 S.3     1  LIG1       -0.1227
     22 H          -6.5599   -0.8443   -1.5261 H       1  LIG1        0.1086
     23 C          -5.0132    4.8641    0.7769 C.1     1  LIG1       -0.0675
     24 C          -4.4706    5.8556    1.1905 C.1     1  LIG1       -0.1138
     25 H          -4.0091    6.7436    1.5581 H       1  LIG1        0.1232
     26 C          -9.1803    4.6004    0.7536 C.ar    1  LIG1        0.1039
     27 C          -7.9257    4.6546    0.1103 C.ar    1  LIG1        0.0344
     28 C          -7.5742    5.8762   -0.4458 C.ar    1  LIG1       -0.0325
     29 C          -8.4006    6.9974   -0.3516 C.ar    1  LIG1        0.0514
     30 C          -9.6135    6.8465    0.3443 C.ar    1  LIG1        0.0902
     31 N          -9.9579    5.6726    0.8710 N.ar    1  LIG1       -0.2387
     32 H          -6.6272    5.9774   -0.9609 H       1  LIG1        0.0638
     33 S          -9.8805    3.1778    1.5397 S.3     1  LIG1       -0.1227
     34 H          -9.1056    2.2751    0.9142 H       1  LIG1        0.1086
     35 C          -7.9570    8.2336   -0.9173 C.1     1  LIG1       -0.0675
     36 C          -7.5361    9.2512   -1.4031 C.1     1  LIG1       -0.1138
     37 H          -7.1812   10.1625   -1.8270 H       1  LIG1        0.1232
     38 C         -11.1756    8.3515    1.7181 C.ar    1  LIG1        0.1032
     39 C         -10.5792    7.9690    0.4967 C.ar    1  LIG1        0.0343
     40 C         -10.9287    8.7024   -0.6315 C.ar    1  LIG1       -0.0331
     41 C         -11.7964    9.7900   -0.5395 C.ar    1  LIG1        0.0434
     42 C         -12.2747   10.1092    0.7327 C.ar    1  LIG1        0.0442
     43 N         -11.9793    9.4095    1.8169 N.ar    1  LIG1       -0.2471
     44 H         -10.5197    8.4318   -1.5973 H       1  LIG1        0.0638
     45 H         -12.9326   10.9636    0.8684 H       1  LIG1        0.0842
     46 S         -10.9159    7.5618    3.2830 S.3     1  LIG1       -0.1228
     47 H         -10.4890    6.3889    2.7847 H       1  LIG1        0.1086
     48 C         -12.1733   10.5531   -1.6869 C.1     1  LIG1       -0.0681
     49 C         -12.4930   11.1989   -2.6511 C.1     1  LIG1       -0.1139
     50 H         -12.7796   11.7696   -3.5042 H       1  LIG1        0.1232
@<TRIPOS>BOND
     1    50    49    1
     2     9    10    1
     3     9     1    1
     4    49    48    3
     5    37    36    1
     6    48    41    1
     7     1     6   ar
     8     1     2   ar
     9    44    40    1
    10    22    21    1
    11     6     5   ar
    12    36    35    3
    13    21    14    1
    14    32    28    1
    15    35    29    1
    16     8     2    1
    17     2     3   ar
    18    40    41   ar
    19    40    39   ar
    20    14    19   ar
    21    14    15   ar
    22    41    42   ar
    23    28    29   ar
    24    28    27   ar
    25    19    18   ar
    26     5    15    1
    27     5     4   ar
    28    29    30   ar
    29    15    16   ar
    30    18    27    1
    31    18    17   ar
    32    27    26   ar
    33    16    17   ar
    34    16    20    1
    35    17    23    1
    36    30    39    1
    37    30    31   ar
    38     3     4   ar
    39     3     7    1
    40    39    38   ar
    41     4    11    1
    42    42    45    1
    43    42    43   ar
    44    26    31   ar
    45    26    33    1
    46    23    24    3
    47    34    33    1
    48    24    25    1
    49    38    43   ar
    50    38    46    1
    51    11    12    3
    52    47    46    1
    53    12    13    1
