@<TRIPOS>MOLECULE
mol_data/opt/cam/geoms/mol2/6ge6ge6ge-.out
 38 40 0 0 0
SMALL
GASTEIGER

@<TRIPOS>ATOM
      1 C          -4.1745   -2.0957   -0.3005 C.ar    1  LIG1        0.0947
      2 C          -2.8258   -2.0159    0.0510 C.ar    1  LIG1       -0.0288
      3 C          -2.3380   -0.7855    0.4372 C.ar    1  LIG1       -0.0418
      4 C          -3.1715    0.3406    0.4489 C.ar    1  LIG1        0.0508
      5 C          -4.5084    0.1641    0.0433 C.ar    1  LIG1        0.0901
      6 N          -4.9756   -1.0384   -0.3024 N.ar    1  LIG1       -0.2394
      7 H          -1.3037   -0.6760    0.7434 H       1  LIG1        0.0631
      8 H          -2.1848   -2.8889    0.0344 H       1  LIG1        0.0644
      9 S          -4.9762   -3.5985   -0.7889 S.3     1  LIG1       -0.1234
     10 H          -3.9281   -4.4104   -0.5740 H       1  LIG1        0.1086
     11 C          -2.6429    1.5897    0.9006 C.1     1  LIG1       -0.0675
     12 C          -2.1503    2.6136    1.2977 C.1     1  LIG1       -0.1138
     13 H          -1.7312    3.5287    1.6494 H       1  LIG1        0.1232
     14 C          -6.7742    1.2982    0.4714 C.ar    1  LIG1        0.1039
     15 C          -5.4591    1.3053   -0.0385 C.ar    1  LIG1        0.0344
     16 C          -5.0573    2.4703   -0.6772 C.ar    1  LIG1       -0.0325
     17 C          -5.8816    3.5940   -0.7555 C.ar    1  LIG1        0.0514
     18 C          -7.1397    3.5145   -0.1293 C.ar    1  LIG1        0.0902
     19 N          -7.5465    2.3791    0.4350 N.ar    1  LIG1       -0.2387
     20 H          -4.0780    2.5180   -1.1372 H       1  LIG1        0.0638
     21 S          -7.5740   -0.0663    1.2668 S.3     1  LIG1       -0.1227
     22 H          -6.7765   -1.0157    0.7456 H       1  LIG1        0.1086
     23 C          -5.4266    4.7378   -1.4830 C.1     1  LIG1       -0.0675
     24 C          -5.0030    5.6715   -2.1135 C.1     1  LIG1       -0.1138
     25 H          -4.6486    6.5073   -2.6721 H       1  LIG1        0.1232
     26 C          -9.4447    4.6284   -0.3531 C.ar    1  LIG1        0.1032
     27 C          -8.0629    4.6787   -0.0602 C.ar    1  LIG1        0.0343
     28 C          -7.5442    5.9119    0.3197 C.ar    1  LIG1       -0.0331
     29 C          -8.3504    7.0480    0.3642 C.ar    1  LIG1        0.0434
     30 C          -9.6869    6.8862   -0.0070 C.ar    1  LIG1        0.0442
     31 N         -10.2112    5.7192   -0.3444 N.ar    1  LIG1       -0.2471
     32 H          -6.4968    5.9967    0.5821 H       1  LIG1        0.0638
     33 H         -10.3561    7.7426   -0.0185 H       1  LIG1        0.0842
     34 S         -10.3530    3.1843   -0.8265 S.3     1  LIG1       -0.1228
     35 H          -9.4689    2.2918   -0.3465 H       1  LIG1        0.1086
     36 C          -7.8385    8.3219    0.7590 C.1     1  LIG1       -0.0681
     37 C          -7.4116    9.3974    1.0910 C.1     1  LIG1       -0.1139
     38 H          -7.0364   10.3499    1.3868 H       1  LIG1        0.1232
@<TRIPOS>BOND
     1    25    24    1
     2    24    23    3
     3    23    17    1
     4    20    16    1
     5    34    26    1
     6    34    35    1
     7     9    10    1
     8     9     1    1
     9    17    16   ar
    10    17    18   ar
    11    16    15   ar
    12    26    31   ar
    13    26    27   ar
    14    31    30   ar
    15     6     1   ar
    16     6     5   ar
    17     1     2   ar
    18    18    27    1
    19    18    19   ar
    20    27    28   ar
    21    15     5    1
    22    15    14   ar
    23    33    30    1
    24    30    29   ar
    25     8     2    1
    26     5     4   ar
    27     2     3   ar
    28    28    29   ar
    29    28    32    1
    30    29    36    1
    31    19    14   ar
    32     3     4   ar
    33     3     7    1
    34     4    11    1
    35    14    21    1
    36    22    21    1
    37    36    37    3
    38    11    12    3
    39    37    38    1
    40    12    13    1
