@<TRIPOS>MOLECULE
mol_data/opt/cam/geoms/mol2/6ge6ge-6ge6ge.out
 50 53 0 0 0
SMALL
GASTEIGER

@<TRIPOS>ATOM
      1 C          -3.9143   -2.0675    0.6150 C.ar    1  LIG1        0.0947
      2 C          -2.5918   -1.9652    0.1792 C.ar    1  LIG1       -0.0288
      3 C          -2.1848   -0.7596   -0.3510 C.ar    1  LIG1       -0.0418
      4 C          -3.0705    0.3240   -0.4219 C.ar    1  LIG1        0.0508
      5 C          -4.3733    0.1313    0.0756 C.ar    1  LIG1        0.0901
      6 N          -4.7636   -1.0497    0.5617 N.ar    1  LIG1       -0.2394
      7 H          -1.1749   -0.6372   -0.7260 H       1  LIG1        0.0631
      8 H          -1.9099   -2.8045    0.2420 H       1  LIG1        0.0644
      9 S          -4.6156   -3.5472    1.2913 S.3     1  LIG1       -0.1234
     10 H          -3.5430   -4.3311    1.0943 H       1  LIG1        0.1086
     11 C          -2.6270    1.5441   -1.0206 C.1     1  LIG1       -0.0675
     12 C          -2.2059    2.5443   -1.5412 C.1     1  LIG1       -0.1138
     13 H          -1.8492    3.4368   -2.0028 H       1  LIG1        0.1232
     14 C          -6.7122    1.1174   -0.3226 C.ar    1  LIG1        0.1039
     15 C          -5.3724    1.2334    0.1031 C.ar    1  LIG1        0.0344
     16 C          -4.9931    2.4729    0.5992 C.ar    1  LIG1       -0.0325
     17 C          -5.8653    3.5628    0.6171 C.ar    1  LIG1        0.0514
     18 C          -7.1508    3.3664    0.0790 C.ar    1  LIG1        0.0902
     19 N          -7.5322    2.1632   -0.3452 N.ar    1  LIG1       -0.2387
     20 H          -3.9931    2.6086    0.9920 H       1  LIG1        0.0638
     21 S          -7.4874   -0.3534   -0.9289 S.3     1  LIG1       -0.1227
     22 H          -6.6211   -1.2086   -0.3563 H       1  LIG1        0.1086
     23 C          -5.4254    4.7912    1.2019 C.1     1  LIG1       -0.0675
     24 C          -5.0111    5.7990    1.7132 C.1     1  LIG1       -0.1138
     25 H          -4.6621    6.6981    2.1676 H       1  LIG1        0.1232
     26 C          -9.5046    4.3820    0.2809 C.ar    1  LIG1        0.1039
     27 C          -8.1339    4.4744   -0.0457 C.ar    1  LIG1        0.0344
     28 C          -7.7047    5.6996   -0.5380 C.ar    1  LIG1       -0.0325
     29 C          -8.5584    6.7987   -0.6404 C.ar    1  LIG1        0.0514
     30 C          -9.8814    6.6293   -0.1902 C.ar    1  LIG1        0.0902
     31 N         -10.3090    5.4395    0.2262 N.ar    1  LIG1       -0.2387
     32 H          -6.6778    5.8155   -0.8614 H       1  LIG1        0.0638
     33 S         -10.3475    2.9334    0.8454 S.3     1  LIG1       -0.1227
     34 H          -9.4351    2.0584    0.3806 H       1  LIG1        0.1086
     35 C          -8.0628    8.0097   -1.2171 C.1     1  LIG1       -0.0675
     36 C          -7.6024    9.0029   -1.7177 C.1     1  LIG1       -0.1138
     37 H          -7.2164    9.8913   -2.1625 H       1  LIG1        0.1232
     38 C         -12.1876    7.6845   -0.6106 C.ar    1  LIG1        0.1032
     39 C         -10.8529    7.7550   -0.1498 C.ar    1  LIG1        0.0343
     40 C         -10.4333    8.9708    0.3795 C.ar    1  LIG1       -0.0331
     41 C         -11.2840   10.0745    0.4085 C.ar    1  LIG1        0.0434
     42 C         -12.5593    9.9005   -0.1329 C.ar    1  LIG1        0.0442
     43 N         -12.9928    8.7472   -0.6153 N.ar    1  LIG1       -0.2471
     44 H          -9.4290    9.0674    0.7731 H       1  LIG1        0.0638
     45 H         -13.2562   10.7340   -0.1630 H       1  LIG1        0.0842
     46 S         -12.9752    6.2534   -1.2927 S.3     1  LIG1       -0.1228
     47 H         -12.1163    5.3559   -0.7765 H       1  LIG1        0.1086
     48 C         -10.8739   11.3295    0.9542 C.1     1  LIG1       -0.0681
     49 C         -10.5327   12.3889    1.4128 C.1     1  LIG1       -0.1139
     50 H         -10.2340   13.3271    1.8204 H       1  LIG1        0.1232
@<TRIPOS>BOND
     1    37    36    1
     2    13    12    1
     3    36    35    3
     4    12    11    3
     5    46    47    1
     6    46    38    1
     7    35    29    1
     8    11     4    1
     9    21    22    1
    10    21    14    1
    11    32    28    1
    12     7     3    1
    13    29    28   ar
    14    29    30   ar
    15    43    38   ar
    16    43    42   ar
    17    38    39   ar
    18    28    27   ar
    19     4     3   ar
    20     4     5   ar
    21     3     2   ar
    22    19    14   ar
    23    19    18   ar
    24    14    15   ar
    25    30    39    1
    26    30    31   ar
    27    45    42    1
    28    39    40   ar
    29    42    41   ar
    30    27    18    1
    31    27    26   ar
    32     5    15    1
    33     5     6   ar
    34    18    17   ar
    35    15    16   ar
    36     2     8    1
    37     2     1   ar
    38    31    26   ar
    39    26    33    1
    40    40    41   ar
    41    40    44    1
    42    34    33    1
    43    41    48    1
    44     6     1   ar
    45    16    17   ar
    46    16    20    1
    47     1     9    1
    48    17    23    1
    49    48    49    3
    50    10     9    1
    51    23    24    3
    52    49    50    1
    53    24    25    1
