@<TRIPOS>MOLECULE
mol_data/opt/cam/geoms/mol2/6ge6ge6ge-6ge-.out
 50 53 0 0 0
SMALL
GASTEIGER

@<TRIPOS>ATOM
      1 C          -3.9175   -2.0698   -0.6088 C.ar    1  LIG1        0.0947
      2 C          -2.5964   -1.9690   -0.1683 C.ar    1  LIG1       -0.0288
      3 C          -2.1902   -0.7641    0.3642 C.ar    1  LIG1       -0.0418
      4 C          -3.0752    0.3201    0.4330 C.ar    1  LIG1        0.0508
      5 C          -4.3765    0.1290   -0.0691 C.ar    1  LIG1        0.0901
      6 N          -4.7662   -1.0514   -0.5575 N.ar    1  LIG1       -0.2394
      7 H          -1.1815   -0.6428    0.7427 H       1  LIG1        0.0631
      8 H          -1.9150   -2.8087   -0.2295 H       1  LIG1        0.0644
      9 S          -4.6177   -3.5483   -1.2885 S.3     1  LIG1       -0.1234
     10 H          -3.5465   -4.3333   -1.0886 H       1  LIG1        0.1086
     11 C          -2.6328    1.5394    1.0342 C.1     1  LIG1       -0.0675
     12 C          -2.2127    2.5389    1.5570 C.1     1  LIG1       -0.1138
     13 H          -1.8566    3.4307    2.0203 H       1  LIG1        0.1232
     14 C          -6.7160    1.1166    0.3221 C.ar    1  LIG1        0.1039
     15 C          -5.3746    1.2319   -0.0991 C.ar    1  LIG1        0.0344
     16 C          -4.9927    2.4714   -0.5928 C.ar    1  LIG1       -0.0325
     17 C          -5.8639    3.5622   -0.6127 C.ar    1  LIG1        0.0514
     18 C          -7.1514    3.3663   -0.0792 C.ar    1  LIG1        0.0902
     19 N          -7.5352    2.1630    0.3428 N.ar    1  LIG1       -0.2387
     20 H          -3.9912    2.6067   -0.9821 H       1  LIG1        0.0638
     21 S          -7.4944   -0.3540    0.9245 S.3     1  LIG1       -0.1227
     22 H          -6.6271   -1.2095    0.3538 H       1  LIG1        0.1086
     23 C          -5.4210    4.7907   -1.1950 C.1     1  LIG1       -0.0675
     24 C          -5.0041    5.7986   -1.7040 C.1     1  LIG1       -0.1138
     25 H          -4.6530    6.6978   -2.1564 H       1  LIG1        0.1232
     26 C          -9.5036    4.3841   -0.2882 C.ar    1  LIG1        0.1039
     27 C          -8.1340    4.4750    0.0432 C.ar    1  LIG1        0.0344
     28 C          -7.7054    5.6994    0.5381 C.ar    1  LIG1       -0.0325
     29 C          -8.5586    6.7992    0.6386 C.ar    1  LIG1        0.0514
     30 C          -9.8801    6.6313    0.1836 C.ar    1  LIG1        0.0902
     31 N         -10.3073    5.4422   -0.2354 N.ar    1  LIG1       -0.2387
     32 H          -6.6795    5.8142    0.8652 H       1  LIG1        0.0638
     33 S         -10.3458    2.9368   -0.8570 S.3     1  LIG1       -0.1227
     34 H          -9.4357    2.0606   -0.3900 H       1  LIG1        0.1086
     35 C          -8.0639    8.0092    1.2182 C.1     1  LIG1       -0.0675
     36 C          -7.6044    9.0015    1.7213 C.1     1  LIG1       -0.1138
     37 H          -7.2191    9.8888    2.1690 H       1  LIG1        0.1232
     38 C         -12.1869    7.6880    0.5971 C.ar    1  LIG1        0.1032
     39 C         -10.8506    7.7578    0.1410 C.ar    1  LIG1        0.0343
     40 C         -10.4281    8.9738   -0.3856 C.ar    1  LIG1       -0.0331
     41 C         -11.2777   10.0783   -0.4164 C.ar    1  LIG1        0.0434
     42 C         -12.5551    9.9048    0.1203 C.ar    1  LIG1        0.0442
     43 N         -12.9912    8.7514    0.6001 N.ar    1  LIG1       -0.2471
     44 H          -9.4223    9.0700   -0.7755 H       1  LIG1        0.0638
     45 H         -13.2514   10.7389    0.1489 H       1  LIG1        0.0842
     46 S         -12.9781    6.2569    1.2749 S.3     1  LIG1       -0.1228
     47 H         -12.1184    5.3591    0.7605 H       1  LIG1        0.1086
     48 C         -10.8646   11.3335   -0.9594 C.1     1  LIG1       -0.0681
     49 C         -10.5210   12.3931   -1.4157 C.1     1  LIG1       -0.1139
     50 H         -10.2207   13.3315   -1.8216 H       1  LIG1        0.1232
@<TRIPOS>BOND
     1    25    24    1
     2    50    49    1
     3    24    23    3
     4    49    48    3
     5     9    10    1
     6     9     1    1
     7    23    17    1
     8    20    16    1
     9    48    41    1
    10    33    34    1
    11    33    26    1
    12    44    40    1
    13    17    16   ar
    14    17    18   ar
    15     1     6   ar
    16     1     2   ar
    17    16    15   ar
    18     6     5   ar
    19    41    40   ar
    20    41    42   ar
    21    40    39   ar
    22    26    31   ar
    23    26    27   ar
    24    31    30   ar
    25     8     2    1
    26     2     3   ar
    27    15     5    1
    28    15    14   ar
    29    18    27    1
    30    18    19   ar
    31     5     4   ar
    32    27    28   ar
    33    42    45    1
    34    42    43   ar
    35    39    30    1
    36    39    38   ar
    37    30    29   ar
    38    14    19   ar
    39    14    21    1
    40    22    21    1
    41     3     4   ar
    42     3     7    1
    43     4    11    1
    44    28    29   ar
    45    28    32    1
    46    38    43   ar
    47    38    46    1
    48    29    35    1
    49    47    46    1
    50    11    12    3
    51    35    36    3
    52    12    13    1
    53    36    37    1
