@<TRIPOS>MOLECULE
mol_data/opt/cam/geoms/mol2/6gf.out
 13 13 0 0 0
SMALL
GASTEIGER

@<TRIPOS>ATOM
      1 C          -4.5453   -1.9925    0.0001 C.ar    1  LIG1        0.0942
      2 C          -3.1475   -1.9742   -0.0000 C.ar    1  LIG1       -0.0266
      3 C          -2.4997   -0.7529   -0.0002 C.ar    1  LIG1       -0.0162
      4 C          -3.2617    0.4121   -0.0003 C.ar    1  LIG1        0.1349
      5 C          -4.6461    0.2882   -0.0002 C.ar    1  LIG1        0.0702
      6 N          -5.2730   -0.8851   -0.0000 N.ar    1  LIG1       -0.2454
      7 H          -1.4177   -0.6831   -0.0002 H       1  LIG1        0.0655
      8 H          -2.5769   -2.8957    0.0001 H       1  LIG1        0.0645
      9 H          -5.2778    1.1766   -0.0003 H       1  LIG1        0.0867
     10 S          -5.5069   -3.4926    0.0003 S.3     1  LIG1       -0.1234
     11 H          -4.4679   -4.3438    0.0003 H       1  LIG1        0.1086
     12 O          -2.6190    1.6087   -0.0004 O.3     1  LIG1       -0.5052
     13 H          -3.2672    2.3233   -0.0005 H       1  LIG1        0.2922
@<TRIPOS>BOND
     1    13    12    1
     2    12     4    1
     3     4     5   ar
     4     4     3   ar
     5     9     5    1
     6     7     3    1
     7     5     6   ar
     8     3     2   ar
     9     6     1   ar
    10     2     1   ar
    11     2     8    1
    12     1    10    1
    13    10    11    1
