@<TRIPOS>MOLECULE
mol_data/opt/cam/geoms/mol2/6gf6gf-6gf6gf-.out
 46 49 0 0 0
SMALL
GASTEIGER

@<TRIPOS>ATOM
      1 C          -3.9087   -2.1072    0.5051 C.ar    1  LIG1        0.0949
      2 C          -2.5896   -1.9599    0.0662 C.ar    1  LIG1       -0.0265
      3 C          -2.2056   -0.7370   -0.4429 C.ar    1  LIG1       -0.0155
      4 C          -3.1204    0.3137   -0.4821 C.ar    1  LIG1        0.1429
      5 C          -4.4112    0.0910    0.0124 C.ar    1  LIG1        0.1161
      6 N          -4.7775   -1.1109    0.4729 N.ar    1  LIG1       -0.2370
      7 H          -1.2037   -0.5683   -0.8215 H       1  LIG1        0.0655
      8 H          -1.8874   -2.7839    0.1107 H       1  LIG1        0.0645
      9 S          -4.5657   -3.6263    1.1590 S.3     1  LIG1       -0.1234
     10 H          -3.4842   -4.3821    0.9092 H       1  LIG1        0.1086
     11 O          -2.6952    1.4888   -1.0066 O.3     1  LIG1       -0.5046
     12 H          -3.4446    2.0899   -1.1117 H       1  LIG1        0.2922
     13 C          -6.7416    1.0795   -0.4257 C.ar    1  LIG1        0.1042
     14 C          -5.4157    1.1887    0.0504 C.ar    1  LIG1        0.0390
     15 C          -5.0495    2.4144    0.5986 C.ar    1  LIG1       -0.0062
     16 C          -5.9316    3.4892    0.6147 C.ar    1  LIG1        0.1435
     17 C          -7.1973    3.3113    0.0443 C.ar    1  LIG1        0.1162
     18 N          -7.5649    2.1173   -0.4258 N.ar    1  LIG1       -0.2363
     19 H          -4.0711    2.5512    1.0479 H       1  LIG1        0.0662
     20 S          -7.4629   -0.3885   -1.1177 S.3     1  LIG1       -0.1227
     21 H          -6.6411   -1.2478   -0.4868 H       1  LIG1        0.1086
     22 O          -5.5014    4.6378    1.1896 O.3     1  LIG1       -0.5046
     23 H          -6.2392    5.2570    1.2717 H       1  LIG1        0.2922
     24 C          -9.5322    4.3490    0.3140 C.ar    1  LIG1        0.1042
     25 C          -8.1678    4.4346   -0.0448 C.ar    1  LIG1        0.0390
     26 C          -7.7237    5.6661   -0.5205 C.ar    1  LIG1       -0.0062
     27 C          -8.5713    6.7660   -0.5743 C.ar    1  LIG1        0.1435
     28 C          -9.8846    6.6081   -0.1155 C.ar    1  LIG1        0.1162
     29 N         -10.3230    5.4127    0.2815 N.ar    1  LIG1       -0.2363
     30 H          -6.7084    5.7885   -0.8839 H       1  LIG1        0.0662
     31 S         -10.3561    2.8857    0.8892 S.3     1  LIG1       -0.1227
     32 H          -9.4968    2.0175    0.3219 H       1  LIG1        0.1086
     33 O          -8.0660    7.9194   -1.0738 O.3     1  LIG1       -0.5046
     34 H          -8.7784    8.5643   -1.1821 H       1  LIG1        0.2922
     35 C         -12.1416    7.7393   -0.5857 C.ar    1  LIG1        0.1034
     36 C         -10.8256    7.7600   -0.0690 C.ar    1  LIG1        0.0390
     37 C         -10.3840    8.9498    0.5102 C.ar    1  LIG1       -0.0068
     38 C         -11.2063   10.0690    0.5296 C.ar    1  LIG1        0.1356
     39 C         -12.4616    9.9556   -0.0538 C.ar    1  LIG1        0.0702
     40 N         -12.9095    8.8233   -0.5799 N.ar    1  LIG1       -0.2447
     41 H          -9.4018    9.0154    0.9671 H       1  LIG1        0.0662
     42 H         -13.1372   10.8104   -0.0866 H       1  LIG1        0.0867
     43 S         -12.9207    6.3377   -1.3497 S.3     1  LIG1       -0.1228
     44 H         -12.1552    5.4069   -0.7514 H       1  LIG1        0.1086
     45 O         -10.7411   11.2058    1.1056 O.3     1  LIG1       -0.5052
     46 H         -11.4200   11.8905    1.0671 H       1  LIG1        0.2922
@<TRIPOS>BOND
     1    43    44    1
     2    43    35    1
     3    34    33    1
     4    20    21    1
     5    20    13    1
     6    12    11    1
     7    33    27    1
     8    11     4    1
     9    30    26    1
    10     7     3    1
    11    35    40   ar
    12    35    36   ar
    13    40    39   ar
    14    27    26   ar
    15    27    28   ar
    16    26    25   ar
    17     4     3   ar
    18     4     5   ar
    19     3     2   ar
    20    18    13   ar
    21    18    17   ar
    22    13    14   ar
    23    28    36    1
    24    28    29   ar
    25    42    39    1
    26    36    37   ar
    27    39    38   ar
    28    25    17    1
    29    25    24   ar
    30     5    14    1
    31     5     6   ar
    32    17    16   ar
    33    14    15   ar
    34     2     8    1
    35     2     1   ar
    36    29    24   ar
    37    24    31    1
    38    32    31    1
    39     6     1   ar
    40     1     9    1
    41    37    38   ar
    42    37    41    1
    43    38    45    1
    44    15    16   ar
    45    15    19    1
    46    16    22    1
    47    10     9    1
    48    46    45    1
    49    22    23    1
