@<TRIPOS>MOLECULE
mol_data/opt/cam/geoms/mol2/6gf6gf6gf-6gf-.out
 46 49 0 0 0
SMALL
GASTEIGER

@<TRIPOS>ATOM
      1 C          -3.9011   -2.1026   -0.5111 C.ar    1  LIG1        0.0949
      2 C          -2.5894   -1.9600   -0.0490 C.ar    1  LIG1       -0.0265
      3 C          -2.2138   -0.7424    0.4788 C.ar    1  LIG1       -0.0155
      4 C          -3.1291    0.3080    0.5135 C.ar    1  LIG1        0.1429
      5 C          -4.4116    0.0907   -0.0044 C.ar    1  LIG1        0.1161
      6 N          -4.7703   -1.1064   -0.4832 N.ar    1  LIG1       -0.2370
      7 H          -1.2184   -0.5778    0.8756 H       1  LIG1        0.0655
      8 H          -1.8866   -2.7837   -0.0902 H       1  LIG1        0.0645
      9 S          -4.5473   -3.6148   -1.1911 S.3     1  LIG1       -0.1234
     10 H          -3.4702   -4.3733   -0.9312 H       1  LIG1        0.1086
     11 O          -2.7125    1.4777    1.0568 O.3     1  LIG1       -0.5046
     12 H          -3.4636    2.0779    1.1557 H       1  LIG1        0.2922
     13 C          -6.7488    1.0752    0.4052 C.ar    1  LIG1        0.1042
     14 C          -5.4153    1.1889   -0.0478 C.ar    1  LIG1        0.0390
     15 C          -5.0400    2.4200   -0.5775 C.ar    1  LIG1       -0.0062
     16 C          -5.9216    3.4951   -0.5973 C.ar    1  LIG1        0.1435
     17 C          -7.1966    3.3117   -0.0496 C.ar    1  LIG1        0.1162
     18 N          -7.5720    2.1132    0.4022 N.ar    1  LIG1       -0.2363
     19 H          -4.0543    2.5611   -1.0091 H       1  LIG1        0.0662
     20 S          -7.4816   -0.3996    1.0701 S.3     1  LIG1       -0.1227
     21 H          -6.6495   -1.2526    0.4442 H       1  LIG1        0.1086
     22 O          -5.4819    4.6494   -1.1532 O.3     1  LIG1       -0.5046
     23 H          -6.2183    5.2696   -1.2413 H       1  LIG1        0.2922
     24 C          -9.5267    4.3527   -0.3473 C.ar    1  LIG1        0.1042
     25 C          -8.1683    4.4343    0.0348 C.ar    1  LIG1        0.0390
     26 C          -7.7322    5.6609    0.5303 C.ar    1  LIG1       -0.0062
     27 C          -8.5804    6.7603    0.5812 C.ar    1  LIG1        0.1435
     28 C          -9.8859    6.6073    0.0992 C.ar    1  LIG1        0.1162
     29 N         -10.3178    5.4161   -0.3171 N.ar    1  LIG1       -0.2363
     30 H          -6.7230    5.7792    0.9117 H       1  LIG1        0.0662
     31 S         -10.3410    2.8954   -0.9509 S.3     1  LIG1       -0.1227
     32 H          -9.4913    2.0213   -0.3783 H       1  LIG1        0.1086
     33 O          -8.0834    7.9085    1.1007 O.3     1  LIG1       -0.5046
     34 H          -8.7975    8.5524    1.2038 H       1  LIG1        0.2922
     35 C         -12.1504    7.7342    0.5436 C.ar    1  LIG1        0.1034
     36 C         -10.8260    7.7599    0.0489 C.ar    1  LIG1        0.0390
     37 C         -10.3749    8.9554   -0.5108 C.ar    1  LIG1       -0.0068
     38 C         -11.1966   10.0749   -0.5324 C.ar    1  LIG1        0.1356
     39 C         -12.4615    9.9559    0.0290 C.ar    1  LIG1        0.0702
     40 N         -12.9180    8.8184    0.5361 N.ar    1  LIG1       -0.2447
     41 H          -9.3852    9.0254   -0.9508 H       1  LIG1        0.0662
     42 H         -13.1374   10.8105    0.0593 H       1  LIG1        0.0867
     43 S         -12.9421    6.3251    1.2804 S.3     1  LIG1       -0.1228
     44 H         -12.1668    5.4003    0.6853 H       1  LIG1        0.1086
     45 O         -10.7220   11.2174   -1.0891 O.3     1  LIG1       -0.5052
     46 H         -11.4014   11.9018   -1.0548 H       1  LIG1        0.2922
@<TRIPOS>BOND
     1    23    22    1
     2     9    10    1
     3     9     1    1
     4    22    16    1
     5    45    46    1
     6    45    38    1
     7    19    15    1
     8    31    32    1
     9    31    24    1
    10    41    37    1
    11    16    15   ar
    12    16    17   ar
    13    15    14   ar
    14    38    37   ar
    15    38    39   ar
    16     1     6   ar
    17     1     2   ar
    18    37    36   ar
    19     6     5   ar
    20    24    29   ar
    21    24    25   ar
    22    29    28   ar
    23     8     2    1
    24    17    25    1
    25    17    18   ar
    26     2     3   ar
    27    14     5    1
    28    14    13   ar
    29     5     4   ar
    30    39    42    1
    31    39    40   ar
    32    25    26   ar
    33    36    28    1
    34    36    35   ar
    35    28    27   ar
    36    18    13   ar
    37    13    20    1
    38    21    20    1
    39     3     4   ar
    40     3     7    1
    41     4    11    1
    42    26    27   ar
    43    26    30    1
    44    40    35   ar
    45    35    43    1
    46    27    33    1
    47    44    43    1
    48    11    12    1
    49    33    34    1
