@<TRIPOS>MOLECULE
mol_data/opt/cam/geoms/mol2/6gf6gf-6gf6gf.out
 46 49 0 0 0
SMALL
GASTEIGER

@<TRIPOS>ATOM
      1 C          -3.8902   -2.0951    0.5184 C.ar    1  LIG1        0.0949
      2 C          -2.5838   -1.9554    0.0405 C.ar    1  LIG1       -0.0265
      3 C          -2.2152   -0.7421   -0.5018 C.ar    1  LIG1       -0.0155
      4 C          -3.1318    0.3073   -0.5353 C.ar    1  LIG1        0.1429
      5 C          -4.4083    0.0934   -0.0013 C.ar    1  LIG1        0.1161
      6 N          -4.7605   -1.0999    0.4916 N.ar    1  LIG1       -0.2370
      7 H          -1.2244   -0.5800   -0.9111 H       1  LIG1        0.0655
      8 H          -1.8799   -2.7781    0.0809 H       1  LIG1        0.0645
      9 S          -4.5274   -3.6019    1.2184 S.3     1  LIG1       -0.1234
     10 H          -3.4525   -4.3617    0.9531 H       1  LIG1        0.1086
     11 O          -2.7224    1.4726   -1.0932 O.3     1  LIG1       -0.5046
     12 H          -3.4750    2.0713   -1.1889 H       1  LIG1        0.2922
     13 C          -6.7508    1.0724   -0.3932 C.ar    1  LIG1        0.1042
     14 C          -5.4124    1.1911    0.0439 C.ar    1  LIG1        0.0390
     15 C          -5.0324    2.4270    0.5588 C.ar    1  LIG1       -0.0062
     16 C          -5.9147    3.5015    0.5792 C.ar    1  LIG1        0.1435
     17 C          -7.1955    3.3124    0.0474 C.ar    1  LIG1        0.1162
     18 N          -7.5748    2.1097   -0.3899 N.ar    1  LIG1       -0.2363
     19 H          -4.0421    2.5726    0.9782 H       1  LIG1        0.0662
     20 S          -7.4896   -0.4086   -1.0373 S.3     1  LIG1       -0.1227
     21 H          -6.6498   -1.2555   -0.4135 H       1  LIG1        0.1086
     22 O          -5.4699    4.6609    1.1204 O.3     1  LIG1       -0.5046
     23 H          -6.2058    5.2812    1.2113 H       1  LIG1        0.2922
     24 C          -9.5231    4.3540    0.3621 C.ar    1  LIG1        0.1042
     25 C          -8.1692    4.4335   -0.0358 C.ar    1  LIG1        0.0390
     26 C          -7.7396    5.6560   -0.5465 C.ar    1  LIG1       -0.0062
     27 C          -8.5894    6.7543   -0.5974 C.ar    1  LIG1        0.1435
     28 C          -9.8893    6.6044   -0.0996 C.ar    1  LIG1        0.1162
     29 N         -10.3155    5.4165    0.3316 N.ar    1  LIG1       -0.2363
     30 H          -6.7349    5.7720   -0.9402 H       1  LIG1        0.0662
     31 S         -10.3293    2.9013    0.9872 S.3     1  LIG1       -0.1227
     32 H          -9.4852    2.0230    0.4126 H       1  LIG1        0.1086
     33 O          -8.0993    7.8984   -1.1322 O.3     1  LIG1       -0.5046
     34 H          -8.8150    8.5408   -1.2328 H       1  LIG1        0.2922
     35 C         -12.1596    7.7256   -0.5284 C.ar    1  LIG1        0.1034
     36 C         -10.8298    7.7566   -0.0487 C.ar    1  LIG1        0.0390
     37 C         -10.3736    8.9572    0.4957 C.ar    1  LIG1       -0.0068
     38 C         -11.1961   10.0762    0.5169 C.ar    1  LIG1        0.1356
     39 C         -12.4670    9.9514   -0.0294 C.ar    1  LIG1        0.0702
     40 N         -12.9281    8.8092   -0.5216 N.ar    1  LIG1       -0.2447
     41 H          -9.3792    9.0318    0.9240 H       1  LIG1        0.0662
     42 H         -13.1440   10.8051   -0.0595 H       1  LIG1        0.0867
     43 S         -12.9582    6.3096   -1.2442 S.3     1  LIG1       -0.1228
     44 H         -12.1755    5.3906   -0.6499 H       1  LIG1        0.1086
     45 O         -10.7163   11.2238    1.0584 O.3     1  LIG1       -0.5052
     46 H         -11.3967   11.9074    1.0259 H       1  LIG1        0.2922
@<TRIPOS>BOND
     1    43    44    1
     2    43    35    1
     3    34    33    1
     4    12    11    1
     5    33    27    1
     6    11     4    1
     7    20    21    1
     8    20    13    1
     9    30    26    1
    10     7     3    1
    11    27    26   ar
    12    27    28   ar
    13    26    25   ar
    14     4     3   ar
    15     4     5   ar
    16    35    40   ar
    17    35    36   ar
    18    40    39   ar
    19     3     2   ar
    20    13    18   ar
    21    13    14   ar
    22    18    17   ar
    23    28    36    1
    24    28    29   ar
    25    42    39    1
    26    36    37   ar
    27    25    17    1
    28    25    24   ar
    29    39    38   ar
    30     5    14    1
    31     5     6   ar
    32     2     8    1
    33     2     1   ar
    34    14    15   ar
    35    17    16   ar
    36    29    24   ar
    37    24    31    1
    38    32    31    1
    39     6     1   ar
    40    37    38   ar
    41    37    41    1
    42    38    45    1
    43     1     9    1
    44    15    16   ar
    45    15    19    1
    46    16    22    1
    47    10     9    1
    48    46    45    1
    49    22    23    1
