@<TRIPOS>MOLECULE
mol_data/opt/cam/geoms/mol2/6gf6gf.out
 24 25 0 0 0
SMALL
GASTEIGER

@<TRIPOS>ATOM
      1 C          -4.3663   -2.0129   -0.5311 C.ar    1  LIG1        0.0949
      2 C          -3.0255   -2.0202   -0.1372 C.ar    1  LIG1       -0.0265
      3 C          -2.4926   -0.8569    0.3789 C.ar    1  LIG1       -0.0155
      4 C          -3.2858    0.2849    0.4694 C.ar    1  LIG1        0.1429
      5 C          -4.6099    0.2143    0.0189 C.ar    1  LIG1        0.1161
      6 N          -5.1207   -0.9294   -0.4505 N.ar    1  LIG1       -0.2370
      7 H          -1.4660   -0.8062    0.7238 H       1  LIG1        0.0655
      8 H          -2.4198   -2.9147   -0.2212 H       1  LIG1        0.0645
      9 S          -5.2075   -3.4377   -1.1884 S.3     1  LIG1       -0.1234
     10 H          -4.2045   -4.3104   -0.9994 H       1  LIG1        0.1086
     11 O          -2.7203    1.3972    0.9987 O.3     1  LIG1       -0.5046
     12 H          -3.3971    2.0764    1.1223 H       1  LIG1        0.2922
     13 C          -6.7780    1.4527    0.6177 C.ar    1  LIG1        0.1034
     14 C          -5.4875    1.4175    0.0430 C.ar    1  LIG1        0.0390
     15 C          -5.0085    2.5977   -0.5243 C.ar    1  LIG1       -0.0068
     16 C          -5.7711    3.7584   -0.4776 C.ar    1  LIG1        0.1356
     17 C          -7.0050    3.6943    0.1563 C.ar    1  LIG1        0.0702
     18 N          -7.4895    2.5722    0.6731 N.ar    1  LIG1       -0.2447
     19 H          -4.0439    2.6240   -1.0210 H       1  LIG1        0.0662
     20 H          -7.6325    4.5816    0.2399 H       1  LIG1        0.0867
     21 S          -7.5899    0.0681    1.3821 S.3     1  LIG1       -0.1228
     22 H          -6.9050   -0.8798    0.7183 H       1  LIG1        0.1086
     23 O          -5.2712    4.8857   -1.0430 O.3     1  LIG1       -0.5052
     24 H          -5.9101    5.6036   -0.9547 H       1  LIG1        0.2922
@<TRIPOS>BOND
     1     9    10    1
     2     9     1    1
     3    23    24    1
     4    23    16    1
     5    19    15    1
     6     1     6   ar
     7     1     2   ar
     8    15    16   ar
     9    15    14   ar
    10    16    17   ar
    11     6     5   ar
    12     8     2    1
    13     2     3   ar
    14     5    14    1
    15     5     4   ar
    16    14    13   ar
    17    17    20    1
    18    17    18   ar
    19     3     4   ar
    20     3     7    1
    21     4    11    1
    22    13    18   ar
    23    13    21    1
    24    22    21    1
    25    11    12    1
