@<TRIPOS>MOLECULE
mol_data/opt/cam/geoms/mol2/6gf6gf6gf.out
 35 37 0 0 0
SMALL
GASTEIGER

@<TRIPOS>ATOM
      1 C          -4.1751   -2.1196   -0.3169 C.ar    1  LIG1        0.0949
      2 C          -2.8265   -2.0117    0.0343 C.ar    1  LIG1       -0.0265
      3 C          -2.3525   -0.7767    0.4253 C.ar    1  LIG1       -0.0155
      4 C          -3.2102    0.3215    0.4349 C.ar    1  LIG1        0.1429
      5 C          -4.5383    0.1327    0.0327 C.ar    1  LIG1        0.1161
      6 N          -4.9904   -1.0784   -0.3128 N.ar    1  LIG1       -0.2370
      7 H          -1.3225   -0.6347    0.7328 H       1  LIG1        0.0655
      8 H          -2.1698   -2.8733    0.0138 H       1  LIG1        0.0645
      9 S          -4.9449   -3.6451   -0.8148 S.3     1  LIG1       -0.1234
     10 H          -3.8918   -4.4392   -0.5630 H       1  LIG1        0.1086
     11 O          -2.6977    1.5078    0.8431 O.3     1  LIG1       -0.5046
     12 H          -3.4095    2.1549    0.9371 H       1  LIG1        0.2922
     13 C          -6.7828    1.2771    0.5335 C.ar    1  LIG1        0.1042
     14 C          -5.4875    1.2774   -0.0303 C.ar    1  LIG1        0.0390
     15 C          -5.0968    2.4372   -0.6938 C.ar    1  LIG1       -0.0062
     16 C          -5.9238    3.5538   -0.7389 C.ar    1  LIG1        0.1435
     17 C          -7.1575    3.4875   -0.0810 C.ar    1  LIG1        0.1162
     18 N          -7.5530    2.3548    0.5028 N.ar    1  LIG1       -0.2363
     19 H          -4.1443    2.4863   -1.2117 H       1  LIG1        0.0662
     20 S          -7.5288   -0.0930    1.3831 S.3     1  LIG1       -0.1227
     21 H          -6.7897   -1.0417    0.7791 H       1  LIG1        0.1086
     22 O          -5.4776    4.6331   -1.4249 O.3     1  LIG1       -0.5046
     23 H          -6.1868    5.2867   -1.4962 H       1  LIG1        0.2922
     24 C          -9.4389    4.6364   -0.3454 C.ar    1  LIG1        0.1034
     25 C          -8.0623    4.6678   -0.0241 C.ar    1  LIG1        0.0390
     26 C          -7.5224    5.8960    0.3580 C.ar    1  LIG1       -0.0068
     27 C          -8.3149    7.0367    0.3750 C.ar    1  LIG1        0.1356
     28 C          -9.6427    6.9040   -0.0097 C.ar    1  LIG1        0.0702
     29 N         -10.1803    5.7386   -0.3454 N.ar    1  LIG1       -0.2447
     30 H          -6.4836    5.9772    0.6618 H       1  LIG1        0.0662
     31 H         -10.3018    7.7718   -0.0365 H       1  LIG1        0.0867
     32 S         -10.3422    3.1890   -0.8402 S.3     1  LIG1       -0.1228
     33 H          -9.5112    2.3009   -0.2650 H       1  LIG1        0.1086
     34 O          -7.7529    8.2112    0.7563 O.3     1  LIG1       -0.5052
     35 H          -8.4186    8.9096    0.7408 H       1  LIG1        0.2922
@<TRIPOS>BOND
     1    23    22    1
     2    22    16    1
     3    19    15    1
     4    32    24    1
     5    32    33    1
     6     9    10    1
     7     9     1    1
     8    16    15   ar
     9    16    17   ar
    10    15    14   ar
    11    24    29   ar
    12    24    25   ar
    13    29    28   ar
    14     1     6   ar
    15     1     2   ar
    16     6     5   ar
    17    17    25    1
    18    17    18   ar
    19    31    28    1
    20    14     5    1
    21    14    13   ar
    22    25    26   ar
    23    28    27   ar
    24     8     2    1
    25     5     4   ar
    26     2     3   ar
    27    26    27   ar
    28    26    30    1
    29    27    34    1
    30     3     4   ar
    31     3     7    1
    32     4    11    1
    33    18    13   ar
    34    13    20    1
    35    35    34    1
    36    21    20    1
    37    11    12    1
