@<TRIPOS>MOLECULE
mol_data/opt/cam/geoms/mol2/6gf6gf-6gf-.out
 35 37 0 0 0
SMALL
GASTEIGER

@<TRIPOS>ATOM
      1 C          -4.0332   -1.9261    0.9763 C.ar    1  LIG1        0.0949
      2 C          -2.8868   -2.0532    0.1865 C.ar    1  LIG1       -0.0265
      3 C          -2.6120   -1.0566   -0.7266 C.ar    1  LIG1       -0.0155
      4 C          -3.4560    0.0486   -0.8189 C.ar    1  LIG1        0.1429
      5 C          -4.5614    0.1152    0.0382 C.ar    1  LIG1        0.1161
      6 N          -4.8334   -0.8763    0.8947 N.ar    1  LIG1       -0.2370
      7 H          -1.7526   -1.1106   -1.3854 H       1  LIG1        0.0655
      8 H          -2.2359   -2.9149    0.2752 H       1  LIG1        0.0645
      9 S          -4.5431   -3.1387    2.1751 S.3     1  LIG1       -0.1234
     10 H          -3.6045   -4.0524    1.8795 H       1  LIG1        0.1086
     11 O          -3.1492    0.9893   -1.7449 O.3     1  LIG1       -0.5046
     12 H          -3.8738    1.6248   -1.8184 H       1  LIG1        0.2922
     13 C          -6.8757    1.2241   -0.0660 C.ar    1  LIG1        0.1042
     14 C          -5.4678    1.2961    0.0284 C.ar    1  LIG1        0.0390
     15 C          -4.9095    2.5691    0.0918 C.ar    1  LIG1       -0.0062
     16 C          -5.7064    3.7074    0.0410 C.ar    1  LIG1        0.1435
     17 C          -7.0902    3.5372   -0.0753 C.ar    1  LIG1        0.1162
     18 N          -7.6247    2.3156   -0.1293 N.ar    1  LIG1       -0.2363
     19 H          -3.8367    2.7007    0.1897 H       1  LIG1        0.0662
     20 S          -7.8160   -0.2794   -0.1747 S.3     1  LIG1       -0.1227
     21 H          -6.8817   -1.0659    0.3887 H       1  LIG1        0.1086
     22 O          -5.0828    4.9083    0.0946 O.3     1  LIG1       -0.5046
     23 H          -5.7246    5.6134   -0.0669 H       1  LIG1        0.2922
     24 C          -8.9865    4.9197   -1.1114 C.ar    1  LIG1        0.1034
     25 C          -8.0032    4.7124   -0.1186 C.ar    1  LIG1        0.0390
     26 C          -7.8768    5.6872    0.8703 C.ar    1  LIG1       -0.0068
     27 C          -8.6684    6.8288    0.8336 C.ar    1  LIG1        0.1356
     28 C          -9.5664    6.9578   -0.2181 C.ar    1  LIG1        0.0702
     29 N          -9.7226    6.0237   -1.1478 N.ar    1  LIG1       -0.2447
     30 H          -7.1750    5.5624    1.6890 H       1  LIG1        0.0662
     31 H         -10.1936    7.8448   -0.3063 H       1  LIG1        0.0867
     32 S          -9.3276    3.7997   -2.4497 S.3     1  LIG1       -0.1228
     33 H          -8.8920    2.6948   -1.8190 H       1  LIG1        0.1086
     34 O          -8.5178    7.7530    1.8145 O.3     1  LIG1       -0.5052
     35 H          -9.1416    8.4766    1.6783 H       1  LIG1        0.2922
@<TRIPOS>BOND
     1    32    33    1
     2    32    24    1
     3    12    11    1
     4    11     4    1
     5     7     3    1
     6    29    24   ar
     7    29    28   ar
     8    24    25   ar
     9     4     3   ar
    10     4     5   ar
    11     3     2   ar
    12    31    28    1
    13    28    27   ar
    14    20    13    1
    15    20    21    1
    16    18    17   ar
    17    18    13   ar
    18    25    17    1
    19    25    26   ar
    20    17    16   ar
    21    23    22    1
    22    13    14   ar
    23    14     5    1
    24    14    15   ar
    25     5     6   ar
    26    16    15   ar
    27    16    22    1
    28    15    19    1
    29     2     8    1
    30     2     1   ar
    31    27    26   ar
    32    27    34    1
    33    26    30    1
    34     6     1   ar
    35     1     9    1
    36    35    34    1
    37    10     9    1
