@<TRIPOS>MOLECULE
mol_data/opt/cam/geoms/mol2/6gf6gf-.out
 24 25 0 0 0
SMALL
GASTEIGER

@<TRIPOS>ATOM
      1 C          -4.3669   -2.0166    0.5122 C.ar    1  LIG1        0.0949
      2 C          -3.0236   -2.0194    0.1271 C.ar    1  LIG1       -0.0265
      3 C          -2.4885   -0.8514   -0.3761 C.ar    1  LIG1       -0.0155
      4 C          -3.2822    0.2903   -0.4626 C.ar    1  LIG1        0.1429
      5 C          -4.6092    0.2147   -0.0213 C.ar    1  LIG1        0.1161
      6 N          -5.1219   -0.9333    0.4354 N.ar    1  LIG1       -0.2370
      7 H          -1.4596   -0.7970   -0.7138 H       1  LIG1        0.0655
      8 H          -2.4175   -2.9140    0.2078 H       1  LIG1        0.0645
      9 S          -5.2109   -3.4475    1.1524 S.3     1  LIG1       -0.1234
     10 H          -4.2058   -4.3177    0.9630 H       1  LIG1        0.1086
     11 O          -2.7144    1.4074   -0.9791 O.3     1  LIG1       -0.5046
     12 H          -3.3911    2.0869   -1.1017 H       1  LIG1        0.2922
     13 C          -6.7746    1.4558   -0.6244 C.ar    1  LIG1        0.1034
     14 C          -5.4878    1.4173   -0.0415 C.ar    1  LIG1        0.0390
     15 C          -5.0138    2.5933    0.5384 C.ar    1  LIG1       -0.0068
     16 C          -5.7773    3.7536    0.4961 C.ar    1  LIG1        0.1356
     17 C          -7.0070    3.6934   -0.1464 C.ar    1  LIG1        0.0702
     18 N          -7.4869    2.5750   -0.6754 N.ar    1  LIG1       -0.2447
     19 H          -4.0525    2.6165    1.0417 H       1  LIG1        0.0662
     20 H          -7.6348    4.5807   -0.2269 H       1  LIG1        0.0867
     21 S          -7.5800    0.0766   -1.4052 S.3     1  LIG1       -0.1228
     22 H          -6.8985   -0.8759   -0.7446 H       1  LIG1        0.1086
     23 O          -5.2823    4.8768    1.0739 O.3     1  LIG1       -0.5052
     24 H          -5.9213    5.5947    0.9872 H       1  LIG1        0.2922
@<TRIPOS>BOND
     1    21    22    1
     2    21    13    1
     3    12    11    1
     4    11     4    1
     5     7     3    1
     6    18    13   ar
     7    18    17   ar
     8    13    14   ar
     9     4     3   ar
    10     4     5   ar
    11     3     2   ar
    12    20    17    1
    13    17    16   ar
    14    14     5    1
    15    14    15   ar
    16     5     6   ar
    17     2     8    1
    18     2     1   ar
    19     6     1   ar
    20    16    15   ar
    21    16    23    1
    22     1     9    1
    23    15    19    1
    24    10     9    1
    25    24    23    1
