@<TRIPOS>MOLECULE
mol_data/opt/cam/geoms/mol2/6gf6gf6gf6gf-.out
 46 49 0 0 0
SMALL
GASTEIGER

@<TRIPOS>ATOM
      1 C          -3.6947   -1.9044   -0.9072 C.ar    1  LIG1        0.0949
      2 C          -2.5956   -1.9648   -0.0454 C.ar    1  LIG1       -0.0265
      3 C          -2.4484   -0.9644    0.8926 C.ar    1  LIG1       -0.0155
      4 C          -3.3693    0.0808    0.9394 C.ar    1  LIG1        0.1429
      5 C          -4.4184    0.0849    0.0123 C.ar    1  LIG1        0.1161
      6 N          -4.5672   -0.9114   -0.8687 N.ar    1  LIG1       -0.2370
      7 H          -1.6317   -0.9696    1.6056 H       1  LIG1        0.0655
      8 H          -1.8835   -2.7797   -0.0990 H       1  LIG1        0.0645
      9 S          -4.0432   -3.1323   -2.1472 S.3     1  LIG1       -0.1234
     10 H          -3.0712   -3.9887   -1.7936 H       1  LIG1        0.1086
     11 O          -3.1863    1.0271    1.8922 O.3     1  LIG1       -0.5046
     12 H          -3.9574    1.6086    1.9294 H       1  LIG1        0.2922
     13 C          -6.8046    1.0342   -0.0383 C.ar    1  LIG1        0.1042
     14 C          -5.4012    1.2023   -0.0293 C.ar    1  LIG1        0.0390
     15 C          -4.9284    2.5105   -0.0378 C.ar    1  LIG1       -0.0062
     16 C          -5.8020    3.5926   -0.0335 C.ar    1  LIG1        0.1435
     17 C          -7.1758    3.3288   -0.0225 C.ar    1  LIG1        0.1162
     18 N          -7.6276    2.0724   -0.0195 N.ar    1  LIG1       -0.2363
     19 H          -3.8629    2.7159   -0.0551 H       1  LIG1        0.0662
     20 S          -7.6459   -0.5299   -0.0122 S.3     1  LIG1       -0.1227
     21 H          -6.6239   -1.2422   -0.5196 H       1  LIG1        0.1086
     22 O          -5.2560    4.8320   -0.0272 O.3     1  LIG1       -0.5046
     23 H          -5.9495    5.4925    0.1048 H       1  LIG1        0.2922
     24 C          -9.2695    4.5380    0.8407 C.ar    1  LIG1        0.1042
     25 C          -8.1692    4.4362   -0.0387 C.ar    1  LIG1        0.0390
     26 C          -8.0269    5.4521   -0.9802 C.ar    1  LIG1       -0.0062
     27 C          -8.8915    6.5407   -0.9993 C.ar    1  LIG1        0.1435
     28 C          -9.8998    6.5993   -0.0295 C.ar    1  LIG1        0.1162
     29 N         -10.0712    5.5927    0.8293 N.ar    1  LIG1       -0.2363
     30 H          -7.2519    5.4033   -1.7387 H       1  LIG1        0.0662
     31 S          -9.6976    3.3409    2.0817 S.3     1  LIG1       -0.1227
     32 H          -9.1265    2.2953    1.4556 H       1  LIG1        0.1086
     33 O          -8.6992    7.4724   -1.9627 O.3     1  LIG1       -0.5046
     34 H          -9.4335    8.1016   -1.9557 H       1  LIG1        0.2922
     35 C         -12.2191    7.6888    0.1450 C.ar    1  LIG1        0.1034
     36 C         -10.8101    7.7730    0.0621 C.ar    1  LIG1        0.0390
     37 C         -10.2447    9.0484    0.0537 C.ar    1  LIG1       -0.0068
     38 C         -11.0548   10.1761    0.0842 C.ar    1  LIG1        0.1356
     39 C         -12.4296    9.9807    0.1116 C.ar    1  LIG1        0.0702
     40 N         -12.9829    8.7758    0.1523 N.ar    1  LIG1       -0.2447
     41 H          -9.1675    9.1798    0.0392 H       1  LIG1        0.0662
     42 H         -13.1110   10.8314    0.1128 H       1  LIG1        0.0867
     43 S         -13.1558    6.1802    0.1869 S.3     1  LIG1       -0.1228
     44 H         -12.1596    5.4078    0.6566 H       1  LIG1        0.1086
     45 O         -10.4655   11.3981    0.0785 O.3     1  LIG1       -0.5052
     46 H         -11.1419   12.0852    0.1210 H       1  LIG1        0.2922
@<TRIPOS>BOND
     1     9    10    1
     2     9     1    1
     3    33    34    1
     4    33    27    1
     5    30    26    1
     6    27    26   ar
     7    27    28   ar
     8    26    25   ar
     9     1     6   ar
    10     1     2   ar
    11     6     5   ar
    12    21    20    1
    13     8     2    1
    14    19    15    1
    15     2     3   ar
    16    25    17    1
    17    25    24   ar
    18    13    14   ar
    19    13    18   ar
    20    13    20    1
    21    15    16   ar
    22    15    14   ar
    23    16    22    1
    24    16    17   ar
    25    28    36    1
    26    28    29   ar
    27    14     5    1
    28    22    23    1
    29    17    18   ar
    30     5     4   ar
    31    41    37    1
    32    37    36   ar
    33    37    38   ar
    34    36    35   ar
    35    45    38    1
    36    45    46    1
    37    38    39   ar
    38    39    42    1
    39    39    40   ar
    40    35    40   ar
    41    35    43    1
    42    43    44    1
    43    29    24   ar
    44    24    31    1
    45     3     4   ar
    46     3     7    1
    47     4    11    1
    48    32    31    1
    49    11    12    1
