@<TRIPOS>MOLECULE
mol_data/opt/cam/geoms/mol2/6gf6gf-6gf-6gf-.out
 46 49 0 0 0
SMALL
GASTEIGER

@<TRIPOS>ATOM
      1 C          -3.9940   -2.1806   -0.0282 C.ar    1  LIG1        0.0949
      2 C          -2.6131   -1.9791   -0.1111 C.ar    1  LIG1       -0.0265
      3 C          -2.1490   -0.6843   -0.2131 C.ar    1  LIG1       -0.0155
      4 C          -3.0525    0.3768   -0.2045 C.ar    1  LIG1        0.1429
      5 C          -4.4172    0.0880   -0.0811 C.ar    1  LIG1        0.1161
      6 N          -4.8533   -1.1755   -0.0159 N.ar    1  LIG1       -0.2370
      7 H          -1.0911   -0.4654   -0.3049 H       1  LIG1        0.0655
      8 H          -1.9224   -2.8140   -0.1082 H       1  LIG1        0.0645
      9 S          -4.7510   -3.7874    0.0790 S.3     1  LIG1       -0.1234
     10 H          -3.6259   -4.5001   -0.0924 H       1  LIG1        0.1086
     11 O          -2.5437    1.6272   -0.3232 O.3     1  LIG1       -0.5046
     12 H          -3.2623    2.2622   -0.4437 H       1  LIG1        0.2922
     13 C          -6.6099    1.2319   -0.7788 C.ar    1  LIG1        0.1042
     14 C          -5.4263    1.1796   -0.0085 C.ar    1  LIG1        0.0390
     15 C          -5.2165    2.2283    0.8822 C.ar    1  LIG1       -0.0062
     16 C          -6.0994    3.3002    0.9556 C.ar    1  LIG1        0.1435
     17 C          -7.1991    3.3073    0.0899 C.ar    1  LIG1        0.1162
     18 N          -7.4310    2.2698   -0.7172 N.ar    1  LIG1       -0.2363
     19 H          -4.3676    2.2206    1.5584 H       1  LIG1        0.0662
     20 S          -7.1332   -0.0073   -1.9381 S.3     1  LIG1       -0.1227
     21 H          -6.4474   -1.0164   -1.3697 H       1  LIG1        0.1086
     22 O          -5.8311    4.2644    1.8683 O.3     1  LIG1       -0.5046
     23 H          -6.5838    4.8672    1.9383 H       1  LIG1        0.2922
     24 C          -9.5527    4.3368    0.0849 C.ar    1  LIG1        0.1042
     25 C          -8.1443    4.4552    0.0496 C.ar    1  LIG1        0.0390
     26 C          -7.6254    5.7459   -0.0036 C.ar    1  LIG1       -0.0062
     27 C          -8.4590    6.8580    0.0024 C.ar    1  LIG1        0.1435
     28 C          -9.8402    6.6436    0.0650 C.ar    1  LIG1        0.1162
     29 N         -10.3366    5.4061    0.1087 N.ar    1  LIG1       -0.2363
     30 H          -6.5546    5.9133   -0.0595 H       1  LIG1        0.0662
     31 S         -10.4532    2.8088    0.1642 S.3     1  LIG1       -0.1227
     32 H          -9.4709    2.0442   -0.3478 H       1  LIG1        0.1086
     33 O          -7.8723    8.0781   -0.0391 O.3     1  LIG1       -0.5046
     34 H          -8.5426    8.7635    0.0886 H       1  LIG1        0.2922
     35 C         -11.8191    7.9722    1.0126 C.ar    1  LIG1        0.1034
     36 C         -10.7915    7.7887    0.0609 C.ar    1  LIG1        0.0390
     37 C         -10.6576    8.7583   -0.9322 C.ar    1  LIG1       -0.0068
     38 C         -11.4865    9.8737   -0.9377 C.ar    1  LIG1        0.1356
     39 C         -12.4286    9.9826    0.0771 C.ar    1  LIG1        0.0702
     40 N         -12.5910    9.0521    1.0093 N.ar    1  LIG1       -0.2447
     41 H          -9.9207    8.6490   -1.7218 H       1  LIG1        0.0662
     42 H         -13.0870   10.8493    0.1319 H       1  LIG1        0.0867
     43 S         -12.1753    6.8535    2.3480 S.3     1  LIG1       -0.1228
     44 H         -11.6851    5.7570    1.7434 H       1  LIG1        0.1086
     45 O         -11.3275   10.7937   -1.9212 O.3     1  LIG1       -0.5052
     46 H         -11.9806   11.4966   -1.8178 H       1  LIG1        0.2922
@<TRIPOS>BOND
     1    20    21    1
     2    20    13    1
     3    45    46    1
     4    45    38    1
     5    41    37    1
     6    38    37   ar
     7    38    39   ar
     8    37    36   ar
     9    13    18   ar
    10    13    14   ar
    11    18    17   ar
    12    12    11    1
    13    32    31    1
    14    11     4    1
    15     7     3    1
    16     3     4   ar
    17     3     2   ar
    18     4     5   ar
    19     2     8    1
    20     2     1   ar
    21    10     9    1
    22     5     6   ar
    23     5    14    1
    24    30    26    1
    25    33    27    1
    26    33    34    1
    27     1     6   ar
    28     1     9    1
    29    14    15   ar
    30    26    27   ar
    31    26    25   ar
    32    27    28   ar
    33    25    24   ar
    34    25    17    1
    35    36    28    1
    36    36    35   ar
    37    28    29   ar
    38    39    42    1
    39    39    40   ar
    40    24    29   ar
    41    24    31    1
    42    17    16   ar
    43    15    16   ar
    44    15    19    1
    45    16    22    1
    46    40    35   ar
    47    35    43    1
    48    44    43    1
    49    22    23    1
