@<TRIPOS>MOLECULE
mol_data/opt/cam/geoms/mol2/6gf6gf6gf-.out
 35 37 0 0 0
SMALL
GASTEIGER

@<TRIPOS>ATOM
      1 C          -4.1747   -2.1190   -0.3225 C.ar    1  LIG1        0.0949
      2 C          -2.8290   -2.0135    0.0402 C.ar    1  LIG1       -0.0265
      3 C          -2.3576   -0.7808    0.4412 C.ar    1  LIG1       -0.0155
      4 C          -3.2149    0.3179    0.4492 C.ar    1  LIG1        0.1429
      5 C          -4.5397    0.1318    0.0353 C.ar    1  LIG1        0.1161
      6 N          -4.9895   -1.0774   -0.3199 N.ar    1  LIG1       -0.2370
      7 H          -1.3301   -0.6408    0.7577 H       1  LIG1        0.0655
      8 H          -2.1726   -2.8754    0.0208 H       1  LIG1        0.0645
      9 S          -4.9412   -3.6416   -0.8341 S.3     1  LIG1       -0.1234
     10 H          -3.8905   -4.4375   -0.5776 H       1  LIG1        0.1086
     11 O          -2.7051    1.5019    0.8675 O.3     1  LIG1       -0.5046
     12 H          -3.4173    2.1489    0.9588 H       1  LIG1        0.2922
     13 C          -6.7876    1.2748    0.5233 C.ar    1  LIG1        0.1042
     14 C          -5.4879    1.2772   -0.0298 C.ar    1  LIG1        0.0390
     15 C          -5.0912    2.4401   -0.6844 C.ar    1  LIG1       -0.0062
     16 C          -5.9172    3.5573   -0.7308 C.ar    1  LIG1        0.1435
     17 C          -7.1563    3.4884   -0.0833 C.ar    1  LIG1        0.1162
     18 N          -7.5571    2.3531    0.4917 N.ar    1  LIG1       -0.2363
     19 H          -4.1344    2.4912   -1.1943 H       1  LIG1        0.0662
     20 S          -7.5412   -0.0991    1.3601 S.3     1  LIG1       -0.1227
     21 H          -6.7977   -1.0451    0.7575 H       1  LIG1        0.1086
     22 O          -5.4649    4.6398   -1.4078 O.3     1  LIG1       -0.5046
     23 H          -6.1732    5.2940   -1.4817 H       1  LIG1        0.2922
     24 C          -9.4349    4.6397   -0.3606 C.ar    1  LIG1        0.1034
     25 C          -8.0609    4.6689   -0.0280 C.ar    1  LIG1        0.0390
     26 C          -7.5237    5.8949    0.3646 C.ar    1  LIG1       -0.0068
     27 C          -8.3156    7.0359    0.3807 C.ar    1  LIG1        0.1356
     28 C          -9.6404    6.9058   -0.0155 C.ar    1  LIG1        0.0702
     29 N         -10.1757    5.7423   -0.3612 N.ar    1  LIG1       -0.2447
     30 H          -6.4873    5.9741    0.6772 H       1  LIG1        0.0662
     31 H         -10.2988    7.7741   -0.0433 H       1  LIG1        0.0867
     32 S         -10.3348    3.1953   -0.8699 S.3     1  LIG1       -0.1228
     33 H          -9.5089    2.3040   -0.2924 H       1  LIG1        0.1086
     34 O          -7.7562    8.2082    0.7724 O.3     1  LIG1       -0.5052
     35 H          -8.4214    8.9071    0.7549 H       1  LIG1        0.2922
@<TRIPOS>BOND
     1    23    22    1
     2    22    16    1
     3    19    15    1
     4    32    24    1
     5    32    33    1
     6     9    10    1
     7     9     1    1
     8    16    15   ar
     9    16    17   ar
    10    15    14   ar
    11    29    24   ar
    12    29    28   ar
    13    24    25   ar
    14     1     6   ar
    15     1     2   ar
    16     6     5   ar
    17    17    25    1
    18    17    18   ar
    19    31    28    1
    20    14     5    1
    21    14    13   ar
    22    25    26   ar
    23    28    27   ar
    24     8     2    1
    25     5     4   ar
    26     2     3   ar
    27    26    27   ar
    28    26    30    1
    29    27    34    1
    30     3     4   ar
    31     3     7    1
    32     4    11    1
    33    18    13   ar
    34    13    20    1
    35    35    34    1
    36    21    20    1
    37    11    12    1
