@<TRIPOS>MOLECULE
mol_data/opt/cam/geoms/mol2/6gf6gf-6gf-6gf.out
 46 49 0 0 0
SMALL
GASTEIGER

@<TRIPOS>ATOM
      1 C          -3.9955   -2.1815   -0.0195 C.ar    1  LIG1        0.0949
      2 C          -2.6151   -1.9808   -0.1118 C.ar    1  LIG1       -0.0265
      3 C          -2.1514   -0.6866   -0.2233 C.ar    1  LIG1       -0.0155
      4 C          -3.0546    0.3747   -0.2144 C.ar    1  LIG1        0.1429
      5 C          -4.4185    0.0869   -0.0812 C.ar    1  LIG1        0.1161
      6 N          -4.8545   -1.1762   -0.0069 N.ar    1  LIG1       -0.2370
      7 H          -1.0940   -0.4684   -0.3228 H       1  LIG1        0.0655
      8 H          -1.9246   -2.8158   -0.1090 H       1  LIG1        0.0645
      9 S          -4.7522   -3.7876    0.1006 S.3     1  LIG1       -0.1234
     10 H          -3.6283   -4.5014   -0.0742 H       1  LIG1        0.1086
     11 O          -2.5462    1.6245   -0.3426 O.3     1  LIG1       -0.5046
     12 H          -3.2654    2.2589   -0.4618 H       1  LIG1        0.2922
     13 C          -6.6152    1.2279   -0.7710 C.ar    1  LIG1        0.1042
     14 C          -5.4269    1.1792   -0.0079 C.ar    1  LIG1        0.0390
     15 C          -5.2114    2.2323    0.8763 C.ar    1  LIG1       -0.0062
     16 C          -6.0936    3.3047    0.9497 C.ar    1  LIG1        0.1435
     17 C          -7.1986    3.3077    0.0908 C.ar    1  LIG1        0.1162
     18 N          -7.4358    2.2662   -0.7096 N.ar    1  LIG1       -0.2363
     19 H          -4.3583    2.2278    1.5473 H       1  LIG1        0.0662
     20 S          -7.1460   -0.0170   -1.9208 S.3     1  LIG1       -0.1227
     21 H          -6.4569   -1.0235   -1.3516 H       1  LIG1        0.1086
     22 O          -5.8195    4.2735    1.8559 O.3     1  LIG1       -0.5046
     23 H          -6.5716    4.8767    1.9274 H       1  LIG1        0.2922
     24 C          -9.5520    4.3378    0.0951 C.ar    1  LIG1        0.1042
     25 C          -8.1438    4.4556    0.0505 C.ar    1  LIG1        0.0390
     26 C          -7.6250    5.7459   -0.0124 C.ar    1  LIG1       -0.0062
     27 C          -8.4583    6.8583   -0.0068 C.ar    1  LIG1        0.1435
     28 C          -9.8391    6.6445    0.0654 C.ar    1  LIG1        0.1162
     29 N         -10.3355    5.4073    0.1183 N.ar    1  LIG1       -0.2363
     30 H          -6.5546    5.9128   -0.0758 H       1  LIG1        0.0662
     31 S         -10.4523    2.8104    0.1877 S.3     1  LIG1       -0.1227
     32 H          -9.4734    2.0430   -0.3265 H       1  LIG1        0.1086
     33 O          -7.8716    8.0780   -0.0581 O.3     1  LIG1       -0.5046
     34 H          -8.5409    8.7642    0.0703 H       1  LIG1        0.2922
     35 C         -11.8119    7.9784    1.0185 C.ar    1  LIG1        0.1034
     36 C         -10.7902    7.7898    0.0613 C.ar    1  LIG1        0.0390
     37 C         -10.6622    8.7543   -0.9374 C.ar    1  LIG1       -0.0068
     38 C         -11.4908    9.8699   -0.9434 C.ar    1  LIG1        0.1356
     39 C         -12.4267    9.9841    0.0765 C.ar    1  LIG1        0.0702
     40 N         -12.5836    9.0584    1.0144 N.ar    1  LIG1       -0.2447
     41 H          -9.9303    8.6409   -1.7310 H       1  LIG1        0.0662
     42 H         -13.0846   10.8513    0.1311 H       1  LIG1        0.0867
     43 S         -12.1600    6.8665    2.3616 S.3     1  LIG1       -0.1228
     44 H         -11.6739    5.7668    1.7595 H       1  LIG1        0.1086
     45 O         -11.3378   10.7849   -1.9325 O.3     1  LIG1       -0.5052
     46 H         -11.9900   11.4885   -1.8286 H       1  LIG1        0.2922
@<TRIPOS>BOND
     1    45    46    1
     2    45    38    1
     3    20    21    1
     4    20    13    1
     5    41    37    1
     6    38    37   ar
     7    38    39   ar
     8    37    36   ar
     9    13    18   ar
    10    13    14   ar
    11    18    17   ar
    12    12    11    1
    13    11     4    1
    14    32    31    1
    15     7     3    1
    16     3     4   ar
    17     3     2   ar
    18     4     5   ar
    19     2     8    1
    20     2     1   ar
    21     5    14    1
    22     5     6   ar
    23    30    26    1
    24    10     9    1
    25    33    27    1
    26    33    34    1
    27     1     6   ar
    28     1     9    1
    29    26    27   ar
    30    26    25   ar
    31    14    15   ar
    32    27    28   ar
    33    25    17    1
    34    25    24   ar
    35    36    28    1
    36    36    35   ar
    37    28    29   ar
    38    39    42    1
    39    39    40   ar
    40    17    16   ar
    41    24    29   ar
    42    24    31    1
    43    15    16   ar
    44    15    19    1
    45    16    22    1
    46    40    35   ar
    47    35    43    1
    48    44    43    1
    49    22    23    1
