@<TRIPOS>MOLECULE
mol_data/opt/cam/geoms/mol2/6gf6gf6gf-6gf.out
 46 49 0 0 0
SMALL
GASTEIGER

@<TRIPOS>ATOM
      1 C          -3.9039   -2.1044   -0.5091 C.ar    1  LIG1        0.0949
      2 C          -2.5912   -1.9615   -0.0499 C.ar    1  LIG1       -0.0265
      3 C          -2.2142   -0.7432    0.4752 C.ar    1  LIG1       -0.0155
      4 C          -3.1291    0.3076    0.5101 C.ar    1  LIG1        0.1429
      5 C          -4.4127    0.0898   -0.0049 C.ar    1  LIG1        0.1161
      6 N          -4.7727   -1.1080   -0.4810 N.ar    1  LIG1       -0.2370
      7 H          -1.2179   -0.5782    0.8698 H       1  LIG1        0.0655
      8 H          -1.8887   -2.7854   -0.0912 H       1  LIG1        0.0645
      9 S          -4.5519   -3.6175   -1.1854 S.3     1  LIG1       -0.1234
     10 H          -3.4744   -4.3759   -0.9265 H       1  LIG1        0.1086
     11 O          -2.7111    1.4780    1.0508 O.3     1  LIG1       -0.5046
     12 H          -3.4618    2.0785    1.1501 H       1  LIG1        0.2922
     13 C          -6.7488    1.0756    0.4078 C.ar    1  LIG1        0.1042
     14 C          -5.4162    1.1882   -0.0481 C.ar    1  LIG1        0.0390
     15 C          -5.0416    2.4184   -0.5804 C.ar    1  LIG1       -0.0062
     16 C          -5.9230    3.4937   -0.6002 C.ar    1  LIG1        0.1435
     17 C          -7.1969    3.3116   -0.0497 C.ar    1  LIG1        0.1162
     18 N          -7.5717    2.1138    0.4048 N.ar    1  LIG1       -0.2363
     19 H          -4.0567    2.5585   -1.0143 H       1  LIG1        0.0662
     20 S          -7.4807   -0.3979    1.0765 S.3     1  LIG1       -0.1227
     21 H          -6.6501   -1.2521    0.4503 H       1  LIG1        0.1086
     22 O          -5.4840    4.6470   -1.1589 O.3     1  LIG1       -0.5046
     23 H          -6.2204    5.2673   -1.2464 H       1  LIG1        0.2922
     24 C          -9.5273    4.3527   -0.3444 C.ar    1  LIG1        0.1042
     25 C          -8.1681    4.4346    0.0349 C.ar    1  LIG1        0.0390
     26 C          -7.7306    5.6618    0.5275 C.ar    1  LIG1       -0.0062
     27 C          -8.5784    6.7616    0.5784 C.ar    1  LIG1        0.1435
     28 C          -9.8850    6.6082    0.0992 C.ar    1  LIG1        0.1162
     29 N         -10.3180    5.4165   -0.3143 N.ar    1  LIG1       -0.2363
     30 H          -6.7206    5.7805    0.9067 H       1  LIG1        0.0662
     31 S         -10.3432    2.8948   -0.9440 S.3     1  LIG1       -0.1227
     32 H          -9.4926    2.0213   -0.3717 H       1  LIG1        0.1086
     33 O          -8.0801    7.9104    1.0951 O.3     1  LIG1       -0.5046
     34 H          -8.7937    8.5547    1.1985 H       1  LIG1        0.2922
     35 C         -12.1482    7.7364    0.5464 C.ar    1  LIG1        0.1034
     36 C         -10.8248    7.7610    0.0490 C.ar    1  LIG1        0.0390
     37 C         -10.3744    8.9554   -0.5136 C.ar    1  LIG1       -0.0068
     38 C         -11.1959   10.0751   -0.5353 C.ar    1  LIG1        0.1356
     39 C         -12.4596    9.9574    0.0288 C.ar    1  LIG1        0.0702
     40 N         -12.9155    8.8209    0.5387 N.ar    1  LIG1       -0.2447
     41 H          -9.3856    9.0245   -0.9556 H       1  LIG1        0.0662
     42 H         -13.1353   10.8122    0.0591 H       1  LIG1        0.0867
     43 S         -12.9388    6.3288    1.2870 S.3     1  LIG1       -0.1228
     44 H         -12.1650    5.4028    0.6918 H       1  LIG1        0.1086
     45 O         -10.7220   11.2166   -1.0948 O.3     1  LIG1       -0.5052
     46 H         -11.4011   11.9013   -1.0602 H       1  LIG1        0.2922
@<TRIPOS>BOND
     1    23    22    1
     2     9    10    1
     3     9     1    1
     4    22    16    1
     5    45    46    1
     6    45    38    1
     7    19    15    1
     8    41    37    1
     9    31    32    1
    10    31    24    1
    11    16    15   ar
    12    16    17   ar
    13    15    14   ar
    14    38    37   ar
    15    38    39   ar
    16    37    36   ar
    17     1     6   ar
    18     1     2   ar
    19     6     5   ar
    20    24    29   ar
    21    24    25   ar
    22    29    28   ar
    23     8     2    1
    24     2     3   ar
    25    17    25    1
    26    17    18   ar
    27    14     5    1
    28    14    13   ar
    29     5     4   ar
    30    39    42    1
    31    39    40   ar
    32    25    26   ar
    33    36    28    1
    34    36    35   ar
    35    28    27   ar
    36    18    13   ar
    37    13    20    1
    38    21    20    1
    39     3     4   ar
    40     3     7    1
    41     4    11    1
    42    26    27   ar
    43    26    30    1
    44    40    35   ar
    45    35    43    1
    46    27    33    1
    47    44    43    1
    48    11    12    1
    49    33    34    1
