@<TRIPOS>MOLECULE
mol_data/opt/cam/geoms/mol2/6gf6gf-6gf.out
 35 37 0 0 0
SMALL
GASTEIGER

@<TRIPOS>ATOM
      1 C          -4.1753   -2.1195    0.3179 C.ar    1  LIG1        0.0949
      2 C          -2.8240   -2.0099   -0.0220 C.ar    1  LIG1       -0.0265
      3 C          -2.3475   -0.7736   -0.4055 C.ar    1  LIG1       -0.0155
      4 C          -3.2057    0.3242   -0.4189 C.ar    1  LIG1        0.1429
      5 C          -4.5369    0.1336   -0.0281 C.ar    1  LIG1        0.1161
      6 N          -4.9911   -1.0787    0.3102 N.ar    1  LIG1       -0.2370
      7 H          -1.3151   -0.6302   -0.7042 H       1  LIG1        0.0655
      8 H          -2.1671   -2.8713    0.0013 H       1  LIG1        0.0645
      9 S          -4.9484   -3.6468    0.8050 S.3     1  LIG1       -0.1234
     10 H          -3.8929   -4.4397    0.5594 H       1  LIG1        0.1086
     11 O          -2.6905    1.5120   -0.8195 O.3     1  LIG1       -0.5046
     12 H          -3.4018    2.1590   -0.9174 H       1  LIG1        0.2922
     13 C          -6.7778    1.2783   -0.5437 C.ar    1  LIG1        0.1042
     14 C          -5.4872    1.2776    0.0305 C.ar    1  LIG1        0.0390
     15 C          -5.1025    2.4357    0.7006 C.ar    1  LIG1       -0.0062
     16 C          -5.9304    3.5518    0.7423 C.ar    1  LIG1        0.1435
     17 C          -7.1587    3.4867    0.0742 C.ar    1  LIG1        0.1162
     18 N          -7.5489    2.3556   -0.5161 N.ar    1  LIG1       -0.2363
     19 H          -4.1542    2.4837    1.2264 H       1  LIG1        0.0662
     20 S          -7.5162   -0.0896   -1.4034 S.3     1  LIG1       -0.1227
     21 H          -6.7816   -1.0397   -0.7962 H       1  LIG1        0.1086
     22 O          -5.4903    4.6293    1.4351 O.3     1  LIG1       -0.5046
     23 H          -6.2004    5.2823    1.5025 H       1  LIG1        0.2922
     24 C          -9.4427    4.6337    0.3234 C.ar    1  LIG1        0.1034
     25 C          -8.0636    4.6668    0.0134 C.ar    1  LIG1        0.0390
     26 C          -7.5213    5.8963   -0.3607 C.ar    1  LIG1       -0.0068
     27 C          -8.3142    7.0367   -0.3807 C.ar    1  LIG1        0.1356
     28 C          -9.6451    6.9022   -0.0072 C.ar    1  LIG1        0.0702
     29 N         -10.1847    5.7356    0.3206 N.ar    1  LIG1       -0.2447
     30 H          -6.4801    5.9789   -0.6558 H       1  LIG1        0.0662
     31 H         -10.3048    7.7696    0.0167 H       1  LIG1        0.0867
     32 S         -10.3493    3.1844    0.8066 S.3     1  LIG1       -0.1228
     33 H          -9.5132    2.2985    0.2356 H       1  LIG1        0.1086
     34 O          -7.7497    8.2126   -0.7541 O.3     1  LIG1       -0.5052
     35 H          -8.4159    8.9107   -0.7419 H       1  LIG1        0.2922
@<TRIPOS>BOND
     1    20    21    1
     2    20    13    1
     3    12    11    1
     4    11     4    1
     5    34    35    1
     6    34    27    1
     7     7     3    1
     8    30    26    1
     9    13    18   ar
    10    13    14   ar
    11    18    17   ar
    12     4     3   ar
    13     4     5   ar
    14     3     2   ar
    15    27    26   ar
    16    27    28   ar
    17    26    25   ar
    18     5    14    1
    19     5     6   ar
    20     2     8    1
    21     2     1   ar
    22    28    31    1
    23    28    29   ar
    24    25    17    1
    25    25    24   ar
    26    14    15   ar
    27    17    16   ar
    28    33    32    1
    29     6     1   ar
    30     1     9    1
    31    29    24   ar
    32    24    32    1
    33    10     9    1
    34    15    16   ar
    35    15    19    1
    36    16    22    1
    37    22    23    1
