@<TRIPOS>MOLECULE
mol_data/opt/cam/geoms/mol2/6gf6gf6gf6gf.out
 46 49 0 0 0
SMALL
GASTEIGER

@<TRIPOS>ATOM
      1 C          -3.5385   -1.7031   -1.2735 C.ar    1  LIG1        0.0949
      2 C          -2.6732   -2.0271   -0.2242 C.ar    1  LIG1       -0.0265
      3 C          -2.7508   -1.2852    0.9358 C.ar    1  LIG1       -0.0155
      4 C          -3.6565   -0.2293    1.0224 C.ar    1  LIG1        0.1429
      5 C          -4.4579    0.0525   -0.0906 C.ar    1  LIG1        0.1161
      6 N          -4.3953   -0.6988   -1.1964 N.ar    1  LIG1       -0.2370
      7 H          -2.1249   -1.5044    1.7935 H       1  LIG1        0.0655
      8 H          -1.9688   -2.8460   -0.3092 H       1  LIG1        0.0645
      9 S          -3.5853   -2.5836   -2.8193 S.3     1  LIG1       -0.1234
     10 H          -2.7215   -3.5513   -2.4720 H       1  LIG1        0.1086
     11 O          -3.7024    0.4545    2.1916 O.3     1  LIG1       -0.5046
     12 H          -4.4604    1.0542    2.1917 H       1  LIG1        0.2922
     13 C          -6.7642    1.1236   -0.4552 C.ar    1  LIG1        0.1042
     14 C          -5.4024    1.2031   -0.0847 C.ar    1  LIG1        0.0390
     15 C          -4.9401    2.4471    0.3321 C.ar    1  LIG1       -0.0062
     16 C          -5.7886    3.5471    0.3965 C.ar    1  LIG1        0.1435
     17 C          -7.1249    3.3693    0.0232 C.ar    1  LIG1        0.1162
     18 N          -7.5668    2.1751   -0.3784 N.ar    1  LIG1       -0.2363
     19 H          -3.9010    2.5888    0.6112 H       1  LIG1        0.0662
     20 S          -7.5906   -0.3527   -0.9964 S.3     1  LIG1       -0.1227
     21 H          -6.4788   -0.9873   -1.4092 H       1  LIG1        0.1086
     22 O          -5.2580    4.7155    0.8297 O.3     1  LIG1       -0.5046
     23 H          -5.9622    5.3631    0.9690 H       1  LIG1        0.2922
     24 C          -9.3561    4.4703    0.6549 C.ar    1  LIG1        0.1042
     25 C          -8.0853    4.5058    0.0392 C.ar    1  LIG1        0.0390
     26 C          -7.7150    5.7035   -0.5650 C.ar    1  LIG1       -0.0062
     27 C          -8.5529    6.8127   -0.5341 C.ar    1  LIG1        0.1435
     28 C          -9.7827    6.6906    0.1221 C.ar    1  LIG1        0.1162
     29 N         -10.1399    5.5382    0.6925 N.ar    1  LIG1       -0.2363
     30 H          -6.7659    5.7955   -1.0834 H       1  LIG1        0.0662
     31 S         -10.0398    3.0617    1.4953 S.3     1  LIG1       -0.1227
     32 H          -9.3191    2.1443    0.8260 H       1  LIG1        0.1086
     33 O          -8.1117    7.9441   -1.1324 O.3     1  LIG1       -0.5046
     34 H          -8.7230    8.6695   -0.9442 H       1  LIG1        0.2922
     35 C         -11.3171    8.3256    1.3678 C.ar    1  LIG1        0.1034
     36 C         -10.7341    7.8343    0.1788 C.ar    1  LIG1        0.0390
     37 C         -11.0644    8.4813   -1.0114 C.ar    1  LIG1       -0.0068
     38 C         -11.9017    9.5904   -0.9960 C.ar    1  LIG1        0.1356
     39 C         -12.3766   10.0234    0.2354 C.ar    1  LIG1        0.0702
     40 N         -12.0989    9.3983    1.3726 N.ar    1  LIG1       -0.2447
     41 H         -10.6897    8.1208   -1.9642 H       1  LIG1        0.0662
     42 H         -13.0171   10.9024    0.3048 H       1  LIG1        0.0867
     43 S         -11.0472    7.6409    2.9867 S.3     1  LIG1       -0.1228
     44 H         -10.7634    6.3962    2.5644 H       1  LIG1        0.1086
     45 O         -12.2017   10.1913   -2.1738 O.3     1  LIG1       -0.5052
     46 H         -12.8075   10.9265   -2.0193 H       1  LIG1        0.2922
@<TRIPOS>BOND
     1     9    10    1
     2     9     1    1
     3    45    46    1
     4    45    38    1
     5    41    37    1
     6    21    20    1
     7     1     6   ar
     8     1     2   ar
     9     6     5   ar
    10    33    34    1
    11    33    27    1
    12    30    26    1
    13    37    38   ar
    14    37    36   ar
    15    20    13    1
    16    38    39   ar
    17    26    27   ar
    18    26    25   ar
    19    27    28   ar
    20    13    18   ar
    21    13    14   ar
    22    18    17   ar
    23     8     2    1
    24     2     3   ar
    25     5    14    1
    26     5     4   ar
    27    14    15   ar
    28    17    25    1
    29    17    16   ar
    30    25    24   ar
    31    28    36    1
    32    28    29   ar
    33    36    35   ar
    34    39    42    1
    35    39    40   ar
    36    15    16   ar
    37    15    19    1
    38    16    22    1
    39    24    29   ar
    40    24    31    1
    41    32    31    1
    42    22    23    1
    43     3     4   ar
    44     3     7    1
    45     4    11    1
    46    35    40   ar
    47    35    43    1
    48    11    12    1
    49    44    43    1
