@<TRIPOS>MOLECULE
mol_data/opt/cam/geoms/mol2/6gg.out
 13 13 0 0 0
SMALL
GASTEIGER

@<TRIPOS>ATOM
      1 C          -4.5559   -2.0347    0.0001 C.ar    1  LIG1        0.0940
      2 C          -3.1597   -2.0173   -0.0000 C.ar    1  LIG1       -0.0290
      3 C          -2.5162   -0.7930   -0.0002 C.ar    1  LIG1       -0.0446
      4 C          -3.2712    0.3793   -0.0003 C.ar    1  LIG1        0.0229
      5 C          -4.6575    0.2468   -0.0002 C.ar    1  LIG1        0.0420
      6 N          -5.2838   -0.9252   -0.0000 N.ar    1  LIG1       -0.2479
      7 H          -1.4315   -0.7500   -0.0002 H       1  LIG1        0.0630
      8 H          -2.5872   -2.9374    0.0001 H       1  LIG1        0.0644
      9 H          -5.2971    1.1269   -0.0003 H       1  LIG1        0.0841
     10 S          -5.5192   -3.5289    0.0003 S.3     1  LIG1       -0.1234
     11 H          -4.4820   -4.3825    0.0003 H       1  LIG1        0.1086
     12 S          -2.4415    1.9477   -0.0005 S.3     1  LIG1       -0.1412
     13 H          -3.5485    2.7075   -0.0004 H       1  LIG1        0.1072
@<TRIPOS>BOND
     1    12    13    1
     2    12     4    1
     3     4     5   ar
     4     4     3   ar
     5     9     5    1
     6     7     3    1
     7     5     6   ar
     8     3     2   ar
     9     6     1   ar
    10     2     1   ar
    11     2     8    1
    12     1    10    1
    13    10    11    1
