@<TRIPOS>MOLECULE
mol_data/opt/cam/geoms/mol2/6gh.out
 14 14 0 0 0
SMALL
GASTEIGER

@<TRIPOS>ATOM
      1 C          -4.5536   -2.0195    0.0086 C.ar    1  LIG1        0.0940
      2 C          -3.1588   -2.0092   -0.0062 C.ar    1  LIG1       -0.0283
      3 C          -2.5043   -0.7907   -0.0381 C.ar    1  LIG1       -0.0371
      4 C          -3.2451    0.3932   -0.0567 C.ar    1  LIG1        0.0430
      5 C          -4.6362    0.2622   -0.0403 C.ar    1  LIG1        0.0494
      6 N          -5.2703   -0.9039   -0.0082 N.ar    1  LIG1       -0.2472
      7 H          -1.4187   -0.7540   -0.0442 H       1  LIG1        0.0637
      8 H          -2.5918   -2.9330    0.0065 H       1  LIG1        0.0644
      9 H          -5.2637    1.1521   -0.0518 H       1  LIG1        0.0849
     10 S          -5.5292   -3.5118    0.0475 S.3     1  LIG1       -0.1234
     11 H          -4.4980   -4.3724    0.0639 H       1  LIG1        0.1086
     12 N          -2.6363    1.6432   -0.0366 N.pl3   1  LIG1       -0.3568
     13 H          -1.7073    1.6788   -0.4293 H       1  LIG1        0.1424
     14 H          -3.2131    2.4062   -0.3596 H       1  LIG1        0.1424
@<TRIPOS>BOND
     1    13    12    1
     2    14    12    1
     3     4     5   ar
     4     4     3   ar
     5     4    12    1
     6     9     5    1
     7     7     3    1
     8     5     6   ar
     9     3     2   ar
    10     6     1   ar
    11     2     8    1
    12     2     1   ar
    13     1    10    1
    14    10    11    1
