@<TRIPOS>MOLECULE
mol_data/opt/cam/geoms/mol2/6gh6gh6gh.out
 38 40 0 0 0
SMALL
GASTEIGER

@<TRIPOS>ATOM
      1 C          -3.9986   -1.8133    1.1981 C.ar    1  LIG1        0.0947
      2 C          -2.8674   -2.0260    0.4101 C.ar    1  LIG1       -0.0283
      3 C          -2.5857   -1.1099   -0.5829 C.ar    1  LIG1       -0.0365
      4 C          -3.4035    0.0082   -0.7733 C.ar    1  LIG1        0.0510
      5 C          -4.5002    0.1529    0.0965 C.ar    1  LIG1        0.0954
      6 N          -4.7776   -0.7566    1.0349 N.ar    1  LIG1       -0.2388
      7 H          -1.7228   -1.2549   -1.2267 H       1  LIG1        0.0637
      8 H          -2.2300   -2.8895    0.5595 H       1  LIG1        0.0644
      9 S          -4.5207   -2.9122    2.4993 S.3     1  LIG1       -0.1234
     10 H          -3.6051   -3.8678    2.2711 H       1  LIG1        0.1086
     11 N          -3.1039    0.9404   -1.7619 N.pl3   1  LIG1       -0.3563
     12 H          -2.5538    0.5748   -2.5261 H       1  LIG1        0.1424
     13 H          -3.8920    1.4820   -2.0881 H       1  LIG1        0.1424
     14 C          -6.8026    1.2628   -0.1036 C.ar    1  LIG1        0.1040
     15 C          -5.4009    1.3369    0.0138 C.ar    1  LIG1        0.0356
     16 C          -4.8421    2.6095    0.0428 C.ar    1  LIG1       -0.0272
     17 C          -5.6238    3.7600   -0.0571 C.ar    1  LIG1        0.0517
     18 C          -7.0094    3.5733   -0.2015 C.ar    1  LIG1        0.0954
     19 N          -7.5462    2.3534   -0.2240 N.ar    1  LIG1       -0.2381
     20 H          -3.7643    2.7087    0.1346 H       1  LIG1        0.0644
     21 S          -7.7420   -0.2477   -0.1862 S.3     1  LIG1       -0.1227
     22 H          -6.8475   -1.0042    0.4725 H       1  LIG1        0.1086
     23 N          -5.0388    5.0201    0.0134 N.pl3   1  LIG1       -0.3563
     24 H          -4.0591    5.0425   -0.2306 H       1  LIG1        0.1424
     25 H          -5.5646    5.7588   -0.4317 H       1  LIG1        0.1424
     26 C          -8.8594    4.9051   -1.3663 C.ar    1  LIG1        0.1033
     27 C          -7.9386    4.7332   -0.3148 C.ar    1  LIG1        0.0355
     28 C          -7.9027    5.7156    0.6724 C.ar    1  LIG1       -0.0278
     29 C          -8.7268    6.8375    0.5981 C.ar    1  LIG1        0.0436
     30 C          -9.5591    6.9226   -0.5197 C.ar    1  LIG1        0.0495
     31 N          -9.6253    5.9864   -1.4555 N.ar    1  LIG1       -0.2465
     32 H          -7.2192    5.6015    1.5088 H       1  LIG1        0.0644
     33 H         -10.2099    7.7860   -0.6510 H       1  LIG1        0.0849
     34 S          -9.0652    3.7685   -2.7250 S.3     1  LIG1       -0.1228
     35 H          -8.7134    2.6678   -2.0383 H       1  LIG1        0.1086
     36 N          -8.7559    7.7970    1.6007 N.pl3   1  LIG1       -0.3568
     37 H          -7.9265    7.8642    2.1710 H       1  LIG1        0.1424
     38 H          -9.1176    8.6996    1.3316 H       1  LIG1        0.1424
@<TRIPOS>BOND
     1    34    35    1
     2    34    26    1
     3    12    11    1
     4    13    11    1
     5    11     4    1
     6    31    26   ar
     7    31    30   ar
     8    26    27   ar
     9     7     3    1
    10     4     3   ar
    11     4     5   ar
    12    33    30    1
    13     3     2   ar
    14    30    29   ar
    15    25    23    1
    16    27    18    1
    17    27    28   ar
    18    24    23    1
    19    19    18   ar
    20    19    14   ar
    21    18    17   ar
    22    21    14    1
    23    21    22    1
    24    14    15   ar
    25    17    23    1
    26    17    16   ar
    27    15    16   ar
    28    15     5    1
    29    16    20    1
    30     5     6   ar
    31     2     8    1
    32     2     1   ar
    33    29    28   ar
    34    29    36    1
    35    28    32    1
    36     6     1   ar
    37     1     9    1
    38    38    36    1
    39    36    37    1
    40    10     9    1
