@<TRIPOS>MOLECULE
mol_data/opt/cam/geoms/mol2/6gh6gh.out
 26 27 0 0 0
SMALL
GASTEIGER

@<TRIPOS>ATOM
      1 C          -4.3623   -1.9747    0.6446 C.ar    1  LIG1        0.0947
      2 C          -3.0238   -2.0213    0.2562 C.ar    1  LIG1       -0.0283
      3 C          -2.4768   -0.8953   -0.3255 C.ar    1  LIG1       -0.0365
      4 C          -3.2445    0.2601   -0.4986 C.ar    1  LIG1        0.0510
      5 C          -4.5760    0.2181   -0.0449 C.ar    1  LIG1        0.0954
      6 N          -5.0996   -0.8866    0.4931 N.ar    1  LIG1       -0.2388
      7 H          -1.4414   -0.9020   -0.6541 H       1  LIG1        0.0637
      8 H          -2.4268   -2.9151    0.3944 H       1  LIG1        0.0644
      9 S          -5.2275   -3.3459    1.3837 S.3     1  LIG1       -0.1234
     10 H          -4.2351   -4.2419    1.2561 H       1  LIG1        0.1086
     11 N          -2.6835    1.4014   -1.0641 N.pl3   1  LIG1       -0.3563
     12 H          -1.9009    1.2211   -1.6766 H       1  LIG1        0.1424
     13 H          -3.3495    2.0398   -1.4757 H       1  LIG1        0.1424
     14 C          -6.7259    1.4166   -0.7551 C.ar    1  LIG1        0.1033
     15 C          -5.4599    1.4149   -0.1376 C.ar    1  LIG1        0.0355
     16 C          -5.0176    2.6128    0.4200 C.ar    1  LIG1       -0.0278
     17 C          -5.7890    3.7708    0.3390 C.ar    1  LIG1        0.0436
     18 C          -7.0030    3.6598   -0.3415 C.ar    1  LIG1        0.0495
     19 N          -7.4517    2.5246   -0.8570 N.ar    1  LIG1       -0.2465
     20 H          -4.0546    2.6395    0.9217 H       1  LIG1        0.0644
     21 H          -7.6434    4.5327   -0.4609 H       1  LIG1        0.0849
     22 S          -7.4807    0.0021   -1.5336 S.3     1  LIG1       -0.1228
     23 H          -6.8576   -0.9230   -0.7841 H       1  LIG1        0.1086
     24 N          -5.3987    4.9597    0.9411 N.pl3   1  LIG1       -0.3568
     25 H          -4.4073    5.0715    1.0910 H       1  LIG1        0.1424
     26 H          -5.8317    5.7949    0.5760 H       1  LIG1        0.1424
@<TRIPOS>BOND
     1    12    11    1
     2    22    23    1
     3    22    14    1
     4    13    11    1
     5    11     4    1
     6    19    14   ar
     7    19    18   ar
     8    14    15   ar
     9     7     3    1
    10     4     3   ar
    11     4     5   ar
    12    21    18    1
    13    18    17   ar
    14     3     2   ar
    15    15     5    1
    16    15    16   ar
    17     5     6   ar
    18     2     8    1
    19     2     1   ar
    20    17    16   ar
    21    17    24    1
    22    16    20    1
    23     6     1   ar
    24    26    24    1
    25     1     9    1
    26    24    25    1
    27    10     9    1
