@<TRIPOS>MOLECULE
mol_data/opt/cam/geoms/mol2/6gh6gh-6gh-6gh.out
 50 53 0 0 0
SMALL
GASTEIGER

@<TRIPOS>ATOM
      1 C          -3.4907   -1.5602    1.5305 C.ar    1  LIG1        0.0947
      2 C          -2.6589   -1.9967    0.4990 C.ar    1  LIG1       -0.0283
      3 C          -2.7405   -1.3525   -0.7186 C.ar    1  LIG1       -0.0365
      4 C          -3.6187   -0.2792   -0.8993 C.ar    1  LIG1        0.0510
      5 C          -4.3886    0.1096    0.2124 C.ar    1  LIG1        0.0954
      6 N          -4.3208   -0.5417    1.3771 N.ar    1  LIG1       -0.2388
      7 H          -2.1204   -1.6793   -1.5484 H       1  LIG1        0.0637
      8 H          -1.9743   -2.8251    0.6387 H       1  LIG1        0.0644
      9 S          -3.5327   -2.3009    3.1498 S.3     1  LIG1       -0.1234
     10 H          -2.7030   -3.3204    2.8741 H       1  LIG1        0.1086
     11 N          -3.6821    0.3807   -2.1225 N.pl3   1  LIG1       -0.3563
     12 H          -3.3823   -0.1742   -2.9115 H       1  LIG1        0.1424
     13 H          -4.5543    0.8570   -2.3046 H       1  LIG1        0.1424
     14 C          -6.6746    1.2338    0.5044 C.ar    1  LIG1        0.1040
     15 C          -5.3132    1.2760    0.1433 C.ar    1  LIG1        0.0356
     16 C          -4.8249    2.4941   -0.3144 C.ar    1  LIG1       -0.0272
     17 C          -5.6403    3.6201   -0.4294 C.ar    1  LIG1        0.0517
     18 C          -6.9893    3.4623   -0.0682 C.ar    1  LIG1        0.0954
     19 N          -7.4579    2.2948    0.3735 N.ar    1  LIG1       -0.2381
     20 H          -3.7802    2.5667   -0.6025 H       1  LIG1        0.0644
     21 S          -7.5317   -0.2120    1.0910 S.3     1  LIG1       -0.1227
     22 H          -6.4441   -0.8241    1.5900 H       1  LIG1        0.1086
     23 N          -5.1120    4.8337   -0.8567 N.pl3   1  LIG1       -0.3563
     24 H          -4.2571    4.7551   -1.3887 H       1  LIG1        0.1424
     25 H          -5.7761    5.4611   -1.2879 H       1  LIG1        0.1424
     26 C          -9.1781    4.5511   -0.8341 C.ar    1  LIG1        0.1040
     27 C          -7.9506    4.5978   -0.1455 C.ar    1  LIG1        0.0356
     28 C          -7.6300    5.7958    0.4823 C.ar    1  LIG1       -0.0272
     29 C          -8.4701    6.9074    0.4184 C.ar    1  LIG1        0.0517
     30 C          -9.6537    6.7652   -0.3262 C.ar    1  LIG1        0.0954
     31 N          -9.9653    5.6135   -0.9213 N.ar    1  LIG1       -0.2381
     32 H          -6.6941    5.8703    1.0284 H       1  LIG1        0.0644
     33 S          -9.7882    3.1319   -1.7217 S.3     1  LIG1       -0.1227
     34 H          -9.1551    2.2191   -0.9642 H       1  LIG1        0.1086
     35 N          -8.1421    8.0800    1.0898 N.pl3   1  LIG1       -0.3563
     36 H          -7.1588    8.1893    1.2917 H       1  LIG1        0.1424
     37 H          -8.5562    8.9195    0.7106 H       1  LIG1        0.1424
     38 C         -11.0758    8.3915   -1.6987 C.ar    1  LIG1        0.1033
     39 C         -10.6205    7.8913   -0.4637 C.ar    1  LIG1        0.0355
     40 C         -11.1081    8.4972    0.6921 C.ar    1  LIG1       -0.0278
     41 C         -11.9870    9.5769    0.6194 C.ar    1  LIG1        0.0436
     42 C         -12.3234   10.0176   -0.6622 C.ar    1  LIG1        0.0495
     43 N         -11.8901    9.4379   -1.7725 N.ar    1  LIG1       -0.2465
     44 H         -10.7937    8.1200    1.6609 H       1  LIG1        0.0644
     45 H         -12.9859   10.8727   -0.7886 H       1  LIG1        0.0849
     46 S         -10.5776    7.7573   -3.2895 S.3     1  LIG1       -0.1228
     47 H         -10.3759    6.4941   -2.8764 H       1  LIG1        0.1086
     48 N         -12.5367   10.1562    1.7545 N.pl3   1  LIG1       -0.3568
     49 H         -12.0139   10.0360    2.6088 H       1  LIG1        0.1424
     50 H         -12.8864   11.0957    1.6404 H       1  LIG1        0.1424
@<TRIPOS>BOND
     1    46    47    1
     2    46    38    1
     3    12    11    1
     4    13    11    1
     5    11     4    1
     6    43    38   ar
     7    43    42   ar
     8    33    34    1
     9    33    26    1
    10    38    39   ar
    11     7     3    1
    12    24    23    1
    13    25    23    1
    14    31    26   ar
    15    31    30   ar
    16     4     3   ar
    17     4     5   ar
    18    23    17    1
    19    26    27   ar
    20    45    42    1
    21     3     2   ar
    22    42    41   ar
    23    20    16    1
    24    39    30    1
    25    39    40   ar
    26    17    16   ar
    27    17    18   ar
    28    30    29   ar
    29    16    15   ar
    30    27    18    1
    31    27    28   ar
    32    18    19   ar
    33    15     5    1
    34    15    14   ar
    35     5     6   ar
    36    19    14   ar
    37    29    28   ar
    38    29    35    1
    39    28    32    1
    40     2     8    1
    41     2     1   ar
    42    14    21    1
    43    41    40   ar
    44    41    48    1
    45    40    44    1
    46    37    35    1
    47    35    36    1
    48    21    22    1
    49     6     1   ar
    50     1     9    1
    51    50    48    1
    52    48    49    1
    53    10     9    1
