@<TRIPOS>MOLECULE
mol_data/opt/cam/geoms/mol2/6gh6gh6gh6gh.out
 50 53 0 0 0
SMALL
GASTEIGER

@<TRIPOS>ATOM
      1 C          -3.4785   -1.5533    1.5303 C.ar    1  LIG1        0.0947
      2 C          -2.6547   -1.9946    0.4944 C.ar    1  LIG1       -0.0283
      3 C          -2.7457   -1.3560   -0.7254 C.ar    1  LIG1       -0.0365
      4 C          -3.6252   -0.2835   -0.9043 C.ar    1  LIG1        0.0510
      5 C          -4.3866    0.1104    0.2115 C.ar    1  LIG1        0.0954
      6 N          -4.3098   -0.5356    1.3786 N.ar    1  LIG1       -0.2388
      7 H          -2.1320   -1.6866   -1.5585 H       1  LIG1        0.0637
      8 H          -1.9690   -2.8223    0.6326 H       1  LIG1        0.0644
      9 S          -3.5081   -2.2866    3.1532 S.3     1  LIG1       -0.1234
     10 H          -2.6805   -3.3073    2.8758 H       1  LIG1        0.1086
     11 N          -3.6981    0.3708   -2.1301 N.pl3   1  LIG1       -0.3563
     12 H          -3.4044   -0.1877   -2.9187 H       1  LIG1        0.1424
     13 H          -4.5717    0.8463   -2.3075 H       1  LIG1        0.1424
     14 C          -6.6703    1.2360    0.5159 C.ar    1  LIG1        0.1040
     15 C          -5.3117    1.2765    0.1442 C.ar    1  LIG1        0.0356
     16 C          -4.8269    2.4925   -0.3229 C.ar    1  LIG1       -0.0272
     17 C          -5.6432    3.6179   -0.4368 C.ar    1  LIG1        0.0517
     18 C          -6.9894    3.4619   -0.0645 C.ar    1  LIG1        0.0954
     19 N          -7.4546    2.2964    0.3862 N.ar    1  LIG1       -0.2381
     20 H          -3.7845    2.5637   -0.6194 H       1  LIG1        0.0644
     21 S          -7.5228   -0.2071    1.1157 S.3     1  LIG1       -0.1227
     22 H          -6.4314   -0.8169    1.6092 H       1  LIG1        0.1086
     23 N          -5.1182    4.8295   -0.8738 N.pl3   1  LIG1       -0.3563
     24 H          -4.2675    4.7485   -1.4119 H       1  LIG1        0.1424
     25 H          -5.7857    5.4550   -1.3026 H       1  LIG1        0.1424
     26 C          -9.1841    4.5472   -0.8185 C.ar    1  LIG1        0.1040
     27 C          -7.9512    4.5970   -0.1396 C.ar    1  LIG1        0.0356
     28 C          -7.6259    5.7978    0.4802 C.ar    1  LIG1       -0.0272
     29 C          -8.4665    6.9092    0.4177 C.ar    1  LIG1        0.0517
     30 C          -9.6558    6.7636   -0.3171 C.ar    1  LIG1        0.0954
     31 N          -9.9719    5.6092   -0.9044 N.ar    1  LIG1       -0.2381
     32 H          -6.6858    5.8749    1.0188 H       1  LIG1        0.0644
     33 S          -9.8010    3.1239   -1.6948 S.3     1  LIG1       -0.1227
     34 H          -9.1621    2.2146   -0.9380 H       1  LIG1        0.1086
     35 N          -8.1333    8.0849    1.0812 N.pl3   1  LIG1       -0.3563
     36 H          -7.1485    8.1951    1.2750 H       1  LIG1        0.1424
     37 H          -8.5503    8.9226    0.7013 H       1  LIG1        0.1424
     38 C         -11.0885    8.3836   -1.6860 C.ar    1  LIG1        0.1033
     39 C         -10.6236    7.8891   -0.4523 C.ar    1  LIG1        0.0355
     40 C         -11.1023    8.5003    0.7044 C.ar    1  LIG1       -0.0278
     41 C         -11.9817    9.5796    0.6335 C.ar    1  LIG1        0.0436
     42 C         -12.3280   10.0145   -0.6474 C.ar    1  LIG1        0.0495
     43 N         -11.9033    9.4297   -1.7584 N.ar    1  LIG1       -0.2465
     44 H         -10.7805    8.1276    1.6725 H       1  LIG1        0.0644
     45 H         -12.9915   10.8691   -0.7727 H       1  LIG1        0.0849
     46 S         -10.6025    7.7421   -3.2777 S.3     1  LIG1       -0.1228
     47 H         -10.3976    6.4808   -2.8604 H       1  LIG1        0.1086
     48 N         -12.5227   10.1642    1.7702 N.pl3   1  LIG1       -0.3568
     49 H         -11.9933   10.0479    2.6209 H       1  LIG1        0.1424
     50 H         -12.8733   11.1032    1.6545 H       1  LIG1        0.1424
@<TRIPOS>BOND
     1    46    47    1
     2    46    38    1
     3    12    11    1
     4    13    11    1
     5    11     4    1
     6    43    38   ar
     7    43    42   ar
     8    33    34    1
     9    33    26    1
    10    38    39   ar
    11     7     3    1
    12    24    23    1
    13    25    23    1
    14    31    26   ar
    15    31    30   ar
    16     4     3   ar
    17     4     5   ar
    18    23    17    1
    19    26    27   ar
    20    45    42    1
    21     3     2   ar
    22    42    41   ar
    23    20    16    1
    24    39    30    1
    25    39    40   ar
    26    17    16   ar
    27    17    18   ar
    28    16    15   ar
    29    30    29   ar
    30    27    18    1
    31    27    28   ar
    32    18    19   ar
    33    15     5    1
    34    15    14   ar
    35     5     6   ar
    36    19    14   ar
    37    29    28   ar
    38    29    35    1
    39    28    32    1
    40     2     8    1
    41     2     1   ar
    42    14    21    1
    43    41    40   ar
    44    41    48    1
    45    37    35    1
    46    40    44    1
    47    35    36    1
    48    21    22    1
    49     6     1   ar
    50     1     9    1
    51    50    48    1
    52    48    49    1
    53    10     9    1
