@<TRIPOS>MOLECULE
mol_data/opt/cam/geoms/mol2/6gh6gh-6gh6gh-.out
 50 53 0 0 0
SMALL
GASTEIGER

@<TRIPOS>ATOM
      1 C          -3.5037   -1.5699    1.5289 C.ar    1  LIG1        0.0947
      2 C          -2.6651   -2.0014    0.5009 C.ar    1  LIG1       -0.0283
      3 C          -2.7381   -1.3509   -0.7139 C.ar    1  LIG1       -0.0365
      4 C          -3.6147   -0.2762   -0.8951 C.ar    1  LIG1        0.0510
      5 C          -4.3920    0.1070    0.2133 C.ar    1  LIG1        0.0954
      6 N          -4.3324   -0.5504    1.3750 N.ar    1  LIG1       -0.2388
      7 H          -2.1124   -1.6735   -1.5412 H       1  LIG1        0.0637
      8 H          -1.9817   -2.8307    0.6409 H       1  LIG1        0.0644
      9 S          -3.5571   -2.3190    3.1439 S.3     1  LIG1       -0.1234
     10 H          -2.7259   -3.3373    2.8686 H       1  LIG1        0.1086
     11 N          -3.6695    0.3900   -2.1153 N.pl3   1  LIG1       -0.3563
     12 H          -3.3645   -0.1609   -2.9050 H       1  LIG1        0.1424
     13 H          -4.5403    0.8676   -2.3008 H       1  LIG1        0.1424
     14 C          -6.6796    1.2306    0.4955 C.ar    1  LIG1        0.1040
     15 C          -5.3158    1.2741    0.1440 C.ar    1  LIG1        0.0356
     16 C          -4.8239    2.4944   -0.3040 C.ar    1  LIG1       -0.0272
     17 C          -5.6381    3.6213   -0.4188 C.ar    1  LIG1        0.0517
     18 C          -6.9896    3.4622   -0.0677 C.ar    1  LIG1        0.0954
     19 N          -7.4617    2.2925    0.3648 N.ar    1  LIG1       -0.2381
     20 H          -3.7772    2.5681   -0.5846 H       1  LIG1        0.0644
     21 S          -7.5412   -0.2179    1.0687 S.3     1  LIG1       -0.1227
     22 H          -6.4572   -0.8331    1.5720 H       1  LIG1        0.1086
     23 N          -5.1065    4.8369   -0.8362 N.pl3   1  LIG1       -0.3563
     24 H          -4.2480    4.7607   -1.3626 H       1  LIG1        0.1424
     25 H          -5.7674    5.4667   -1.2686 H       1  LIG1        0.1424
     26 C          -9.1727    4.5557   -0.8429 C.ar    1  LIG1        0.1040
     27 C          -7.9499    4.5984   -0.1456 C.ar    1  LIG1        0.0356
     28 C          -7.6333    5.7929    0.4905 C.ar    1  LIG1       -0.0272
     29 C          -8.4726    6.9052    0.4267 C.ar    1  LIG1        0.0517
     30 C          -9.6511    6.7673   -0.3268 C.ar    1  LIG1        0.0954
     31 N          -9.9590    5.6189   -0.9299 N.ar    1  LIG1       -0.2381
     32 H          -6.7011    5.8643    1.0435 H       1  LIG1        0.0644
     33 S          -9.7772    3.1414   -1.7420 S.3     1  LIG1       -0.1227
     34 H          -9.1497    2.2244   -0.9849 H       1  LIG1        0.1086
     35 N          -8.1488    8.0742    1.1064 N.pl3   1  LIG1       -0.3563
     36 H          -7.1669    8.1821    1.3156 H       1  LIG1        0.1424
     37 H          -8.5600    8.9158    0.7288 H       1  LIG1        0.1424
     38 C         -11.0632    8.4012   -1.7004 C.ar    1  LIG1        0.1033
     39 C         -10.6165    7.8945   -0.4650 C.ar    1  LIG1        0.0355
     40 C         -11.1118    8.4946    0.6906 C.ar    1  LIG1       -0.0278
     41 C         -11.9898    9.5749    0.6174 C.ar    1  LIG1        0.0436
     42 C         -12.3173   10.0224   -0.6640 C.ar    1  LIG1        0.0495
     43 N         -11.8766    9.4484   -1.7744 N.ar    1  LIG1       -0.2465
     44 H         -10.8042    8.1123    1.6596 H       1  LIG1        0.0644
     45 H         -12.9787   10.8785   -0.7906 H       1  LIG1        0.0849
     46 S         -10.5543    7.7752   -3.2910 S.3     1  LIG1       -0.1228
     47 H         -10.3559    6.5097   -2.8832 H       1  LIG1        0.1086
     48 N         -12.5471   10.1486    1.7518 N.pl3   1  LIG1       -0.3568
     49 H         -12.0303   10.0237    2.6090 H       1  LIG1        0.1424
     50 H         -12.8958   11.0888    1.6402 H       1  LIG1        0.1424
@<TRIPOS>BOND
     1    46    47    1
     2    46    38    1
     3    12    11    1
     4    13    11    1
     5    11     4    1
     6    43    38   ar
     7    43    42   ar
     8    33    34    1
     9    33    26    1
    10    38    39   ar
    11     7     3    1
    12    24    23    1
    13    25    23    1
    14    31    26   ar
    15    31    30   ar
    16     4     3   ar
    17     4     5   ar
    18    26    27   ar
    19    23    17    1
    20    45    42    1
    21     3     2   ar
    22    42    41   ar
    23    20    16    1
    24    39    30    1
    25    39    40   ar
    26    17    16   ar
    27    17    18   ar
    28    30    29   ar
    29    16    15   ar
    30    27    18    1
    31    27    28   ar
    32    18    19   ar
    33    15     5    1
    34    15    14   ar
    35     5     6   ar
    36    19    14   ar
    37    29    28   ar
    38    29    35    1
    39    28    32    1
    40    14    21    1
    41     2     8    1
    42     2     1   ar
    43    41    40   ar
    44    41    48    1
    45    40    44    1
    46    37    35    1
    47    21    22    1
    48    35    36    1
    49     6     1   ar
    50     1     9    1
    51    50    48    1
    52    48    49    1
    53    10     9    1
