@<TRIPOS>MOLECULE
mol_data/opt/cam/geoms/mol2/6gh6gh-6gh6gh.out
 50 53 0 0 0
SMALL
GASTEIGER

@<TRIPOS>ATOM
      1 C          -3.5049   -1.5689    1.5349 C.ar    1  LIG1        0.0947
      2 C          -2.6664   -2.0019    0.5074 C.ar    1  LIG1       -0.0283
      3 C          -2.7393   -1.3529   -0.7082 C.ar    1  LIG1       -0.0365
      4 C          -3.6157   -0.2784   -0.8907 C.ar    1  LIG1        0.0510
      5 C          -4.3929    0.1065    0.2172 C.ar    1  LIG1        0.0954
      6 N          -4.3334   -0.5493    1.3798 N.ar    1  LIG1       -0.2388
      7 H          -2.1137   -1.6768   -1.5350 H       1  LIG1        0.0637
      8 H          -1.9832   -2.8312    0.6485 H       1  LIG1        0.0644
      9 S          -3.5584   -2.3159    3.1509 S.3     1  LIG1       -0.1234
     10 H          -2.7274   -3.3347    2.8770 H       1  LIG1        0.1086
     11 N          -3.6703    0.3863   -2.1118 N.pl3   1  LIG1       -0.3563
     12 H          -3.3655   -0.1657   -2.9008 H       1  LIG1        0.1424
     13 H          -4.5411    0.8638   -2.2979 H       1  LIG1        0.1424
     14 C          -6.6802    1.2309    0.4980 C.ar    1  LIG1        0.1040
     15 C          -5.3164    1.2738    0.1463 C.ar    1  LIG1        0.0356
     16 C          -4.8243    2.4933   -0.3033 C.ar    1  LIG1       -0.0272
     17 C          -5.6383    3.6202   -0.4195 C.ar    1  LIG1        0.0517
     18 C          -6.9898    3.4619   -0.0681 C.ar    1  LIG1        0.0954
     19 N          -7.4621    2.2929    0.3658 N.ar    1  LIG1       -0.2381
     20 H          -3.7776    2.5664   -0.5840 H       1  LIG1        0.0644
     21 S          -7.5421   -0.2166    1.0731 S.3     1  LIG1       -0.1227
     22 H          -6.4583   -0.8313    1.5771 H       1  LIG1        0.1086
     23 N          -5.1064    4.8351   -0.8385 N.pl3   1  LIG1       -0.3563
     24 H          -4.2480    4.7581   -1.3649 H       1  LIG1        0.1424
     25 H          -5.7672    5.4646   -1.2717 H       1  LIG1        0.1424
     26 C          -9.1727    4.5548   -0.8448 C.ar    1  LIG1        0.1040
     27 C          -7.9499    4.5982   -0.1476 C.ar    1  LIG1        0.0356
     28 C          -7.6330    5.7935    0.4870 C.ar    1  LIG1       -0.0272
     29 C          -8.4720    6.9059    0.4218 C.ar    1  LIG1        0.0517
     30 C          -9.6506    6.7672   -0.3315 C.ar    1  LIG1        0.0954
     31 N          -9.9587    5.6180   -0.9331 N.ar    1  LIG1       -0.2381
     32 H          -6.7007    5.8654    1.0398 H       1  LIG1        0.0644
     33 S          -9.7775    3.1395   -1.7420 S.3     1  LIG1       -0.1227
     34 H          -9.1501    2.2234   -0.9837 H       1  LIG1        0.1086
     35 N          -8.1480    8.0757    1.0999 N.pl3   1  LIG1       -0.3563
     36 H          -7.1660    8.1836    1.3090 H       1  LIG1        0.1424
     37 H          -8.5590    8.9169    0.7212 H       1  LIG1        0.1424
     38 C         -11.0624    8.3996   -1.7073 C.ar    1  LIG1        0.1033
     39 C         -10.6157    7.8945   -0.4712 C.ar    1  LIG1        0.0355
     40 C         -11.1109    8.4961    0.6836 C.ar    1  LIG1       -0.0278
     41 C         -11.9887    9.5766    0.6091 C.ar    1  LIG1        0.0436
     42 C         -12.3161   10.0225   -0.6730 C.ar    1  LIG1        0.0495
     43 N         -11.8755    9.4468   -1.7826 N.ar    1  LIG1       -0.2465
     44 H         -10.8034    8.1150    1.6531 H       1  LIG1        0.0644
     45 H         -12.9773   10.8785   -0.8007 H       1  LIG1        0.0849
     46 S         -10.5536    7.7714   -3.2971 S.3     1  LIG1       -0.1228
     47 H         -10.3555    6.5064   -2.8876 H       1  LIG1        0.1086
     48 N         -12.5459   10.1518    1.7427 N.pl3   1  LIG1       -0.3568
     49 H         -12.0290   10.0279    2.6000 H       1  LIG1        0.1424
     50 H         -12.8943   11.0920    1.6299 H       1  LIG1        0.1424
@<TRIPOS>BOND
     1    46    47    1
     2    46    38    1
     3    12    11    1
     4    13    11    1
     5    11     4    1
     6    43    38   ar
     7    43    42   ar
     8    33    34    1
     9    33    26    1
    10    38    39   ar
    11     7     3    1
    12    24    23    1
    13    25    23    1
    14    31    26   ar
    15    31    30   ar
    16     4     3   ar
    17     4     5   ar
    18    26    27   ar
    19    23    17    1
    20    45    42    1
    21     3     2   ar
    22    42    41   ar
    23    20    16    1
    24    39    30    1
    25    39    40   ar
    26    17    16   ar
    27    17    18   ar
    28    30    29   ar
    29    16    15   ar
    30    27    18    1
    31    27    28   ar
    32    18    19   ar
    33    15     5    1
    34    15    14   ar
    35     5     6   ar
    36    19    14   ar
    37    29    28   ar
    38    29    35    1
    39    28    32    1
    40    14    21    1
    41     2     8    1
    42     2     1   ar
    43    41    40   ar
    44    41    48    1
    45    40    44    1
    46    37    35    1
    47    21    22    1
    48    35    36    1
    49     6     1   ar
    50     1     9    1
    51    50    48    1
    52    48    49    1
    53    10     9    1
