@<TRIPOS>MOLECULE
mol_data/opt/cam/geoms/mol2/6gh6gh-.out
 26 27 0 0 0
SMALL
GASTEIGER

@<TRIPOS>ATOM
      1 C          -4.3587   -1.9786    0.6270 C.ar    1  LIG1        0.0947
      2 C          -3.0240   -2.0245    0.2256 C.ar    1  LIG1       -0.0283
      3 C          -2.4814   -0.8959   -0.3551 C.ar    1  LIG1       -0.0365
      4 C          -3.2493    0.2613   -0.5144 C.ar    1  LIG1        0.0510
      5 C          -4.5764    0.2182   -0.0481 C.ar    1  LIG1        0.0954
      6 N          -5.0961   -0.8888    0.4887 N.ar    1  LIG1       -0.2388
      7 H          -1.4492   -0.9019   -0.6937 H       1  LIG1        0.0637
      8 H          -2.4267   -2.9198    0.3530 H       1  LIG1        0.0644
      9 S          -5.2183   -3.3529    1.3669 S.3     1  LIG1       -0.1234
     10 H          -4.2282   -4.2493    1.2247 H       1  LIG1        0.1086
     11 N          -2.6924    1.4051   -1.0789 N.pl3   1  LIG1       -0.3563
     12 H          -1.9160    1.2274   -1.7000 H       1  LIG1        0.1424
     13 H          -3.3617    2.0465   -1.4806 H       1  LIG1        0.1424
     14 C          -6.7317    1.4231   -0.7309 C.ar    1  LIG1        0.1033
     15 C          -5.4598    1.4165   -0.1257 C.ar    1  LIG1        0.0355
     16 C          -5.0108    2.6109    0.4343 C.ar    1  LIG1       -0.0278
     17 C          -5.7815    3.7701    0.3671 C.ar    1  LIG1        0.0436
     18 C          -7.0022    3.6643   -0.3022 C.ar    1  LIG1        0.0495
     19 N          -7.4571    2.5325   -0.8197 N.ar    1  LIG1       -0.2465
     20 H          -4.0430    2.6336    0.9268 H       1  LIG1        0.0644
     21 H          -7.6427    4.5386   -0.4105 H       1  LIG1        0.0849
     22 S          -7.4956    0.0138   -1.5099 S.3     1  LIG1       -0.1228
     23 H          -6.8663   -0.9162   -0.7717 H       1  LIG1        0.1086
     24 N          -5.3841    4.9552    0.9721 N.pl3   1  LIG1       -0.3568
     25 H          -4.3912    5.0651    1.1131 H       1  LIG1        0.1424
     26 H          -5.8196    5.7929    0.6158 H       1  LIG1        0.1424
@<TRIPOS>BOND
     1    12    11    1
     2    22    23    1
     3    22    14    1
     4    13    11    1
     5    11     4    1
     6    19    14   ar
     7    19    18   ar
     8    14    15   ar
     9     7     3    1
    10     4     3   ar
    11     4     5   ar
    12    21    18    1
    13     3     2   ar
    14    18    17   ar
    15    15     5    1
    16    15    16   ar
    17     5     6   ar
    18     2     8    1
    19     2     1   ar
    20    17    16   ar
    21    17    24    1
    22    16    20    1
    23     6     1   ar
    24    26    24    1
    25     1     9    1
    26    24    25    1
    27    10     9    1
