@<TRIPOS>MOLECULE
mol_data/opt/cam/geoms/mol2/6gh6gh-6gh-.out
 38 40 0 0 0
SMALL
GASTEIGER

@<TRIPOS>ATOM
      1 C          -4.0091   -1.8211    1.1869 C.ar    1  LIG1        0.0947
      2 C          -2.8713   -2.0285    0.4072 C.ar    1  LIG1       -0.0283
      3 C          -2.5811   -1.1058   -0.5773 C.ar    1  LIG1       -0.0365
      4 C          -3.3974    0.0136   -0.7671 C.ar    1  LIG1        0.0510
      5 C          -4.5014    0.1525    0.0943 C.ar    1  LIG1        0.0954
      6 N          -4.7867   -0.7633    1.0243 N.ar    1  LIG1       -0.2388
      7 H          -1.7128   -1.2465   -1.2146 H       1  LIG1        0.0637
      8 H          -2.2350   -2.8930    0.5562 H       1  LIG1        0.0644
      9 S          -4.5422   -2.9287    2.4762 S.3     1  LIG1       -0.1234
     10 H          -3.6246   -3.8828    2.2494 H       1  LIG1        0.1086
     11 N          -3.0894    0.9524   -1.7469 N.pl3   1  LIG1       -0.3563
     12 H          -2.5328    0.5919   -2.5087 H       1  LIG1        0.1424
     13 H          -3.8747    1.4962   -2.0761 H       1  LIG1        0.1424
     14 C          -6.8020    1.2637   -0.1179 C.ar    1  LIG1        0.1040
     15 C          -5.4014    1.3370    0.0119 C.ar    1  LIG1        0.0356
     16 C          -4.8429    2.6093    0.0542 C.ar    1  LIG1       -0.0272
     17 C          -5.6238    3.7605   -0.0447 C.ar    1  LIG1        0.0517
     18 C          -7.0081    3.5748   -0.2021 C.ar    1  LIG1        0.0954
     19 N          -7.5447    2.3550   -0.2373 N.ar    1  LIG1       -0.2381
     20 H          -3.7660    2.7079    0.1558 H       1  LIG1        0.0644
     21 S          -7.7406   -0.2462   -0.2186 S.3     1  LIG1       -0.1227
     22 H          -6.8519   -1.0071    0.4427 H       1  LIG1        0.1086
     23 N          -5.0394    5.0201    0.0392 N.pl3   1  LIG1       -0.3563
     24 H          -4.0578    5.0441   -0.1963 H       1  LIG1        0.1424
     25 H          -5.5615    5.7617   -0.4053 H       1  LIG1        0.1424
     26 C          -8.8482    4.9144   -1.3736 C.ar    1  LIG1        0.1033
     27 C          -7.9364    4.7355   -0.3155 C.ar    1  LIG1        0.0355
     28 C          -7.9089    5.7112    0.6785 C.ar    1  LIG1       -0.0278
     29 C          -8.7324    6.8335    0.6048 C.ar    1  LIG1        0.0436
     30 C          -9.5551    6.9262   -0.5195 C.ar    1  LIG1        0.0495
     31 N          -9.6133    5.9963   -1.4621 N.ar    1  LIG1       -0.2465
     32 H          -7.2326    5.5914    1.5199 H       1  LIG1        0.0644
     33 H         -10.2048    7.7905   -0.6505 H       1  LIG1        0.0849
     34 S          -9.0423    3.7871   -2.7417 S.3     1  LIG1       -0.1228
     35 H          -8.6964    2.6817   -2.0594 H       1  LIG1        0.1086
     36 N          -8.7700    7.7863    1.6135 N.pl3   1  LIG1       -0.3568
     37 H          -7.9456    7.8497    2.1913 H       1  LIG1        0.1424
     38 H          -9.1295    8.6907    1.3474 H       1  LIG1        0.1424
@<TRIPOS>BOND
     1    34    35    1
     2    34    26    1
     3    12    11    1
     4    13    11    1
     5    11     4    1
     6    31    26   ar
     7    31    30   ar
     8    26    27   ar
     9     7     3    1
    10     4     3   ar
    11     4     5   ar
    12    33    30    1
    13     3     2   ar
    14    30    29   ar
    15    25    23    1
    16    27    18    1
    17    27    28   ar
    18    19    18   ar
    19    19    14   ar
    20    21    14    1
    21    21    22    1
    22    18    17   ar
    23    24    23    1
    24    14    15   ar
    25    17    23    1
    26    17    16   ar
    27    15    16   ar
    28    15     5    1
    29    16    20    1
    30     5     6   ar
    31     2     8    1
    32     2     1   ar
    33    29    28   ar
    34    29    36    1
    35    28    32    1
    36     6     1   ar
    37     1     9    1
    38    38    36    1
    39    36    37    1
    40    10     9    1
