@<TRIPOS>MOLECULE
mol_data/opt/cam/geoms/mol2/6gh6gh6gh-6gh.out
 50 53 0 0 0
SMALL
GASTEIGER

@<TRIPOS>ATOM
      1 C          -3.4803   -1.5543    1.5303 C.ar    1  LIG1        0.0947
      2 C          -2.6570   -1.9962    0.4943 C.ar    1  LIG1       -0.0283
      3 C          -2.7482   -1.3579   -0.7258 C.ar    1  LIG1       -0.0365
      4 C          -3.6273   -0.2850   -0.9046 C.ar    1  LIG1        0.0510
      5 C          -4.3881    0.1095    0.2113 C.ar    1  LIG1        0.0954
      6 N          -4.3112   -0.5362    1.3786 N.ar    1  LIG1       -0.2388
      7 H          -2.1349   -1.6889   -1.5590 H       1  LIG1        0.0637
      8 H          -1.9717   -2.8242    0.6324 H       1  LIG1        0.0644
      9 S          -3.5096   -2.2871    3.1534 S.3     1  LIG1       -0.1234
     10 H          -2.6826   -3.3083    2.8760 H       1  LIG1        0.1086
     11 N          -3.7003    0.3689   -2.1305 N.pl3   1  LIG1       -0.3563
     12 H          -3.4071   -0.1899   -2.9191 H       1  LIG1        0.1424
     13 H          -4.5738    0.8447   -2.3078 H       1  LIG1        0.1424
     14 C          -6.6712    1.2361    0.5163 C.ar    1  LIG1        0.1040
     15 C          -5.3128    1.2760    0.1440 C.ar    1  LIG1        0.0356
     16 C          -4.8276    2.4916   -0.3235 C.ar    1  LIG1       -0.0272
     17 C          -5.6435    3.6174   -0.4375 C.ar    1  LIG1        0.0517
     18 C          -6.9896    3.4620   -0.0647 C.ar    1  LIG1        0.0954
     19 N          -7.4552    2.2968    0.3865 N.ar    1  LIG1       -0.2381
     20 H          -3.7853    2.5623   -0.6204 H       1  LIG1        0.0644
     21 S          -7.5241   -0.2064    1.1167 S.3     1  LIG1       -0.1227
     22 H          -6.4328   -0.8166    1.6100 H       1  LIG1        0.1086
     23 N          -5.1181    4.8286   -0.8750 N.pl3   1  LIG1       -0.3563
     24 H          -4.2676    4.7471   -1.4133 H       1  LIG1        0.1424
     25 H          -5.7854    5.4542   -1.3038 H       1  LIG1        0.1424
     26 C          -9.1840    4.5480   -0.8182 C.ar    1  LIG1        0.1040
     27 C          -7.9510    4.5975   -0.1397 C.ar    1  LIG1        0.0356
     28 C          -7.6249    5.7984    0.4796 C.ar    1  LIG1       -0.0272
     29 C          -8.4650    6.9101    0.4171 C.ar    1  LIG1        0.0517
     30 C          -9.6547    6.7648   -0.3173 C.ar    1  LIG1        0.0954
     31 N          -9.9715    5.6104   -0.9042 N.ar    1  LIG1       -0.2381
     32 H          -6.6845    5.8751    1.0178 H       1  LIG1        0.0644
     33 S          -9.8018    3.1248   -1.6939 S.3     1  LIG1       -0.1227
     34 H          -9.1631    2.2154   -0.9371 H       1  LIG1        0.1086
     35 N          -8.1311    8.0858    1.0801 N.pl3   1  LIG1       -0.3563
     36 H          -7.1462    8.1956    1.2736 H       1  LIG1        0.1424
     37 H          -8.5479    8.9236    0.7002 H       1  LIG1        0.1424
     38 C         -11.0871    8.3850   -1.6862 C.ar    1  LIG1        0.1033
     39 C         -10.6220    7.8907   -0.4524 C.ar    1  LIG1        0.0355
     40 C         -11.1001    8.5024    0.7042 C.ar    1  LIG1       -0.0278
     41 C         -11.9791    9.5821    0.6334 C.ar    1  LIG1        0.0436
     42 C         -12.3256   10.0167   -0.6476 C.ar    1  LIG1        0.0495
     43 N         -11.9015    9.4315   -1.7585 N.ar    1  LIG1       -0.2465
     44 H         -10.7781    8.1298    1.6723 H       1  LIG1        0.0644
     45 H         -12.9888   10.8715   -0.7728 H       1  LIG1        0.0849
     46 S         -10.6019    7.7429   -3.2778 S.3     1  LIG1       -0.1228
     47 H         -10.3974    6.4816   -2.8603 H       1  LIG1        0.1086
     48 N         -12.5194   10.1672    1.7700 N.pl3   1  LIG1       -0.3568
     49 H         -11.9898   10.0508    2.6206 H       1  LIG1        0.1424
     50 H         -12.8696   11.1063    1.6542 H       1  LIG1        0.1424
@<TRIPOS>BOND
     1    46    47    1
     2    46    38    1
     3    12    11    1
     4    13    11    1
     5    11     4    1
     6    43    38   ar
     7    43    42   ar
     8    33    34    1
     9    33    26    1
    10    38    39   ar
    11     7     3    1
    12    24    23    1
    13    25    23    1
    14     4     3   ar
    15     4     5   ar
    16    31    26   ar
    17    31    30   ar
    18    23    17    1
    19    26    27   ar
    20    45    42    1
    21     3     2   ar
    22    42    41   ar
    23    20    16    1
    24    39    30    1
    25    39    40   ar
    26    17    16   ar
    27    17    18   ar
    28    16    15   ar
    29    30    29   ar
    30    27    18    1
    31    27    28   ar
    32    18    19   ar
    33    15     5    1
    34    15    14   ar
    35     5     6   ar
    36    19    14   ar
    37    29    28   ar
    38    29    35    1
    39    28    32    1
    40     2     8    1
    41     2     1   ar
    42    14    21    1
    43    41    40   ar
    44    41    48    1
    45    37    35    1
    46    40    44    1
    47    35    36    1
    48    21    22    1
    49     6     1   ar
    50     1     9    1
    51    50    48    1
    52    48    49    1
    53    10     9    1
