@<TRIPOS>MOLECULE
mol_data/opt/cam/geoms/mol2/6gh6gh-6gh-6gh-.out
 50 53 0 0 0
SMALL
GASTEIGER

@<TRIPOS>ATOM
      1 C          -3.4874   -1.5612    1.5196 C.ar    1  LIG1        0.0947
      2 C          -2.6571   -1.9964    0.4864 C.ar    1  LIG1       -0.0283
      3 C          -2.7406   -1.3508   -0.7303 C.ar    1  LIG1       -0.0365
      4 C          -3.6192   -0.2774   -0.9085 C.ar    1  LIG1        0.0510
      5 C          -4.3875    0.1100    0.2048 C.ar    1  LIG1        0.0954
      6 N          -4.3178   -0.5427    1.3686 N.ar    1  LIG1       -0.2388
      7 H          -2.1216   -1.6765   -1.5614 H       1  LIG1        0.0637
      8 H          -1.9721   -2.8248    0.6241 H       1  LIG1        0.0644
      9 S          -3.5269   -2.3038    3.1381 S.3     1  LIG1       -0.1234
     10 H          -2.6975   -3.3228    2.8600 H       1  LIG1        0.1086
     11 N          -3.6845    0.3839   -2.1309 N.pl3   1  LIG1       -0.3563
     12 H          -3.3858   -0.1700   -2.9209 H       1  LIG1        0.1424
     13 H          -4.5571    0.8603   -2.3111 H       1  LIG1        0.1424
     14 C          -6.6732    1.2335    0.5015 C.ar    1  LIG1        0.1040
     15 C          -5.3124    1.2763    0.1384 C.ar    1  LIG1        0.0356
     16 C          -4.8249    2.4950   -0.3186 C.ar    1  LIG1       -0.0272
     17 C          -5.6407    3.6210   -0.4312 C.ar    1  LIG1        0.0517
     18 C          -6.9891    3.4627   -0.0681 C.ar    1  LIG1        0.0954
     19 N          -7.4570    2.2945    0.3729 N.ar    1  LIG1       -0.2381
     20 H          -3.7807    2.5681   -0.6082 H       1  LIG1        0.0644
     21 S          -7.5292   -0.2131    1.0876 S.3     1  LIG1       -0.1227
     22 H          -6.4408   -0.8257    1.5843 H       1  LIG1        0.1086
     23 N          -5.1132    4.8352   -0.8579 N.pl3   1  LIG1       -0.3563
     24 H          -4.2591    4.7573   -1.3911 H       1  LIG1        0.1424
     25 H          -5.7780    5.4630   -1.2873 H       1  LIG1        0.1424
     26 C          -9.1792    4.5519   -0.8296 C.ar    1  LIG1        0.1040
     27 C          -7.9507    4.5980   -0.1427 C.ar    1  LIG1        0.0356
     28 C          -7.6294    5.7953    0.4860 C.ar    1  LIG1       -0.0272
     29 C          -8.4698    6.9069    0.4247 C.ar    1  LIG1        0.0517
     30 C          -9.6545    6.7654   -0.3184 C.ar    1  LIG1        0.0954
     31 N          -9.9667    5.6143   -0.9143 N.ar    1  LIG1       -0.2381
     32 H          -6.6927    5.8694    1.0309 H       1  LIG1        0.0644
     33 S          -9.7904    3.1337   -1.7179 S.3     1  LIG1       -0.1227
     34 H          -9.1561    2.2201   -0.9624 H       1  LIG1        0.1086
     35 N          -8.1410    8.0788    1.0969 N.pl3   1  LIG1       -0.3563
     36 H          -7.1574    8.1880    1.2975 H       1  LIG1        0.1424
     37 H          -8.5557    8.9187    0.7193 H       1  LIG1        0.1424
     38 C         -11.0788    8.3930   -1.6869 C.ar    1  LIG1        0.1033
     39 C         -10.6216    7.8915   -0.4531 C.ar    1  LIG1        0.0355
     40 C         -11.1076    8.4960    0.7040 C.ar    1  LIG1       -0.0278
     41 C         -11.9868    9.5756    0.6339 C.ar    1  LIG1        0.0436
     42 C         -12.3251   10.0178   -0.6467 C.ar    1  LIG1        0.0495
     43 N         -11.8933    9.4394   -1.7583 N.ar    1  LIG1       -0.2465
     44 H         -10.7918    8.1177    1.6720 H       1  LIG1        0.0644
     45 H         -12.9879   10.8730   -0.7711 H       1  LIG1        0.0849
     46 S         -10.5828    7.7608   -3.2791 S.3     1  LIG1       -0.1228
     47 H         -10.3803    6.4971   -2.8679 H       1  LIG1        0.1086
     48 N         -12.5349   10.1536    1.7705 N.pl3   1  LIG1       -0.3568
     49 H         -12.0109   10.0324    2.6238 H       1  LIG1        0.1424
     50 H         -12.8849   11.0931    1.6580 H       1  LIG1        0.1424
@<TRIPOS>BOND
     1    46    47    1
     2    46    38    1
     3    12    11    1
     4    13    11    1
     5    11     4    1
     6    43    38   ar
     7    43    42   ar
     8    33    34    1
     9    33    26    1
    10    38    39   ar
    11     7     3    1
    12    24    23    1
    13    25    23    1
    14    31    26   ar
    15    31    30   ar
    16     4     3   ar
    17     4     5   ar
    18    23    17    1
    19    26    27   ar
    20    45    42    1
    21     3     2   ar
    22    42    41   ar
    23    20    16    1
    24    39    30    1
    25    39    40   ar
    26    17    16   ar
    27    17    18   ar
    28    16    15   ar
    29    30    29   ar
    30    27    18    1
    31    27    28   ar
    32    18    19   ar
    33    15     5    1
    34    15    14   ar
    35     5     6   ar
    36    19    14   ar
    37    29    28   ar
    38    29    35    1
    39    28    32    1
    40     2     8    1
    41     2     1   ar
    42    14    21    1
    43    41    40   ar
    44    41    48    1
    45    40    44    1
    46    37    35    1
    47    21    22    1
    48    35    36    1
    49     6     1   ar
    50     1     9    1
    51    50    48    1
    52    48    49    1
    53    10     9    1
