@<TRIPOS>MOLECULE
mol_data/opt/cam/geoms/mol2/6gh6gh6gh-.out
 38 40 0 0 0
SMALL
GASTEIGER

@<TRIPOS>ATOM
      1 C          -3.9987   -1.8161    1.1895 C.ar    1  LIG1        0.0947
      2 C          -2.8686   -2.0277    0.3998 C.ar    1  LIG1       -0.0283
      3 C          -2.5876   -1.1099   -0.5919 C.ar    1  LIG1       -0.0365
      4 C          -3.4052    0.0089   -0.7792 C.ar    1  LIG1        0.0510
      5 C          -4.5008    0.1524    0.0921 C.ar    1  LIG1        0.0954
      6 N          -4.7775   -0.7588    1.0292 N.ar    1  LIG1       -0.2388
      7 H          -1.7255   -1.2541   -1.2369 H       1  LIG1        0.0637
      8 H          -2.2312   -2.8917    0.5469 H       1  LIG1        0.0644
      9 S          -4.5198   -2.9171    2.4893 S.3     1  LIG1       -0.1234
     10 H          -3.6048   -3.8727    2.2582 H       1  LIG1        0.1086
     11 N          -3.1064    0.9428   -1.7665 N.pl3   1  LIG1       -0.3563
     12 H          -2.5573    0.5783   -2.5319 H       1  LIG1        0.1424
     13 H          -3.8947    1.4852   -2.0908 H       1  LIG1        0.1424
     14 C          -6.8030    1.2635   -0.1033 C.ar    1  LIG1        0.1040
     15 C          -5.4012    1.3369    0.0126 C.ar    1  LIG1        0.0356
     16 C          -4.8419    2.6091    0.0433 C.ar    1  LIG1       -0.0272
     17 C          -5.6233    3.7602   -0.0537 C.ar    1  LIG1        0.0517
     18 C          -7.0091    3.5743   -0.1968 C.ar    1  LIG1        0.0954
     19 N          -7.5464    2.3546   -0.2209 N.ar    1  LIG1       -0.2381
     20 H          -3.7640    2.7077    0.1340 H       1  LIG1        0.0644
     21 S          -7.7431   -0.2464   -0.1875 S.3     1  LIG1       -0.1227
     22 H          -6.8483   -1.0045    0.4689 H       1  LIG1        0.1086
     23 N          -5.0376    5.0199    0.0184 N.pl3   1  LIG1       -0.3563
     24 H          -4.0583    5.0424   -0.2267 H       1  LIG1        0.1424
     25 H          -5.5637    5.7596   -0.4247 H       1  LIG1        0.1424
     26 C          -8.8599    4.9089   -1.3570 C.ar    1  LIG1        0.1033
     27 C          -7.9380    4.7348   -0.3069 C.ar    1  LIG1        0.0355
     28 C          -7.9006    5.7153    0.6821 C.ar    1  LIG1       -0.0278
     29 C          -8.7243    6.8376    0.6108 C.ar    1  LIG1        0.0436
     30 C          -9.5579    6.9251   -0.5059 C.ar    1  LIG1        0.0495
     31 N          -9.6255    5.9907   -1.4434 N.ar    1  LIG1       -0.2465
     32 H          -7.2161    5.5993    1.5174 H       1  LIG1        0.0644
     33 H         -10.2085    7.7890   -0.6349 H       1  LIG1        0.0849
     34 S          -9.0676    3.7749   -2.7176 S.3     1  LIG1       -0.1228
     35 H          -8.7155    2.6727   -2.0333 H       1  LIG1        0.1086
     36 N          -8.7518    7.7953    1.6152 N.pl3   1  LIG1       -0.3568
     37 H          -7.9218    7.8612    2.1846 H       1  LIG1        0.1424
     38 H          -9.1136    8.6986    1.3481 H       1  LIG1        0.1424
@<TRIPOS>BOND
     1    34    35    1
     2    34    26    1
     3    12    11    1
     4    13    11    1
     5    11     4    1
     6    31    26   ar
     7    31    30   ar
     8    26    27   ar
     9     7     3    1
    10     4     3   ar
    11     4     5   ar
    12    33    30    1
    13     3     2   ar
    14    30    29   ar
    15    25    23    1
    16    27    18    1
    17    27    28   ar
    18    24    23    1
    19    19    18   ar
    20    19    14   ar
    21    18    17   ar
    22    21    14    1
    23    21    22    1
    24    14    15   ar
    25    17    23    1
    26    17    16   ar
    27    15    16   ar
    28    15     5    1
    29    16    20    1
    30     5     6   ar
    31     2     8    1
    32     2     1   ar
    33    29    28   ar
    34    29    36    1
    35    28    32    1
    36     6     1   ar
    37     1     9    1
    38    38    36    1
    39    36    37    1
    40    10     9    1
