@<TRIPOS>MOLECULE
mol_data/opt/cam/geoms/mol2/6gh6gh-6gh.out
 38 40 0 0 0
SMALL
GASTEIGER

@<TRIPOS>ATOM
      1 C          -4.0182   -1.8227    1.1949 C.ar    1  LIG1        0.0947
      2 C          -2.8755   -2.0299    0.4222 C.ar    1  LIG1       -0.0283
      3 C          -2.5789   -1.1066   -0.5597 C.ar    1  LIG1       -0.0365
      4 C          -3.3937    0.0131   -0.7540 C.ar    1  LIG1        0.0510
      5 C          -4.5031    0.1517    0.1004 C.ar    1  LIG1        0.0954
      6 N          -4.7946   -0.7647    1.0280 N.ar    1  LIG1       -0.2388
      7 H          -1.7065   -1.2471   -1.1916 H       1  LIG1        0.0637
      8 H          -2.2404   -2.8946    0.5747 H       1  LIG1        0.0644
      9 S          -4.5598   -2.9310    2.4800 S.3     1  LIG1       -0.1234
     10 H          -3.6410   -3.8852    2.2584 H       1  LIG1        0.1086
     11 N          -3.0792    0.9525   -1.7312 N.pl3   1  LIG1       -0.3563
     12 H          -2.5179    0.5924   -2.4897 H       1  LIG1        0.1424
     13 H          -3.8624    1.4967   -2.0650 H       1  LIG1        0.1424
     14 C          -6.8021    1.2635   -0.1257 C.ar    1  LIG1        0.1040
     15 C          -5.4024    1.3365    0.0131 C.ar    1  LIG1        0.0356
     16 C          -4.8438    2.6086    0.0598 C.ar    1  LIG1       -0.0272
     17 C          -5.6238    3.7601   -0.0433 C.ar    1  LIG1        0.0517
     18 C          -7.0072    3.5748   -0.2097 C.ar    1  LIG1        0.0954
     19 N          -7.5437    2.3552   -0.2491 N.ar    1  LIG1       -0.2381
     20 H          -3.7675    2.7069    0.1683 H       1  LIG1        0.0644
     21 S          -7.7404   -0.2460   -0.2333 S.3     1  LIG1       -0.1227
     22 H          -6.8561   -1.0076    0.4331 H       1  LIG1        0.1086
     23 N          -5.0397    5.0194    0.0452 N.pl3   1  LIG1       -0.3563
     24 H          -4.0565    5.0434   -0.1841 H       1  LIG1        0.1424
     25 H          -5.5587    5.7615   -0.4022 H       1  LIG1        0.1424
     26 C          -8.8394    4.9156   -1.3920 C.ar    1  LIG1        0.1033
     27 C          -7.9344    4.7358   -0.3282 C.ar    1  LIG1        0.0355
     28 C          -7.9131    5.7108    0.6666 C.ar    1  LIG1       -0.0278
     29 C          -8.7358    6.8334    0.5884 C.ar    1  LIG1        0.0436
     30 C          -9.5513    6.9270   -0.5410 C.ar    1  LIG1        0.0495
     31 N          -9.6037    5.9977   -1.4846 N.ar    1  LIG1       -0.2465
     32 H          -7.2421    5.5903    1.5122 H       1  LIG1        0.0644
     33 H         -10.2000    7.7915   -0.6756 H       1  LIG1        0.0849
     34 S          -9.0251    3.7892   -2.7620 S.3     1  LIG1       -0.1228
     35 H          -8.6838    2.6833   -2.0782 H       1  LIG1        0.1086
     36 N          -8.7796    7.7855    1.5975 N.pl3   1  LIG1       -0.3568
     37 H          -7.9588    7.8483    2.1805 H       1  LIG1        0.1424
     38 H          -9.1372    8.6902    1.3297 H       1  LIG1        0.1424
@<TRIPOS>BOND
     1    34    35    1
     2    34    26    1
     3    12    11    1
     4    13    11    1
     5    11     4    1
     6    31    26   ar
     7    31    30   ar
     8    26    27   ar
     9     7     3    1
    10     4     3   ar
    11     4     5   ar
    12    33    30    1
    13     3     2   ar
    14    30    29   ar
    15    25    23    1
    16    27    18    1
    17    27    28   ar
    18    19    18   ar
    19    19    14   ar
    20    21    14    1
    21    21    22    1
    22    18    17   ar
    23    24    23    1
    24    14    15   ar
    25    17    23    1
    26    17    16   ar
    27    15    16   ar
    28    15     5    1
    29    16    20    1
    30     5     6   ar
    31     2     8    1
    32     2     1   ar
    33    29    28   ar
    34    29    36    1
    35    28    32    1
    36     6     1   ar
    37     1     9    1
    38    38    36    1
    39    36    37    1
    40    10     9    1
