@<TRIPOS>MOLECULE
mol_data/opt/cam/geoms/mol2/6gh6gh6gh-6gh-.out
 50 53 0 0 0
SMALL
GASTEIGER

@<TRIPOS>ATOM
      1 C          -3.4781   -1.5554    1.5215 C.ar    1  LIG1        0.0947
      2 C          -2.6559   -1.9962    0.4842 C.ar    1  LIG1       -0.0283
      3 C          -2.7484   -1.3566   -0.7351 C.ar    1  LIG1       -0.0365
      4 C          -3.6278   -0.2836   -0.9119 C.ar    1  LIG1        0.0510
      5 C          -4.3875    0.1097    0.2053 C.ar    1  LIG1        0.0954
      6 N          -4.3092   -0.5373    1.3718 N.ar    1  LIG1       -0.2388
      7 H          -2.1359   -1.6867   -1.5693 H       1  LIG1        0.0637
      8 H          -1.9704   -2.8243    0.6207 H       1  LIG1        0.0644
      9 S          -3.5057   -2.2900    3.1439 S.3     1  LIG1       -0.1234
     10 H          -2.6789   -3.3108    2.8645 H       1  LIG1        0.1086
     11 N          -3.7021    0.3717   -2.1370 N.pl3   1  LIG1       -0.3563
     12 H          -3.4097   -0.1863   -2.9265 H       1  LIG1        0.1424
     13 H          -4.5758    0.8476   -2.3129 H       1  LIG1        0.1424
     14 C          -6.6703    1.2358    0.5138 C.ar    1  LIG1        0.1040
     15 C          -5.3123    1.2762    0.1402 C.ar    1  LIG1        0.0356
     16 C          -4.8277    2.4923   -0.3265 C.ar    1  LIG1       -0.0272
     17 C          -5.6438    3.6181   -0.4385 C.ar    1  LIG1        0.0517
     18 C          -6.9895    3.4623   -0.0644 C.ar    1  LIG1        0.0954
     19 N          -7.4545    2.2966    0.3860 N.ar    1  LIG1       -0.2381
     20 H          -3.7857    2.5634   -0.6244 H       1  LIG1        0.0644
     21 S          -7.5225   -0.2075    1.1136 S.3     1  LIG1       -0.1227
     22 H          -6.4306   -0.8181    1.6051 H       1  LIG1        0.1086
     23 N          -5.1190    4.8299   -0.8752 N.pl3   1  LIG1       -0.3563
     24 H          -4.2690    4.7490   -1.4145 H       1  LIG1        0.1424
     25 H          -5.7868    5.4559   -1.3026 H       1  LIG1        0.1424
     26 C          -9.1848    4.5489   -0.8145 C.ar    1  LIG1        0.1040
     27 C          -7.9510    4.5978   -0.1372 C.ar    1  LIG1        0.0356
     28 C          -7.6244    5.7980    0.4830 C.ar    1  LIG1       -0.0272
     29 C          -8.4647    6.9097    0.4226 C.ar    1  LIG1        0.0517
     30 C          -9.6551    6.7651   -0.3107 C.ar    1  LIG1        0.0954
     31 N          -9.9724    5.6113   -0.8985 N.ar    1  LIG1       -0.2381
     32 H          -6.6835    5.8743    1.0204 H       1  LIG1        0.0644
     33 S          -9.8034    3.1266   -1.6911 S.3     1  LIG1       -0.1227
     34 H          -9.1638    2.2165   -0.9359 H       1  LIG1        0.1086
     35 N          -8.1302    8.0847    1.0865 N.pl3   1  LIG1       -0.3563
     36 H          -7.1451    8.1944    1.2791 H       1  LIG1        0.1424
     37 H          -8.5474    8.9230    0.7079 H       1  LIG1        0.1424
     38 C         -11.0890    8.3867   -1.6763 C.ar    1  LIG1        0.1033
     39 C         -10.6226    7.8911   -0.4436 C.ar    1  LIG1        0.0355
     40 C         -11.0995    8.5015    0.7142 C.ar    1  LIG1       -0.0278
     41 C         -11.9787    9.5812    0.6454 C.ar    1  LIG1        0.0436
     42 C         -12.3266   10.0172   -0.6347 C.ar    1  LIG1        0.0495
     43 N         -11.9036    9.4332   -1.7467 N.ar    1  LIG1       -0.2465
     44 H         -10.7765    8.1279    1.6816 H       1  LIG1        0.0644
     45 H         -12.9900   10.8721   -0.7583 H       1  LIG1        0.0849
     46 S         -10.6055    7.7463   -3.2692 S.3     1  LIG1       -0.1228
     47 H         -10.4005    6.4846   -2.8532 H       1  LIG1        0.1086
     48 N         -12.5179   10.1651    1.7833 N.pl3   1  LIG1       -0.3568
     49 H         -11.9874   10.0478    2.6332 H       1  LIG1        0.1424
     50 H         -12.8683   11.1043    1.6688 H       1  LIG1        0.1424
@<TRIPOS>BOND
     1    46    47    1
     2    46    38    1
     3    12    11    1
     4    13    11    1
     5    11     4    1
     6    43    38   ar
     7    43    42   ar
     8    33    34    1
     9    33    26    1
    10    38    39   ar
    11     7     3    1
    12    24    23    1
    13    25    23    1
    14     4     3   ar
    15     4     5   ar
    16    31    26   ar
    17    31    30   ar
    18    23    17    1
    19    26    27   ar
    20    45    42    1
    21     3     2   ar
    22    42    41   ar
    23    20    16    1
    24    39    30    1
    25    39    40   ar
    26    17    16   ar
    27    17    18   ar
    28    16    15   ar
    29    30    29   ar
    30    27    18    1
    31    27    28   ar
    32    18    19   ar
    33    15     5    1
    34    15    14   ar
    35     5     6   ar
    36    19    14   ar
    37    29    28   ar
    38    29    35    1
    39    28    32    1
    40     2     8    1
    41     2     1   ar
    42    14    21    1
    43    41    40   ar
    44    41    48    1
    45    37    35    1
    46    40    44    1
    47    35    36    1
    48    21    22    1
    49     6     1   ar
    50     1     9    1
    51    50    48    1
    52    48    49    1
    53    10     9    1
