@<TRIPOS>MOLECULE
mol_data/opt/cam/geoms/mol2/6gh6gh6gh6gh-.out
 50 53 0 0 0
SMALL
GASTEIGER

@<TRIPOS>ATOM
      1 C          -3.4788   -1.5562    1.5214 C.ar    1  LIG1        0.0947
      2 C          -2.6575   -1.9976    0.4837 C.ar    1  LIG1       -0.0283
      3 C          -2.7507   -1.3586   -0.7358 C.ar    1  LIG1       -0.0365
      4 C          -3.6299   -0.2854   -0.9124 C.ar    1  LIG1        0.0510
      5 C          -4.3886    0.1086    0.2051 C.ar    1  LIG1        0.0954
      6 N          -4.3097   -0.5378    1.3718 N.ar    1  LIG1       -0.2388
      7 H          -2.1389   -1.6892   -1.5703 H       1  LIG1        0.0637
      8 H          -1.9721   -2.8259    0.6201 H       1  LIG1        0.0644
      9 S          -3.5054   -2.2901    3.1441 S.3     1  LIG1       -0.1234
     10 H          -2.6791   -3.3112    2.8646 H       1  LIG1        0.1086
     11 N          -3.7049    0.3694   -2.1377 N.pl3   1  LIG1       -0.3563
     12 H          -3.4132   -0.1890   -2.9272 H       1  LIG1        0.1424
     13 H          -4.5785    0.8455   -2.3132 H       1  LIG1        0.1424
     14 C          -6.6709    1.2356    0.5148 C.ar    1  LIG1        0.1040
     15 C          -5.3131    1.2754    0.1402 C.ar    1  LIG1        0.0356
     16 C          -4.8285    2.4912   -0.3274 C.ar    1  LIG1       -0.0272
     17 C          -5.6442    3.6172   -0.4392 C.ar    1  LIG1        0.0517
     18 C          -6.9897    3.4619   -0.0641 C.ar    1  LIG1        0.0954
     19 N          -7.4548    2.2966    0.3871 N.ar    1  LIG1       -0.2381
     20 H          -3.7866    2.5618   -0.6261 H       1  LIG1        0.0644
     21 S          -7.5231   -0.2071    1.1159 S.3     1  LIG1       -0.1227
     22 H          -6.4310   -0.8179    1.6068 H       1  LIG1        0.1086
     23 N          -5.1194    4.8286   -0.8768 N.pl3   1  LIG1       -0.3563
     24 H          -4.2698    4.7472   -1.4168 H       1  LIG1        0.1424
     25 H          -5.7873    5.4546   -1.3041 H       1  LIG1        0.1424
     26 C          -9.1853    4.5489   -0.8131 C.ar    1  LIG1        0.1040
     27 C          -7.9510    4.5977   -0.1368 C.ar    1  LIG1        0.0356
     28 C          -7.6235    5.7981    0.4828 C.ar    1  LIG1       -0.0272
     29 C          -8.4635    6.9100    0.4225 C.ar    1  LIG1        0.0517
     30 C          -9.6545    6.7655   -0.3099 C.ar    1  LIG1        0.0954
     31 N          -9.9726    5.6115   -0.8970 N.ar    1  LIG1       -0.2381
     32 H          -6.6822    5.8743    1.0194 H       1  LIG1        0.0644
     33 S          -9.8050    3.1264   -1.6886 S.3     1  LIG1       -0.1227
     34 H          -9.1651    2.2164   -0.9335 H       1  LIG1        0.1086
     35 N          -8.1282    8.0853    1.0856 N.pl3   1  LIG1       -0.3563
     36 H          -7.1429    8.1947    1.2774 H       1  LIG1        0.1424
     37 H          -8.5454    8.9234    0.7070 H       1  LIG1        0.1424
     38 C         -11.0890    8.3869   -1.6752 C.ar    1  LIG1        0.1033
     39 C         -10.6218    7.8917   -0.4427 C.ar    1  LIG1        0.0355
     40 C         -11.0977    8.5028    0.7153 C.ar    1  LIG1       -0.0278
     41 C         -11.9765    9.5827    0.6466 C.ar    1  LIG1        0.0436
     42 C         -12.3252   10.0183   -0.6334 C.ar    1  LIG1        0.0495
     43 N         -11.9032    9.4336   -1.7455 N.ar    1  LIG1       -0.2465
     44 H         -10.7741    8.1295    1.6826 H       1  LIG1        0.0644
     45 H         -12.9884   10.8733   -0.7569 H       1  LIG1        0.0849
     46 S         -10.6067    7.7457   -3.2681 S.3     1  LIG1       -0.1228
     47 H         -10.4018    6.4841   -2.8518 H       1  LIG1        0.1086
     48 N         -12.5147   10.1672    1.7846 N.pl3   1  LIG1       -0.3568
     49 H         -11.9837   10.0502    2.6342 H       1  LIG1        0.1424
     50 H         -12.8650   11.1065    1.6700 H       1  LIG1        0.1424
@<TRIPOS>BOND
     1    46    47    1
     2    46    38    1
     3    12    11    1
     4    13    11    1
     5    11     4    1
     6    43    38   ar
     7    43    42   ar
     8    33    34    1
     9    33    26    1
    10    38    39   ar
    11     7     3    1
    12    24    23    1
    13    25    23    1
    14     4     3   ar
    15     4     5   ar
    16    31    26   ar
    17    31    30   ar
    18    23    17    1
    19    26    27   ar
    20    45    42    1
    21     3     2   ar
    22    42    41   ar
    23    20    16    1
    24    39    30    1
    25    39    40   ar
    26    17    16   ar
    27    17    18   ar
    28    16    15   ar
    29    30    29   ar
    30    27    18    1
    31    27    28   ar
    32    18    19   ar
    33    15     5    1
    34    15    14   ar
    35     5     6   ar
    36    19    14   ar
    37    29    28   ar
    38    29    35    1
    39    28    32    1
    40     2     8    1
    41     2     1   ar
    42    14    21    1
    43    41    40   ar
    44    41    48    1
    45    37    35    1
    46    40    44    1
    47    35    36    1
    48    21    22    1
    49     6     1   ar
    50     1     9    1
    51    50    48    1
    52    48    49    1
    53    10     9    1
