@<TRIPOS>MOLECULE
mol_data/opt/cam/geoms/mol2/6gi.out
 15 15 0 0 0
SMALL
GASTEIGER

@<TRIPOS>ATOM
      1 C          -4.5658   -2.0472    0.0320 C.ar    1  LIG1        0.0939
      2 C          -3.1721   -2.0386   -0.0635 C.ar    1  LIG1       -0.0298
      3 C          -2.5281   -0.8145   -0.0755 C.ar    1  LIG1       -0.0549
      4 C          -3.2645    0.3681    0.0061 C.ar    1  LIG1       -0.0323
      5 C          -4.6451    0.2291    0.0972 C.ar    1  LIG1        0.0317
      6 N          -5.2878   -0.9382    0.1106 N.ar    1  LIG1       -0.2487
      7 H          -1.4445   -0.7759   -0.1489 H       1  LIG1        0.0621
      8 H          -2.6092   -2.9627   -0.1264 H       1  LIG1        0.0644
      9 H          -5.2749    1.1144    0.1637 H       1  LIG1        0.0832
     10 S          -5.5340   -3.5402    0.0591 S.3     1  LIG1       -0.1234
     11 H          -4.5038   -4.3973   -0.0343 H       1  LIG1        0.1086
     12 C          -2.6068    1.7197   -0.0035 C.3     1  LIG1       -0.0383
     13 H          -3.3482    2.5184    0.0685 H       1  LIG1        0.0278
     14 H          -2.0343    1.8783   -0.9224 H       1  LIG1        0.0278
     15 H          -1.9133    1.8320    0.8354 H       1  LIG1        0.0278
@<TRIPOS>BOND
     1    14    12    1
     2     7     3    1
     3     8     2    1
     4     3     2   ar
     5     3     4   ar
     6     2     1   ar
     7    11    10    1
     8    12     4    1
     9    12    13    1
    10    12    15    1
    11     4     5   ar
    12     1    10    1
    13     1     6   ar
    14     5     6   ar
    15     5     9    1
