@<TRIPOS>MOLECULE
mol_data/opt/cam/geoms/mol2/6gi6gi6gi-6gi.out
 54 57 0 0 0
SMALL
GASTEIGER

@<TRIPOS>ATOM
      1 C          -3.5646   -1.5122   -1.7959 C.ar    1  LIG1        0.0946
      2 C          -2.7477   -2.0330   -0.7927 C.ar    1  LIG1       -0.0297
      3 C          -2.8190   -1.4466    0.4561 C.ar    1  LIG1       -0.0543
      4 C          -3.6540   -0.3541    0.6986 C.ar    1  LIG1       -0.0243
      5 C          -4.4038    0.1111   -0.3908 C.ar    1  LIG1        0.0777
      6 N          -4.3644   -0.4759   -1.5942 N.ar    1  LIG1       -0.2404
      7 H          -2.2215   -1.8469    1.2702 H       1  LIG1        0.0622
      8 H          -2.0949   -2.8779   -0.9768 H       1  LIG1        0.0644
      9 S          -3.6363   -2.1660   -3.4467 S.3     1  LIG1       -0.1234
     10 H          -2.8015   -3.1980   -3.2408 H       1  LIG1        0.1086
     11 C          -3.7342    0.2341    2.0831 C.3     1  LIG1       -0.0377
     12 H          -4.7295    0.6232    2.3019 H       1  LIG1        0.0278
     13 H          -3.0248    1.0564    2.2204 H       1  LIG1        0.0278
     14 H          -3.4949   -0.5261    2.8301 H       1  LIG1        0.0278
     15 C          -6.6640    1.3060   -0.5985 C.ar    1  LIG1        0.1038
     16 C          -5.2920    1.3040   -0.2831 C.ar    1  LIG1        0.0325
     17 C          -4.7659    2.5073    0.1692 C.ar    1  LIG1       -0.0451
     18 C          -5.5382    3.6554    0.3255 C.ar    1  LIG1       -0.0237
     19 C          -6.8969    3.5307    0.0098 C.ar    1  LIG1        0.0777
     20 N          -7.4216    2.3819   -0.4276 N.ar    1  LIG1       -0.2397
     21 H          -3.7095    2.5522    0.4172 H       1  LIG1        0.0628
     22 S          -7.5801   -0.0980   -1.1841 S.3     1  LIG1       -0.1227
     23 H          -6.5190   -0.7778   -1.6496 H       1  LIG1        0.1086
     24 C          -4.9068    4.9188    0.8487 C.3     1  LIG1       -0.0377
     25 H          -5.5981    5.4898    1.4703 H       1  LIG1        0.0278
     26 H          -4.5766    5.5770    0.0388 H       1  LIG1        0.0278
     27 H          -4.0260    4.6807    1.4494 H       1  LIG1        0.0278
     28 C          -9.0208    4.6658    0.8881 C.ar    1  LIG1        0.1038
     29 C          -7.8418    4.6788    0.1199 C.ar    1  LIG1        0.0325
     30 C          -7.5629    5.8611   -0.5541 C.ar    1  LIG1       -0.0451
     31 C          -8.3799    6.9850   -0.4676 C.ar    1  LIG1       -0.0237
     32 C          -9.5056    6.8680    0.3572 C.ar    1  LIG1        0.0777
     33 N          -9.7937    5.7375    1.0089 N.ar    1  LIG1       -0.2397
     34 H          -6.6689    5.9120   -1.1688 H       1  LIG1        0.0628
     35 S          -9.5977    3.2812    1.8406 S.3     1  LIG1       -0.1227
     36 H          -8.9411    2.3436    1.1369 H       1  LIG1        0.1086
     37 C          -8.0102    8.2449   -1.2047 C.3     1  LIG1       -0.0377
     38 H          -8.2600    9.1371   -0.6281 H       1  LIG1        0.0278
     39 H          -8.5285    8.3231   -2.1654 H       1  LIG1        0.0278
     40 H          -6.9380    8.2618   -1.4136 H       1  LIG1        0.0278
     41 C         -10.7867    8.5666    1.7851 C.ar    1  LIG1        0.1031
     42 C         -10.4678    7.9935    0.5377 C.ar    1  LIG1        0.0325
     43 C         -11.1012    8.5294   -0.5783 C.ar    1  LIG1       -0.0457
     44 C         -11.9756    9.6073   -0.4719 C.ar    1  LIG1       -0.0317
     45 C         -12.1576   10.1196    0.8066 C.ar    1  LIG1        0.0318
     46 N         -11.5932    9.6146    1.8998 N.ar    1  LIG1       -0.2481
     47 H         -10.9066    8.0915   -1.5537 H       1  LIG1        0.0628
     48 H         -12.8041   10.9816    0.9617 H       1  LIG1        0.0832
     49 S         -10.1174    8.0252    3.3425 S.3     1  LIG1       -0.1228
     50 H          -9.8507    6.7668    2.9550 H       1  LIG1        0.1086
     51 C         -12.6833   10.1827   -1.6664 C.3     1  LIG1       -0.0383
     52 H         -13.1965   11.1118   -1.4088 H       1  LIG1        0.0278
     53 H         -13.4331    9.4876   -2.0571 H       1  LIG1        0.0278
     54 H         -11.9850   10.3994   -2.4799 H       1  LIG1        0.0278
@<TRIPOS>BOND
     1     9    10    1
     2     9     1    1
     3    54    51    1
     4    39    37    1
     5    53    51    1
     6     1     6   ar
     7     1     2   ar
     8    51    52    1
     9    51    44    1
    10    23    22    1
    11     6     5   ar
    12    47    43    1
    13    40    37    1
    14    37    38    1
    15    37    31    1
    16    22    15    1
    17    34    30    1
    18     8     2    1
    19     2     3   ar
    20    15    20   ar
    21    15    16   ar
    22    43    44   ar
    23    43    42   ar
    24    30    31   ar
    25    30    29   ar
    26    44    45   ar
    27    31    32   ar
    28    20    19   ar
    29     5    16    1
    30     5     4   ar
    31    16    17   ar
    32    19    29    1
    33    19    18   ar
    34    26    24    1
    35    29    28   ar
    36    17    18   ar
    37    17    21    1
    38    18    24    1
    39    32    42    1
    40    32    33   ar
    41     3     4   ar
    42     3     7    1
    43    42    41   ar
    44     4    11    1
    45    45    48    1
    46    45    46   ar
    47    24    27    1
    48    24    25    1
    49    28    33   ar
    50    28    35    1
    51    36    35    1
    52    41    46   ar
    53    41    49    1
    54    11    13    1
    55    11    12    1
    56    11    14    1
    57    50    49    1
