@<TRIPOS>MOLECULE
mol_data/opt/cam/geoms/mol2/6gi6gi-6gi.out
 41 43 0 0 0
SMALL
GASTEIGER

@<TRIPOS>ATOM
      1 C          -4.0974   -1.7858   -1.3924 C.ar    1  LIG1        0.0946
      2 C          -2.9475   -2.0576   -0.6518 C.ar    1  LIG1       -0.0297
      3 C          -2.6187   -1.1772    0.3609 C.ar    1  LIG1       -0.0543
      4 C          -3.3904   -0.0418    0.6146 C.ar    1  LIG1       -0.0243
      5 C          -4.5038    0.1539   -0.2149 C.ar    1  LIG1        0.0777
      6 N          -4.8460   -0.7149   -1.1752 N.ar    1  LIG1       -0.2404
      7 H          -1.7483   -1.3747    0.9801 H       1  LIG1        0.0622
      8 H          -2.3431   -2.9354   -0.8474 H       1  LIG1        0.0644
      9 S          -4.6963   -2.8287   -2.7009 S.3     1  LIG1       -0.1234
     10 H          -3.7758   -3.7968   -2.5613 H       1  LIG1        0.1086
     11 C          -3.0240    0.8738    1.7534 C.3     1  LIG1       -0.0377
     12 H          -3.9055    1.3263    2.2095 H       1  LIG1        0.0278
     13 H          -2.3693    1.6889    1.4291 H       1  LIG1        0.0278
     14 H          -2.4884    0.3181    2.5264 H       1  LIG1        0.0278
     15 C          -6.7705    1.3077    0.1167 C.ar    1  LIG1        0.1038
     16 C          -5.3787    1.3546   -0.0872 C.ar    1  LIG1        0.0325
     17 C          -4.8125    2.6215   -0.1560 C.ar    1  LIG1       -0.0451
     18 C          -5.5597    3.7874   -0.0146 C.ar    1  LIG1       -0.0237
     19 C          -6.9307    3.6177    0.2170 C.ar    1  LIG1        0.0777
     20 N          -7.4937    2.4076    0.2835 N.ar    1  LIG1       -0.2397
     21 H          -3.7422    2.7047   -0.3209 H       1  LIG1        0.0628
     22 S          -7.7337   -0.1787    0.2514 S.3     1  LIG1       -0.1227
     23 H          -6.8593   -0.9754   -0.3848 H       1  LIG1        0.1086
     24 C          -4.8795    5.1297   -0.0736 C.3     1  LIG1       -0.0377
     25 H          -5.3361    5.8433    0.6141 H       1  LIG1        0.0278
     26 H          -4.9259    5.5680   -1.0754 H       1  LIG1        0.0278
     27 H          -3.8232    5.0314    0.1874 H       1  LIG1        0.0278
     28 C          -8.6647    4.9946    1.5086 C.ar    1  LIG1        0.1031
     29 C          -7.8513    4.7803    0.3774 C.ar    1  LIG1        0.0325
     30 C          -7.9294    5.7268   -0.6385 C.ar    1  LIG1       -0.0457
     31 C          -8.7399    6.8527   -0.5251 C.ar    1  LIG1       -0.0317
     32 C          -9.4440    6.9780    0.6660 C.ar    1  LIG1        0.0318
     33 N          -9.4178    6.0792    1.6458 N.ar    1  LIG1       -0.2481
     34 H          -7.3430    5.5777   -1.5411 H       1  LIG1        0.0628
     35 H         -10.0744    7.8487    0.8379 H       1  LIG1        0.0832
     36 S          -8.7472    3.9058    2.9132 S.3     1  LIG1       -0.1228
     37 H          -8.3630    2.7971    2.2588 H       1  LIG1        0.1086
     38 C          -8.8511    7.8711   -1.6247 C.3     1  LIG1       -0.0383
     39 H          -9.3908    8.7581   -1.2855 H       1  LIG1        0.0278
     40 H          -9.3888    7.4666   -2.4880 H       1  LIG1        0.0278
     41 H          -7.8659    8.1913   -1.9756 H       1  LIG1        0.0278
@<TRIPOS>BOND
     1     9    10    1
     2     9     1    1
     3    40    38    1
     4    41    38    1
     5    38    39    1
     6    38    31    1
     7    34    30    1
     8     1     6   ar
     9     1     2   ar
    10     6     5   ar
    11    26    24    1
    12     8     2    1
    13     2     3   ar
    14    30    31   ar
    15    30    29   ar
    16    31    32   ar
    17    23    22    1
    18    21    17    1
    19     5    16    1
    20     5     4   ar
    21    17    16   ar
    22    17    18   ar
    23    16    15   ar
    24    24    18    1
    25    24    27    1
    26    24    25    1
    27    18    19   ar
    28    15    22    1
    29    15    20   ar
    30    19    20   ar
    31    19    29    1
    32     3     4   ar
    33     3     7    1
    34    29    28   ar
    35     4    11    1
    36    32    35    1
    37    32    33   ar
    38    13    11    1
    39    28    33   ar
    40    28    36    1
    41    11    12    1
    42    11    14    1
    43    37    36    1
