@<TRIPOS>MOLECULE
mol_data/opt/cam/geoms/mol2/6gi6gi-6gi-6gi-.out
 54 57 0 0 0
SMALL
GASTEIGER

@<TRIPOS>ATOM
      1 C          -3.5451   -1.5004   -1.7941 C.ar    1  LIG1        0.0946
      2 C          -2.7409   -2.0292   -0.7847 C.ar    1  LIG1       -0.0297
      3 C          -2.8274   -1.4521    0.4675 C.ar    1  LIG1       -0.0543
      4 C          -3.6649   -0.3611    0.7078 C.ar    1  LIG1       -0.0243
      5 C          -4.4009    0.1127   -0.3873 C.ar    1  LIG1        0.0777
      6 N          -4.3468   -0.4652   -1.5945 N.ar    1  LIG1       -0.2404
      7 H          -2.2403   -1.8589    1.2859 H       1  LIG1        0.0622
      8 H          -2.0862   -2.8730   -0.9672 H       1  LIG1        0.0644
      9 S          -3.5965   -2.1417   -3.4505 S.3     1  LIG1       -0.1234
     10 H          -2.7648   -3.1756   -3.2420 H       1  LIG1        0.1086
     11 C          -3.7620    0.2167    2.0956 C.3     1  LIG1       -0.0377
     12 H          -4.7598    0.6046    2.3050 H       1  LIG1        0.0278
     13 H          -3.0540    1.0375    2.2479 H       1  LIG1        0.0278
     14 H          -3.5323   -0.5492    2.8398 H       1  LIG1        0.0278
     15 C          -6.6579    1.3103   -0.6140 C.ar    1  LIG1        0.1038
     16 C          -5.2899    1.3052   -0.2815 C.ar    1  LIG1        0.0325
     17 C          -4.7690    2.5048    0.1863 C.ar    1  LIG1       -0.0451
     18 C          -5.5427    3.6521    0.3417 C.ar    1  LIG1       -0.0237
     19 C          -6.8974    3.5305    0.0082 C.ar    1  LIG1        0.0777
     20 N          -7.4171    2.3853   -0.4443 N.ar    1  LIG1       -0.2397
     21 H          -3.7157    2.5473    0.4477 H       1  LIG1        0.0628
     22 S          -7.5672   -0.0887   -1.2214 S.3     1  LIG1       -0.1227
     23 H          -6.5008   -0.7656   -1.6788 H       1  LIG1        0.1086
     24 C          -4.9173    4.9112    0.8822 C.3     1  LIG1       -0.0377
     25 H          -5.6160    5.4779    1.4994 H       1  LIG1        0.0278
     26 H          -4.5768    5.5753    0.0814 H       1  LIG1        0.0278
     27 H          -4.0441    4.6681    1.4919 H       1  LIG1        0.0278
     28 C          -9.0315    4.6600    0.8686 C.ar    1  LIG1        0.1038
     29 C          -7.8431    4.6781    0.1152 C.ar    1  LIG1        0.0325
     30 C          -7.5553    5.8654   -0.5463 C.ar    1  LIG1       -0.0451
     31 C          -8.3728    6.9890   -0.4614 C.ar    1  LIG1       -0.0237
     32 C          -9.5088    6.8664    0.3484 C.ar    1  LIG1        0.0777
     33 N          -9.8054    5.7312    0.9879 N.ar    1  LIG1       -0.2397
     34 H          -6.6537    5.9205   -1.1494 H       1  LIG1        0.0628
     35 S          -9.6208    3.2685    1.8035 S.3     1  LIG1       -0.1227
     36 H          -8.9559    2.3360    1.1009 H       1  LIG1        0.1086
     37 C          -7.9935    8.2543   -1.1844 C.3     1  LIG1       -0.0377
     38 H          -8.2500    9.1422   -0.6042 H       1  LIG1        0.0278
     39 H          -8.4999    8.3400   -2.1509 H       1  LIG1        0.0278
     40 H          -6.9188    8.2722   -1.3798 H       1  LIG1        0.0278
     41 C         -10.8067    8.5548    1.7731 C.ar    1  LIG1        0.1031
     42 C         -10.4727    7.9910    0.5254 C.ar    1  LIG1        0.0325
     43 C         -11.0919    8.5356   -0.5943 C.ar    1  LIG1       -0.0457
     44 C         -11.9672    9.6132   -0.4905 C.ar    1  LIG1       -0.0317
     45 C         -12.1648   10.1159    0.7894 C.ar    1  LIG1        0.0318
     46 N         -11.6142    9.6024    1.8857 N.ar    1  LIG1       -0.2481
     47 H         -10.8854    8.1050   -1.5704 H       1  LIG1        0.0628
     48 H         -12.8127   10.9771    0.9429 H       1  LIG1        0.0832
     49 S         -10.1571    8.0014    3.3345 S.3     1  LIG1       -0.1228
     50 H          -9.8861    6.7458    2.9408 H       1  LIG1        0.1086
     51 C         -12.6597   10.1979   -1.6893 C.3     1  LIG1       -0.0383
     52 H         -13.1757   11.1253   -1.4312 H       1  LIG1        0.0278
     53 H         -13.4049    9.5062   -2.0945 H       1  LIG1        0.0278
     54 H         -11.9513   10.4203   -2.4925 H       1  LIG1        0.0278
@<TRIPOS>BOND
     1     9    10    1
     2     9     1    1
     3    54    51    1
     4    39    37    1
     5    53    51    1
     6     1     6   ar
     7     1     2   ar
     8    51    52    1
     9    51    44    1
    10    23    22    1
    11     6     5   ar
    12    47    43    1
    13    40    37    1
    14    22    15    1
    15    37    38    1
    16    37    31    1
    17    34    30    1
    18     8     2    1
    19     2     3   ar
    20    15    20   ar
    21    15    16   ar
    22    43    44   ar
    23    43    42   ar
    24    30    31   ar
    25    30    29   ar
    26    44    45   ar
    27    31    32   ar
    28    20    19   ar
    29     5    16    1
    30     5     4   ar
    31    16    17   ar
    32    19    29    1
    33    19    18   ar
    34    26    24    1
    35    29    28   ar
    36    17    18   ar
    37    17    21    1
    38    18    24    1
    39    32    42    1
    40    32    33   ar
    41     3     4   ar
    42     3     7    1
    43    42    41   ar
    44     4    11    1
    45    45    48    1
    46    45    46   ar
    47    28    33   ar
    48    28    35    1
    49    24    27    1
    50    24    25    1
    51    36    35    1
    52    41    46   ar
    53    41    49    1
    54    11    13    1
    55    11    12    1
    56    11    14    1
    57    50    49    1
