@<TRIPOS>MOLECULE
mol_data/opt/cam/geoms/mol2/6gi6gi6gi-6gi-.out
 54 57 0 0 0
SMALL
GASTEIGER

@<TRIPOS>ATOM
      1 C          -3.5724   -1.5163   -1.7969 C.ar    1  LIG1        0.0946
      2 C          -2.7524   -2.0358   -0.7955 C.ar    1  LIG1       -0.0297
      3 C          -2.8193   -1.4473    0.4526 C.ar    1  LIG1       -0.0543
      4 C          -3.6532   -0.3542    0.6960 C.ar    1  LIG1       -0.0243
      5 C          -4.4064    0.1096   -0.3916 C.ar    1  LIG1        0.0777
      6 N          -4.3712   -0.4793   -1.5942 N.ar    1  LIG1       -0.2404
      7 H          -2.2194   -1.8465    1.2653 H       1  LIG1        0.0622
      8 H          -2.1004   -2.8811   -0.9805 H       1  LIG1        0.0644
      9 S          -3.6497   -2.1726   -3.4464 S.3     1  LIG1       -0.1234
     10 H          -2.8146   -3.2045   -3.2416 H       1  LIG1        0.1086
     11 C          -3.7287    0.2362    2.0799 C.3     1  LIG1       -0.0377
     12 H          -4.7232    0.6260    2.3013 H       1  LIG1        0.0278
     13 H          -3.0186    1.0585    2.2136 H       1  LIG1        0.0278
     14 H          -3.4872   -0.5229    2.8273 H       1  LIG1        0.0278
     15 C          -6.6669    1.3049   -0.5938 C.ar    1  LIG1        0.1038
     16 C          -5.2939    1.3029   -0.2828 C.ar    1  LIG1        0.0325
     17 C          -4.7660    2.5067    0.1658 C.ar    1  LIG1       -0.0451
     18 C          -5.5374    3.6554    0.3229 C.ar    1  LIG1       -0.0237
     19 C          -6.8972    3.5306    0.0118 C.ar    1  LIG1        0.0777
     20 N          -7.4237    2.3813   -0.4220 N.ar    1  LIG1       -0.2397
     21 H          -3.7088    2.5517    0.4103 H       1  LIG1        0.0628
     22 S          -7.5854   -0.0997   -1.1741 S.3     1  LIG1       -0.1227
     23 H          -6.5261   -0.7806   -1.6421 H       1  LIG1        0.1086
     24 C          -4.9039    4.9194    0.8420 C.3     1  LIG1       -0.0377
     25 H          -5.5930    5.4916    1.4650 H       1  LIG1        0.0278
     26 H          -4.5761    5.5762    0.0300 H       1  LIG1        0.0278
     27 H          -4.0212    4.6819    1.4402 H       1  LIG1        0.0278
     28 C          -9.0178    4.6678    0.8953 C.ar    1  LIG1        0.1038
     29 C          -7.8413    4.6791    0.1232 C.ar    1  LIG1        0.0325
     30 C          -7.5642    5.8603   -0.5536 C.ar    1  LIG1       -0.0451
     31 C          -8.3805    6.9846   -0.4661 C.ar    1  LIG1       -0.0237
     32 C          -9.5036    6.8693    0.3625 C.ar    1  LIG1        0.0777
     33 N          -9.7900    5.7399    1.0169 N.ar    1  LIG1       -0.2397
     34 H          -6.6722    5.9100   -1.1712 H       1  LIG1        0.0628
     35 S          -9.5920    3.2848    1.8519 S.3     1  LIG1       -0.1227
     36 H          -8.9380    2.3460    1.1475 H       1  LIG1        0.1086
     37 C          -8.0129    8.2433   -1.2064 C.3     1  LIG1       -0.0377
     38 H          -8.2605    9.1364   -0.6304 H       1  LIG1        0.0278
     39 H          -8.5343    8.3201   -2.1656 H       1  LIG1        0.0278
     40 H          -6.9414    8.2595   -1.4188 H       1  LIG1        0.0278
     41 C         -10.7795    8.5705    1.7920 C.ar    1  LIG1        0.1031
     42 C         -10.4649    7.9954    0.5444 C.ar    1  LIG1        0.0325
     43 C         -11.1017    8.5297   -0.5703 C.ar    1  LIG1       -0.0457
     44 C         -11.9755    9.6081   -0.4627 C.ar    1  LIG1       -0.0317
     45 C         -12.1531   10.1224    0.8155 C.ar    1  LIG1        0.0318
     46 N         -11.5853    9.6190    1.9077 N.ar    1  LIG1       -0.2481
     47 H         -10.9105    8.0903   -1.5456 H       1  LIG1        0.0628
     48 H         -12.7988   10.9849    0.9714 H       1  LIG1        0.0832
     49 S         -10.1053    8.0314    3.3480 S.3     1  LIG1       -0.1228
     50 H          -9.8403    6.7723    2.9616 H       1  LIG1        0.1086
     51 C         -12.6868   10.1818   -1.6558 C.3     1  LIG1       -0.0383
     52 H         -13.1990   11.1115   -1.3980 H       1  LIG1        0.0278
     53 H         -13.4381    9.4864   -2.0430 H       1  LIG1        0.0278
     54 H         -11.9912   10.3970   -2.4720 H       1  LIG1        0.0278
@<TRIPOS>BOND
     1     9    10    1
     2     9     1    1
     3    54    51    1
     4    39    37    1
     5    53    51    1
     6     1     6   ar
     7     1     2   ar
     8    51    52    1
     9    51    44    1
    10    23    22    1
    11     6     5   ar
    12    47    43    1
    13    40    37    1
    14    37    38    1
    15    37    31    1
    16    22    15    1
    17    34    30    1
    18     8     2    1
    19     2     3   ar
    20    15    20   ar
    21    15    16   ar
    22    43    44   ar
    23    43    42   ar
    24    30    31   ar
    25    30    29   ar
    26    31    32   ar
    27    44    45   ar
    28    20    19   ar
    29     5    16    1
    30     5     4   ar
    31    16    17   ar
    32    19    29    1
    33    19    18   ar
    34    26    24    1
    35    29    28   ar
    36    17    18   ar
    37    17    21    1
    38    18    24    1
    39    32    42    1
    40    32    33   ar
    41     3     4   ar
    42     3     7    1
    43    42    41   ar
    44     4    11    1
    45    45    48    1
    46    45    46   ar
    47    24    27    1
    48    24    25    1
    49    28    33   ar
    50    28    35    1
    51    36    35    1
    52    41    46   ar
    53    41    49    1
    54    11    13    1
    55    11    12    1
    56    11    14    1
    57    50    49    1
