@<TRIPOS>MOLECULE
mol_data/opt/cam/geoms/mol2/6gi6gi-6gi-.out
 41 43 0 0 0
SMALL
GASTEIGER

@<TRIPOS>ATOM
      1 C          -4.0911   -1.7796   -1.4016 C.ar    1  LIG1        0.0946
      2 C          -2.9450   -2.0551   -0.6564 C.ar    1  LIG1       -0.0297
      3 C          -2.6212   -1.1794    0.3620 C.ar    1  LIG1       -0.0543
      4 C          -3.3940   -0.0451    0.6170 C.ar    1  LIG1       -0.0243
      5 C          -4.5032    0.1547   -0.2171 C.ar    1  LIG1        0.0777
      6 N          -4.8406   -0.7096   -1.1833 N.ar    1  LIG1       -0.2404
      7 H          -1.7540   -1.3800    0.9847 H       1  LIG1        0.0622
      8 H          -2.3398   -2.9321   -0.8531 H       1  LIG1        0.0644
      9 S          -4.6835   -2.8163   -2.7179 S.3     1  LIG1       -0.1234
     10 H          -3.7638   -3.7852   -2.5782 H       1  LIG1        0.1086
     11 C          -3.0333    0.8651    1.7619 C.3     1  LIG1       -0.0377
     12 H          -3.9170    1.3157    2.2157 H       1  LIG1        0.0278
     13 H          -2.3768    1.6816    1.4448 H       1  LIG1        0.0278
     14 H          -2.5016    0.3058    2.5351 H       1  LIG1        0.0278
     15 C          -6.7713    1.3073    0.1083 C.ar    1  LIG1        0.1038
     16 C          -5.3785    1.3549   -0.0884 C.ar    1  LIG1        0.0325
     17 C          -4.8118    2.6220   -0.1484 C.ar    1  LIG1       -0.0451
     18 C          -5.5595    3.7874   -0.0053 C.ar    1  LIG1       -0.0237
     19 C          -6.9317    3.6168    0.2185 C.ar    1  LIG1        0.0777
     20 N          -7.4952    2.4066    0.2765 N.ar    1  LIG1       -0.2397
     21 H          -3.7406    2.7058   -0.3074 H       1  LIG1        0.0628
     22 S          -7.7355   -0.1795    0.2312 S.3     1  LIG1       -0.1227
     23 H          -6.8579   -0.9735   -0.4043 H       1  LIG1        0.1086
     24 C          -4.8788    5.1299   -0.0546 C.3     1  LIG1       -0.0377
     25 H          -5.3387    5.8403    0.6340 H       1  LIG1        0.0278
     26 H          -4.9201    5.5728   -1.0546 H       1  LIG1        0.0278
     27 H          -3.8238    5.0301    0.2113 H       1  LIG1        0.0278
     28 C          -8.6720    4.9880    1.5077 C.ar    1  LIG1        0.1031
     29 C          -7.8529    4.7789    0.3797 C.ar    1  LIG1        0.0325
     30 C          -7.9257    5.7301   -0.6322 C.ar    1  LIG1       -0.0457
     31 C          -8.7366    6.8556   -0.5176 C.ar    1  LIG1       -0.0317
     32 C          -9.4466    6.9755    0.6704 C.ar    1  LIG1        0.0318
     33 N          -9.4256    6.0721    1.6461 N.ar    1  LIG1       -0.2481
     34 H          -7.3347    5.5851   -1.5325 H       1  LIG1        0.0628
     35 H         -10.0778    7.8455    0.8432 H       1  LIG1        0.0832
     36 S          -8.7618    3.8927    2.9068 S.3     1  LIG1       -0.1228
     37 H          -8.3745    2.7870    2.2492 H       1  LIG1        0.1086
     38 C          -8.8420    7.8792   -1.6130 C.3     1  LIG1       -0.0383
     39 H          -9.3830    8.7647   -1.2724 H       1  LIG1        0.0278
     40 H          -9.3757    7.4789   -2.4808 H       1  LIG1        0.0278
     41 H          -7.8550    8.2006   -1.9576 H       1  LIG1        0.0278
@<TRIPOS>BOND
     1     9    10    1
     2     9     1    1
     3    40    38    1
     4    41    38    1
     5    38    39    1
     6    38    31    1
     7    34    30    1
     8     1     6   ar
     9     1     2   ar
    10     6     5   ar
    11    26    24    1
    12     8     2    1
    13     2     3   ar
    14    30    31   ar
    15    30    29   ar
    16    31    32   ar
    17    23    22    1
    18    21    17    1
    19     5    16    1
    20     5     4   ar
    21    17    16   ar
    22    17    18   ar
    23    16    15   ar
    24    24    18    1
    25    24    27    1
    26    24    25    1
    27    18    19   ar
    28    15    22    1
    29    15    20   ar
    30    19    20   ar
    31    19    29    1
    32     3     4   ar
    33     3     7    1
    34    29    28   ar
    35     4    11    1
    36    32    35    1
    37    32    33   ar
    38    13    11    1
    39    28    33   ar
    40    28    36    1
    41    11    12    1
    42    11    14    1
    43    37    36    1
