@<TRIPOS>MOLECULE
mol_data/opt/cam/geoms/mol2/6gi6gi6gi.out
 41 43 0 0 0
SMALL
GASTEIGER

@<TRIPOS>ATOM
      1 C          -4.1047   -1.7904   -1.3874 C.ar    1  LIG1        0.0946
      2 C          -2.9494   -2.0586   -0.6539 C.ar    1  LIG1       -0.0297
      3 C          -2.6139   -1.1738    0.3528 C.ar    1  LIG1       -0.0543
      4 C          -3.3845   -0.0378    0.6073 C.ar    1  LIG1       -0.0243
      5 C          -4.5039    0.1539   -0.2150 C.ar    1  LIG1        0.0777
      6 N          -4.8523   -0.7191   -1.1693 N.ar    1  LIG1       -0.2404
      7 H          -1.7390   -1.3683    0.9666 H       1  LIG1        0.0622
      8 H          -2.3459   -2.9368   -0.8503 H       1  LIG1        0.0644
      9 S          -4.7123   -2.8390   -2.6874 S.3     1  LIG1       -0.1234
     10 H          -3.7903   -3.8060   -2.5504 H       1  LIG1        0.1086
     11 C          -3.0105    0.8825    1.7397 C.3     1  LIG1       -0.0377
     12 H          -3.8890    1.3365    2.2003 H       1  LIG1        0.0278
     13 H          -2.3586    1.6967    1.4075 H       1  LIG1        0.0278
     14 H          -2.4690    0.3304    2.5112 H       1  LIG1        0.0278
     15 C          -6.7687    1.3077    0.1281 C.ar    1  LIG1        0.1038
     16 C          -5.3785    1.3546   -0.0860 C.ar    1  LIG1        0.0325
     17 C          -4.8136    2.6215   -0.1640 C.ar    1  LIG1       -0.0451
     18 C          -5.5604    3.7876   -0.0219 C.ar    1  LIG1       -0.0237
     19 C          -6.9296    3.6180    0.2201 C.ar    1  LIG1        0.0777
     20 N          -7.4915    2.4079    0.2955 N.ar    1  LIG1       -0.2397
     21 H          -3.7445    2.7046   -0.3368 H       1  LIG1        0.0628
     22 S          -7.7302   -0.1786    0.2757 S.3     1  LIG1       -0.1227
     23 H          -6.8598   -0.9775   -0.3635 H       1  LIG1        0.1086
     24 C          -4.8814    5.1300   -0.0912 C.3     1  LIG1       -0.0377
     25 H          -5.3335    5.8461    0.5967 H       1  LIG1        0.0278
     26 H          -4.9352    5.5642   -1.0945 H       1  LIG1        0.0278
     27 H          -3.8232    5.0333    0.1626 H       1  LIG1        0.0278
     28 C          -8.6551    4.9992    1.5184 C.ar    1  LIG1        0.1031
     29 C          -7.8497    4.7808    0.3824 C.ar    1  LIG1        0.0325
     30 C          -7.9356    5.7230   -0.6368 C.ar    1  LIG1       -0.0457
     31 C          -8.7459    6.8490   -0.5222 C.ar    1  LIG1       -0.0317
     32 C          -9.4416    6.9787    0.6734 C.ar    1  LIG1        0.0318
     33 N          -9.4079    6.0840    1.6565 N.ar    1  LIG1       -0.2481
     34 H          -7.3556    5.5706   -1.5430 H       1  LIG1        0.0628
     35 H         -10.0713    7.8497    0.8462 H       1  LIG1        0.0832
     36 S          -8.7270    3.9161    2.9280 S.3     1  LIG1       -0.1228
     37 H          -8.3468    2.8050    2.2754 H       1  LIG1        0.1086
     38 C          -8.8655    7.8629   -1.6251 C.3     1  LIG1       -0.0383
     39 H          -9.4033    8.7509   -1.2857 H       1  LIG1        0.0278
     40 H          -9.4092    7.4546   -2.4829 H       1  LIG1        0.0278
     41 H          -7.8830    8.1822   -1.9843 H       1  LIG1        0.0278
@<TRIPOS>BOND
     1     9    10    1
     2     9     1    1
     3    40    38    1
     4    41    38    1
     5    38    39    1
     6    38    31    1
     7    34    30    1
     8     1     6   ar
     9     1     2   ar
    10     6     5   ar
    11    26    24    1
    12     8     2    1
    13     2     3   ar
    14    30    31   ar
    15    30    29   ar
    16    31    32   ar
    17    23    22    1
    18    21    17    1
    19     5    16    1
    20     5     4   ar
    21    17    16   ar
    22    17    18   ar
    23    24    18    1
    24    24    27    1
    25    24    25    1
    26    16    15   ar
    27    18    19   ar
    28    15    22    1
    29    15    20   ar
    30    19    20   ar
    31    19    29    1
    32     3     4   ar
    33     3     7    1
    34    29    28   ar
    35     4    11    1
    36    32    35    1
    37    32    33   ar
    38    13    11    1
    39    28    33   ar
    40    28    36    1
    41    11    12    1
    42    11    14    1
    43    37    36    1
