@<TRIPOS>MOLECULE
mol_data/opt/cam/geoms/mol2/6gi6gi6gi6gi-.out
 54 57 0 0 0
SMALL
GASTEIGER

@<TRIPOS>ATOM
      1 C          -3.5580   -1.5063   -1.7998 C.ar    1  LIG1        0.0946
      2 C          -2.7422   -2.0284   -0.7964 C.ar    1  LIG1       -0.0297
      3 C          -2.8156   -1.4443    0.4534 C.ar    1  LIG1       -0.0543
      4 C          -3.6517   -0.3529    0.6967 C.ar    1  LIG1       -0.0243
      5 C          -4.4003    0.1138   -0.3929 C.ar    1  LIG1        0.0777
      6 N          -4.3588   -0.4709   -1.5973 N.ar    1  LIG1       -0.2404
      7 H          -2.2190   -1.8457    1.2676 H       1  LIG1        0.0622
      8 H          -2.0885   -2.8725   -0.9811 H       1  LIG1        0.0644
      9 S          -3.6269   -2.1572   -3.4518 S.3     1  LIG1       -0.1234
     10 H          -2.7917   -3.1889   -3.2466 H       1  LIG1        0.1086
     11 C          -3.7343    0.2328    2.0822 C.3     1  LIG1       -0.0377
     12 H          -4.7302    0.6207    2.3003 H       1  LIG1        0.0278
     13 H          -3.0256    1.0553    2.2220 H       1  LIG1        0.0278
     14 H          -3.4955   -0.5286    2.8281 H       1  LIG1        0.0278
     15 C          -6.6611    1.3076   -0.6016 C.ar    1  LIG1        0.1038
     16 C          -5.2895    1.3059   -0.2842 C.ar    1  LIG1        0.0325
     17 C          -4.7649    2.5087    0.1710 C.ar    1  LIG1       -0.0451
     18 C          -5.5382    3.6561    0.3284 C.ar    1  LIG1       -0.0237
     19 C          -6.8964    3.5310    0.0105 C.ar    1  LIG1        0.0777
     20 N          -7.4197    2.3826   -0.4297 N.ar    1  LIG1       -0.2397
     21 H          -3.7089    2.5540    0.4206 H       1  LIG1        0.0628
     22 S          -7.5753   -0.0960   -1.1910 S.3     1  LIG1       -0.1227
     23 H          -6.5131   -0.7742   -1.6562 H       1  LIG1        0.1086
     24 C          -4.9085    4.9189    0.8547 C.3     1  LIG1       -0.0377
     25 H          -5.6010    5.4883    1.4764 H       1  LIG1        0.0278
     26 H          -4.5776    5.5788    0.0465 H       1  LIG1        0.0278
     27 H          -4.0284    4.6804    1.4562 H       1  LIG1        0.0278
     28 C          -9.0223    4.6630    0.8879 C.ar    1  LIG1        0.1038
     29 C          -7.8423    4.6781    0.1214 C.ar    1  LIG1        0.0325
     30 C          -7.5632    5.8619   -0.5501 C.ar    1  LIG1       -0.0451
     31 C          -8.3811    6.9850   -0.4626 C.ar    1  LIG1       -0.0237
     32 C          -9.5079    6.8658    0.3604 C.ar    1  LIG1        0.0777
     33 N          -9.7962    5.7339    1.0096 N.ar    1  LIG1       -0.2397
     34 H          -6.6683    5.9146   -1.1633 H       1  LIG1        0.0628
     35 S          -9.5996    3.2762    1.8371 S.3     1  LIG1       -0.1227
     36 H          -8.9414    2.3404    1.1326 H       1  LIG1        0.1086
     37 C          -8.0113    8.2466   -1.1969 C.3     1  LIG1       -0.0377
     38 H          -8.2625    9.1375   -0.6190 H       1  LIG1        0.0278
     39 H          -8.5283    8.3262   -2.1582 H       1  LIG1        0.0278
     40 H          -6.9388    8.2646   -1.4042 H       1  LIG1        0.0278
     41 C         -10.7922    8.5608    1.7896 C.ar    1  LIG1        0.1031
     42 C         -10.4712    7.9903    0.5415 C.ar    1  LIG1        0.0325
     43 C         -11.1033    8.5278   -0.5743 C.ar    1  LIG1       -0.0457
     44 C         -11.9787    9.6049   -0.4671 C.ar    1  LIG1       -0.0317
     45 C         -12.1628   10.1147    0.8120 C.ar    1  LIG1        0.0318
     46 N         -11.5996    9.6081    1.9051 N.ar    1  LIG1       -0.2481
     47 H         -10.9071    8.0918   -1.5502 H       1  LIG1        0.0628
     48 H         -12.8101   10.9760    0.9677 H       1  LIG1        0.0832
     49 S         -10.1247    8.0171    3.3469 S.3     1  LIG1       -0.1228
     50 H          -9.8566    6.7596    2.9574 H       1  LIG1        0.1086
     51 C         -12.6851   10.1820   -1.6616 C.3     1  LIG1       -0.0383
     52 H         -13.1994   11.1101   -1.4030 H       1  LIG1        0.0278
     53 H         -13.4337    9.4870   -2.0547 H       1  LIG1        0.0278
     54 H         -11.9858   10.4007   -2.4737 H       1  LIG1        0.0278
@<TRIPOS>BOND
     1     9    10    1
     2     9     1    1
     3    54    51    1
     4    39    37    1
     5    53    51    1
     6     1     6   ar
     7     1     2   ar
     8    51    52    1
     9    51    44    1
    10    23    22    1
    11     6     5   ar
    12    47    43    1
    13    40    37    1
    14    37    38    1
    15    37    31    1
    16    22    15    1
    17    34    30    1
    18     8     2    1
    19     2     3   ar
    20    15    20   ar
    21    15    16   ar
    22    43    44   ar
    23    43    42   ar
    24    30    31   ar
    25    30    29   ar
    26    44    45   ar
    27    31    32   ar
    28    20    19   ar
    29     5    16    1
    30     5     4   ar
    31    16    17   ar
    32    19    29    1
    33    19    18   ar
    34    26    24    1
    35    29    28   ar
    36    17    18   ar
    37    17    21    1
    38    18    24    1
    39    32    42    1
    40    32    33   ar
    41     3     4   ar
    42     3     7    1
    43    42    41   ar
    44     4    11    1
    45    45    48    1
    46    45    46   ar
    47    24    27    1
    48    24    25    1
    49    28    33   ar
    50    28    35    1
    51    36    35    1
    52    41    46   ar
    53    41    49    1
    54    11    13    1
    55    11    12    1
    56    11    14    1
    57    50    49    1
