@<TRIPOS>MOLECULE
mol_data/opt/cam/geoms/mol2/6gi6gi-6gi6gi.out
 54 57 0 0 0
SMALL
GASTEIGER

@<TRIPOS>ATOM
      1 C          -3.5564   -1.5103   -1.7883 C.ar    1  LIG1        0.0946
      2 C          -2.7454   -2.0331   -0.7814 C.ar    1  LIG1       -0.0297
      3 C          -2.8235   -1.4489    0.4680 C.ar    1  LIG1       -0.0543
      4 C          -3.6595   -0.3566    0.7077 C.ar    1  LIG1       -0.0243
      5 C          -4.4030    0.1108   -0.3851 C.ar    1  LIG1        0.0777
      6 N          -4.3570   -0.4740   -1.5893 N.ar    1  LIG1       -0.2404
      7 H          -2.2308   -1.8509    1.2847 H       1  LIG1        0.0622
      8 H          -2.0918   -2.8779   -0.9634 H       1  LIG1        0.0644
      9 S          -3.6190   -2.1611   -3.4406 S.3     1  LIG1       -0.1234
     10 H          -2.7858   -3.1937   -3.2319 H       1  LIG1        0.1086
     11 C          -3.7473    0.2292    2.0928 C.3     1  LIG1       -0.0377
     12 H          -4.7438    0.6182    2.3067 H       1  LIG1        0.0278
     13 H          -3.0384    1.0510    2.2356 H       1  LIG1        0.0278
     14 H          -3.5125   -0.5324    2.8398 H       1  LIG1        0.0278
     15 C          -6.6616    1.3069   -0.6034 C.ar    1  LIG1        0.1038
     16 C          -5.2914    1.3038   -0.2802 C.ar    1  LIG1        0.0325
     17 C          -4.7675    2.5062    0.1771 C.ar    1  LIG1       -0.0451
     18 C          -5.5403    3.6543    0.3312 C.ar    1  LIG1       -0.0237
     19 C          -6.8972    3.5306    0.0076 C.ar    1  LIG1        0.0777
     20 N          -7.4198    2.3827   -0.4348 N.ar    1  LIG1       -0.2397
     21 H          -3.7125    2.5503    0.4312 H       1  LIG1        0.0628
     22 S          -7.5748   -0.0957   -1.1966 S.3     1  LIG1       -0.1227
     23 H          -6.5114   -0.7751   -1.6573 H       1  LIG1        0.1086
     24 C          -4.9114    4.9165    0.8602 C.3     1  LIG1       -0.0377
     25 H          -5.6060    5.4867    1.4788 H       1  LIG1        0.0278
     26 H          -4.5764    5.5760    0.0533 H       1  LIG1        0.0278
     27 H          -4.0341    4.6771    1.4654 H       1  LIG1        0.0278
     28 C          -9.0256    4.6648    0.8759 C.ar    1  LIG1        0.1038
     29 C          -7.8423    4.6787    0.1144 C.ar    1  LIG1        0.0325
     30 C          -7.5592    5.8622   -0.5559 C.ar    1  LIG1       -0.0451
     31 C          -8.3763    6.9862   -0.4719 C.ar    1  LIG1       -0.0237
     32 C          -9.5067    6.8681    0.3462 C.ar    1  LIG1        0.0777
     33 N          -9.7989    5.7366    0.9943 N.ar    1  LIG1       -0.2397
     34 H          -6.6617    5.9139   -1.1654 H       1  LIG1        0.0628
     35 S          -9.6084    3.2787    1.8227 S.3     1  LIG1       -0.1227
     36 H          -8.9481    2.3422    1.1210 H       1  LIG1        0.1086
     37 C          -8.0020    8.2473   -1.2047 C.3     1  LIG1       -0.0377
     38 H          -8.2548    9.1386   -0.6279 H       1  LIG1        0.0278
     39 H          -8.5149    8.3274   -2.1682 H       1  LIG1        0.0278
     40 H          -6.9287    8.2642   -1.4075 H       1  LIG1        0.0278
     41 C         -10.7952    8.5646    1.7700 C.ar    1  LIG1        0.1031
     42 C         -10.4696    7.9937    0.5233 C.ar    1  LIG1        0.0325
     43 C         -11.0964    8.5318   -0.5953 C.ar    1  LIG1       -0.0457
     44 C         -11.9711    9.6098   -0.4918 C.ar    1  LIG1       -0.0317
     45 C         -12.1601   10.1198    0.7865 C.ar    1  LIG1        0.0318
     46 N         -11.6021    9.6127    1.8820 N.ar    1  LIG1       -0.2481
     47 H         -10.8965    8.0956   -1.5703 H       1  LIG1        0.0628
     48 H         -12.8072   10.9818    0.9394 H       1  LIG1        0.0832
     49 S         -10.1350    8.0202    3.3301 S.3     1  LIG1       -0.1228
     50 H          -9.8665    6.7624    2.9418 H       1  LIG1        0.1086
     51 C         -12.6718   10.1875   -1.6893 C.3     1  LIG1       -0.0383
     52 H         -13.1862   11.1163   -1.4330 H       1  LIG1        0.0278
     53 H         -13.4196    9.4934   -2.0855 H       1  LIG1        0.0278
     54 H         -11.9689   10.4054   -2.4985 H       1  LIG1        0.0278
@<TRIPOS>BOND
     1     9    10    1
     2     9     1    1
     3    54    51    1
     4    39    37    1
     5    53    51    1
     6     1     6   ar
     7     1     2   ar
     8    51    52    1
     9    51    44    1
    10    23    22    1
    11     6     5   ar
    12    47    43    1
    13    40    37    1
    14    37    38    1
    15    37    31    1
    16    22    15    1
    17    34    30    1
    18     8     2    1
    19     2     3   ar
    20    15    20   ar
    21    15    16   ar
    22    43    44   ar
    23    43    42   ar
    24    30    31   ar
    25    30    29   ar
    26    44    45   ar
    27    31    32   ar
    28    20    19   ar
    29     5    16    1
    30     5     4   ar
    31    16    17   ar
    32    19    29    1
    33    19    18   ar
    34    26    24    1
    35    29    28   ar
    36    17    18   ar
    37    17    21    1
    38    18    24    1
    39    32    42    1
    40    32    33   ar
    41     3     4   ar
    42     3     7    1
    43    42    41   ar
    44     4    11    1
    45    45    48    1
    46    45    46   ar
    47    24    27    1
    48    24    25    1
    49    28    33   ar
    50    28    35    1
    51    36    35    1
    52    41    46   ar
    53    41    49    1
    54    11    13    1
    55    11    12    1
    56    11    14    1
    57    50    49    1
