@<TRIPOS>MOLECULE
mol_data/opt/cam/geoms/mol2/6gi6gi6gi6gi.out
 54 57 0 0 0
SMALL
GASTEIGER

@<TRIPOS>ATOM
      1 C          -3.5716   -1.5177   -1.7930 C.ar    1  LIG1        0.0946
      2 C          -2.7534   -2.0375   -0.7903 C.ar    1  LIG1       -0.0297
      3 C          -2.8222   -1.4489    0.4577 C.ar    1  LIG1       -0.0543
      4 C          -3.6560   -0.3555    0.6997 C.ar    1  LIG1       -0.0243
      5 C          -4.4073    0.1085   -0.3892 C.ar    1  LIG1        0.0777
      6 N          -4.3703   -0.4805   -1.5917 N.ar    1  LIG1       -0.2404
      7 H          -2.2237   -1.8483    1.2715 H       1  LIG1        0.0622
      8 H          -2.1014   -2.8831   -0.9741 H       1  LIG1        0.0644
      9 S          -3.6465   -2.1742   -3.4426 S.3     1  LIG1       -0.1234
     10 H          -2.8121   -3.2064   -3.2363 H       1  LIG1        0.1086
     11 C          -3.7335    0.2351    2.0834 C.3     1  LIG1       -0.0377
     12 H          -4.7282    0.6252    2.3032 H       1  LIG1        0.0278
     13 H          -3.0233    1.0571    2.2182 H       1  LIG1        0.0278
     14 H          -3.4935   -0.5240    2.8313 H       1  LIG1        0.0278
     15 C          -6.6670    1.3046   -0.5951 C.ar    1  LIG1        0.1038
     16 C          -5.2945    1.3022   -0.2819 C.ar    1  LIG1        0.0325
     17 C          -4.7669    2.5058    0.1675 C.ar    1  LIG1       -0.0451
     18 C          -5.5381    3.6548    0.3232 C.ar    1  LIG1       -0.0237
     19 C          -6.8975    3.5305    0.0100 C.ar    1  LIG1        0.0777
     20 N          -7.4237    2.3813   -0.4246 N.ar    1  LIG1       -0.2397
     21 H          -3.7101    2.5505    0.4137 H       1  LIG1        0.0628
     22 S          -7.5851   -0.0997   -1.1768 S.3     1  LIG1       -0.1227
     23 H          -6.5253   -0.7810   -1.6429 H       1  LIG1        0.1086
     24 C          -4.9050    4.9186    0.8433 C.3     1  LIG1       -0.0377
     25 H          -5.5949    5.4911    1.4651 H       1  LIG1        0.0278
     26 H          -4.5757    5.5752    0.0318 H       1  LIG1        0.0278
     27 H          -4.0234    4.6809    1.4429 H       1  LIG1        0.0278
     28 C          -9.0190    4.6685    0.8899 C.ar    1  LIG1        0.1038
     29 C          -7.8414    4.6794    0.1198 C.ar    1  LIG1        0.0325
     30 C          -7.5627    5.8604   -0.5566 C.ar    1  LIG1       -0.0451
     31 C          -8.3788    6.9850   -0.4706 C.ar    1  LIG1       -0.0237
     32 C          -9.5032    6.8701    0.3562 C.ar    1  LIG1        0.0777
     33 N          -9.7910    5.7409    1.0103 N.ar    1  LIG1       -0.2397
     34 H          -6.6697    5.9097   -1.1729 H       1  LIG1        0.0628
     35 S          -9.5954    3.2858    1.8457 S.3     1  LIG1       -0.1227
     36 H          -8.9406    2.3467    1.1425 H       1  LIG1        0.1086
     37 C          -8.0095    8.2434   -1.2104 C.3     1  LIG1       -0.0377
     38 H          -8.2577    9.1367   -0.6349 H       1  LIG1        0.0278
     39 H          -8.5293    8.3204   -2.1704 H       1  LIG1        0.0278
     40 H          -6.9376    8.2592   -1.4211 H       1  LIG1        0.0278
     41 C         -10.7808    8.5719    1.7835 C.ar    1  LIG1        0.1031
     42 C         -10.4644    7.9966    0.5365 C.ar    1  LIG1        0.0325
     43 C         -11.0992    8.5311   -0.5793 C.ar    1  LIG1       -0.0457
     44 C         -11.9727    9.6098   -0.4732 C.ar    1  LIG1       -0.0317
     45 C         -12.1523   10.1243    0.8047 C.ar    1  LIG1        0.0318
     46 N         -11.5864    9.6207    1.8978 N.ar    1  LIG1       -0.2481
     47 H         -10.9066    8.0915   -1.5543 H       1  LIG1        0.0628
     48 H         -12.7979   10.9870    0.9594 H       1  LIG1        0.0832
     49 S         -10.1093    8.0327    3.3406 S.3     1  LIG1       -0.1228
     50 H          -9.8441    6.7734    2.9547 H       1  LIG1        0.1086
     51 C         -12.6820   10.1837   -1.6675 C.3     1  LIG1       -0.0383
     52 H         -13.1943   11.1135   -1.4106 H       1  LIG1        0.0278
     53 H         -13.4328    9.4884   -2.0559 H       1  LIG1        0.0278
     54 H         -11.9849   10.3987   -2.4825 H       1  LIG1        0.0278
@<TRIPOS>BOND
     1     9    10    1
     2     9     1    1
     3    54    51    1
     4    39    37    1
     5    53    51    1
     6     1     6   ar
     7     1     2   ar
     8    51    52    1
     9    51    44    1
    10    23    22    1
    11     6     5   ar
    12    47    43    1
    13    40    37    1
    14    37    38    1
    15    37    31    1
    16    22    15    1
    17    34    30    1
    18     8     2    1
    19     2     3   ar
    20    15    20   ar
    21    15    16   ar
    22    43    44   ar
    23    43    42   ar
    24    30    31   ar
    25    30    29   ar
    26    44    45   ar
    27    31    32   ar
    28    20    19   ar
    29     5    16    1
    30     5     4   ar
    31    16    17   ar
    32    19    29    1
    33    19    18   ar
    34    26    24    1
    35    29    28   ar
    36    17    18   ar
    37    17    21    1
    38    18    24    1
    39    32    42    1
    40    32    33   ar
    41     3     4   ar
    42     3     7    1
    43    42    41   ar
    44     4    11    1
    45    45    48    1
    46    45    46   ar
    47    24    27    1
    48    24    25    1
    49    28    33   ar
    50    28    35    1
    51    36    35    1
    52    41    46   ar
    53    41    49    1
    54    11    13    1
    55    11    12    1
    56    11    14    1
    57    50    49    1
