@<TRIPOS>MOLECULE
mol_data/opt/cam/geoms/mol2/6gi6gi6gi-.out
 41 43 0 0 0
SMALL
GASTEIGER

@<TRIPOS>ATOM
      1 C          -4.0931   -1.7809   -1.4006 C.ar    1  LIG1        0.0946
      2 C          -2.9397   -2.0508   -0.6648 C.ar    1  LIG1       -0.0297
      3 C          -2.6087   -1.1702    0.3471 C.ar    1  LIG1       -0.0543
      4 C          -3.3819   -0.0367    0.6046 C.ar    1  LIG1       -0.0243
      5 C          -4.4991    0.1572   -0.2202 C.ar    1  LIG1        0.0777
      6 N          -4.8432   -0.7118   -1.1797 N.ar    1  LIG1       -0.2404
      7 H          -1.7355   -1.3662    0.9627 H       1  LIG1        0.0622
      8 H          -2.3342   -2.9271   -0.8634 H       1  LIG1        0.0644
      9 S          -4.6951   -2.8243   -2.7073 S.3     1  LIG1       -0.1234
     10 H          -3.7719   -3.7905   -2.5721 H       1  LIG1        0.1086
     11 C          -3.0129    0.8789    1.7425 C.3     1  LIG1       -0.0377
     12 H          -3.8935    1.3293    2.2025 H       1  LIG1        0.0278
     13 H          -2.3613    1.6957    1.4162 H       1  LIG1        0.0278
     14 H          -2.4729    0.3240    2.5131 H       1  LIG1        0.0278
     15 C          -6.7668    1.3058    0.1213 C.ar    1  LIG1        0.1038
     16 C          -5.3760    1.3559   -0.0883 C.ar    1  LIG1        0.0325
     17 C          -4.8128    2.6240   -0.1585 C.ar    1  LIG1       -0.0451
     18 C          -5.5620    3.7882   -0.0133 C.ar    1  LIG1       -0.0237
     19 C          -6.9316    3.6154    0.2237 C.ar    1  LIG1        0.0777
     20 N          -7.4918    2.4041    0.2916 N.ar    1  LIG1       -0.2397
     21 H          -3.7434    2.7097   -0.3276 H       1  LIG1        0.0628
     22 S          -7.7263   -0.1827    0.2589 S.3     1  LIG1       -0.1227
     23 H          -6.8527   -0.9772   -0.3814 H       1  LIG1        0.1086
     24 C          -4.8849    5.1320   -0.0742 C.3     1  LIG1       -0.0377
     25 H          -5.3403    5.8442    0.6157 H       1  LIG1        0.0278
     26 H          -4.9363    5.5708   -1.0755 H       1  LIG1        0.0278
     27 H          -3.8274    5.0358    0.1825 H       1  LIG1        0.0278
     28 C          -8.6634    4.9876    1.5231 C.ar    1  LIG1        0.1031
     29 C          -7.8541    4.7759    0.3886 C.ar    1  LIG1        0.0325
     30 C          -7.9384    5.7228   -0.6264 C.ar    1  LIG1       -0.0457
     31 C          -8.7508    6.8469   -0.5090 C.ar    1  LIG1       -0.0317
     32 C          -9.4504    6.9699    0.6850 C.ar    1  LIG1        0.0318
     33 N          -9.4183    6.0706    1.6640 N.ar    1  LIG1       -0.2481
     34 H          -7.3553    5.5756   -1.5315 H       1  LIG1        0.0628
     35 H         -10.0820    7.8391    0.8599 H       1  LIG1        0.0832
     36 S          -8.7379    3.8978    2.9274 S.3     1  LIG1       -0.1228
     37 H          -8.3540    2.7904    2.2707 H       1  LIG1        0.1086
     38 C          -8.8686    7.8658   -1.6075 C.3     1  LIG1       -0.0383
     39 H          -9.4089    8.7513   -1.2656 H       1  LIG1        0.0278
     40 H          -9.4089    7.4607   -2.4689 H       1  LIG1        0.0278
     41 H          -7.8855    8.1884   -1.9621 H       1  LIG1        0.0278
@<TRIPOS>BOND
     1     9    10    1
     2     9     1    1
     3    40    38    1
     4    41    38    1
     5    38    39    1
     6    38    31    1
     7    34    30    1
     8     1     6   ar
     9     1     2   ar
    10     6     5   ar
    11    26    24    1
    12     8     2    1
    13     2     3   ar
    14    30    31   ar
    15    30    29   ar
    16    31    32   ar
    17    23    22    1
    18    21    17    1
    19     5    16    1
    20     5     4   ar
    21    17    16   ar
    22    17    18   ar
    23    16    15   ar
    24    24    18    1
    25    24    27    1
    26    24    25    1
    27    18    19   ar
    28    15    22    1
    29    15    20   ar
    30    19    20   ar
    31    19    29    1
    32     3     4   ar
    33     3     7    1
    34    29    28   ar
    35     4    11    1
    36    32    35    1
    37    32    33   ar
    38    13    11    1
    39    28    33   ar
    40    28    36    1
    41    11    12    1
    42    11    14    1
    43    37    36    1
