@<TRIPOS>MOLECULE
mol_data/opt/cam/geoms/mol2/6gi6gi-6gi-6gi.out
 54 57 0 0 0
SMALL
GASTEIGER

@<TRIPOS>ATOM
      1 C          -3.5540   -1.5085   -1.7885 C.ar    1  LIG1        0.0946
      2 C          -2.7468   -2.0343   -0.7800 C.ar    1  LIG1       -0.0297
      3 C          -2.8289   -1.4529    0.4705 C.ar    1  LIG1       -0.0543
      4 C          -3.6650   -0.3606    0.7098 C.ar    1  LIG1       -0.0243
      5 C          -4.4044    0.1099   -0.3844 C.ar    1  LIG1        0.0777
      6 N          -4.3545   -0.4722   -1.5898 N.ar    1  LIG1       -0.2404
      7 H          -2.2393   -1.8571    1.2884 H       1  LIG1        0.0622
      8 H          -2.0931   -2.8790   -0.9617 H       1  LIG1        0.0644
      9 S          -3.6112   -2.1554   -3.4426 S.3     1  LIG1       -0.1234
     10 H          -2.7793   -3.1890   -3.2333 H       1  LIG1        0.1086
     11 C          -3.7573    0.2220    2.0960 C.3     1  LIG1       -0.0377
     12 H          -4.7542    0.6111    2.3073 H       1  LIG1        0.0278
     13 H          -3.0484    1.0430    2.2432 H       1  LIG1        0.0278
     14 H          -3.5256   -0.5415    2.8420 H       1  LIG1        0.0278
     15 C          -6.6614    1.3079   -0.6078 C.ar    1  LIG1        0.1038
     16 C          -5.2924    1.3032   -0.2798 C.ar    1  LIG1        0.0325
     17 C          -4.7693    2.5041    0.1822 C.ar    1  LIG1       -0.0451
     18 C          -5.5419    3.6524    0.3362 C.ar    1  LIG1       -0.0237
     19 C          -6.8978    3.5303    0.0076 C.ar    1  LIG1        0.0777
     20 N          -7.4196    2.3839   -0.4393 N.ar    1  LIG1       -0.2397
     21 H          -3.7152    2.5469    0.4400 H       1  LIG1        0.0628
     22 S          -7.5735   -0.0927   -1.2075 S.3     1  LIG1       -0.1227
     23 H          -6.5089   -0.7717   -1.6661 H       1  LIG1        0.1086
     24 C          -4.9141    4.9129    0.8703 C.3     1  LIG1       -0.0377
     25 H          -5.6105    5.4821    1.4879 H       1  LIG1        0.0278
     26 H          -4.5758    5.5741    0.0662 H       1  LIG1        0.0278
     27 H          -4.0390    4.6715    1.4781 H       1  LIG1        0.0278
     28 C          -9.0285    4.6639    0.8711 C.ar    1  LIG1        0.1038
     29 C          -7.8425    4.6788    0.1138 C.ar    1  LIG1        0.0325
     30 C          -7.5563    5.8637   -0.5528 C.ar    1  LIG1       -0.0451
     31 C          -8.3729    6.9880   -0.4690 C.ar    1  LIG1       -0.0237
     32 C          -9.5063    6.8688    0.3449 C.ar    1  LIG1        0.0777
     33 N          -9.8014    5.7359    0.9893 N.ar    1  LIG1       -0.2397
     34 H          -6.6566    5.9162   -1.1590 H       1  LIG1        0.0628
     35 S          -9.6154    3.2760    1.8126 S.3     1  LIG1       -0.1227
     36 H          -8.9533    2.3406    1.1110 H       1  LIG1        0.1086
     37 C          -7.9953    8.2506   -1.1976 C.3     1  LIG1       -0.0377
     38 H          -8.2495    9.1406   -0.6196 H       1  LIG1        0.0278
     39 H          -8.5048    8.3333   -2.1627 H       1  LIG1        0.0278
     40 H          -6.9213    8.2673   -1.3965 H       1  LIG1        0.0278
     41 C         -10.7987    8.5627    1.7681 C.ar    1  LIG1        0.1031
     42 C         -10.4690    7.9945    0.5212 C.ar    1  LIG1        0.0325
     43 C         -11.0916    8.5356   -0.5983 C.ar    1  LIG1       -0.0457
     44 C         -11.9660    9.6140   -0.4953 C.ar    1  LIG1       -0.0317
     45 C         -12.1591   10.1211    0.7835 C.ar    1  LIG1        0.0318
     46 N         -11.6052    9.6111    1.8798 N.ar    1  LIG1       -0.2481
     47 H         -10.8885    8.1016   -1.5736 H       1  LIG1        0.0628
     48 H         -12.8061   10.9832    0.9362 H       1  LIG1        0.0832
     49 S         -10.1443    8.0143    3.3292 S.3     1  LIG1       -0.1228
     50 H          -9.8752    6.7572    2.9390 H       1  LIG1        0.1086
     51 C         -12.6621   10.1950   -1.6939 C.3     1  LIG1       -0.0383
     52 H         -13.1766   11.1236   -1.4372 H       1  LIG1        0.0278
     53 H         -13.4091    9.5023   -2.0942 H       1  LIG1        0.0278
     54 H         -11.9563   10.4141   -2.5002 H       1  LIG1        0.0278
@<TRIPOS>BOND
     1     9    10    1
     2     9     1    1
     3    54    51    1
     4    39    37    1
     5    53    51    1
     6     1     6   ar
     7     1     2   ar
     8    51    52    1
     9    51    44    1
    10    23    22    1
    11     6     5   ar
    12    47    43    1
    13    40    37    1
    14    22    15    1
    15    37    38    1
    16    37    31    1
    17    34    30    1
    18     8     2    1
    19     2     3   ar
    20    15    20   ar
    21    15    16   ar
    22    43    44   ar
    23    43    42   ar
    24    30    31   ar
    25    30    29   ar
    26    44    45   ar
    27    31    32   ar
    28    20    19   ar
    29     5    16    1
    30     5     4   ar
    31    16    17   ar
    32    19    29    1
    33    19    18   ar
    34    26    24    1
    35    29    28   ar
    36    17    18   ar
    37    17    21    1
    38    18    24    1
    39    32    42    1
    40    32    33   ar
    41     3     4   ar
    42     3     7    1
    43    42    41   ar
    44     4    11    1
    45    45    48    1
    46    45    46   ar
    47    24    27    1
    48    24    25    1
    49    28    33   ar
    50    28    35    1
    51    36    35    1
    52    41    46   ar
    53    41    49    1
    54    11    13    1
    55    11    12    1
    56    11    14    1
    57    50    49    1
