@<TRIPOS>MOLECULE
mol_data/opt/cam/geoms/mol2/6gi6gi-.out
 28 29 0 0 0
SMALL
GASTEIGER

@<TRIPOS>ATOM
      1 C          -4.4329   -1.9645   -0.7430 C.ar    1  LIG1        0.0946
      2 C          -3.0801   -2.0493   -0.4172 C.ar    1  LIG1       -0.0297
      3 C          -2.4958   -0.9434    0.1708 C.ar    1  LIG1       -0.0543
      4 C          -3.2251    0.2235    0.4033 C.ar    1  LIG1       -0.0243
      5 C          -4.5696    0.2109    0.0051 C.ar    1  LIG1        0.0777
      6 N          -5.1481   -0.8690   -0.5354 N.ar    1  LIG1       -0.2404
      7 H          -1.4515   -0.9837    0.4669 H       1  LIG1        0.0622
      8 H          -2.5097   -2.9523   -0.5998 H       1  LIG1        0.0644
      9 S          -5.3574   -3.2994   -1.4670 S.3     1  LIG1       -0.1234
     10 H          -4.3652   -4.2047   -1.4465 H       1  LIG1        0.1086
     11 C          -2.5696    1.3988    1.0801 C.3     1  LIG1       -0.0377
     12 H          -3.2673    1.9309    1.7286 H       1  LIG1        0.0278
     13 H          -2.1806    2.1232    0.3576 H       1  LIG1        0.0278
     14 H          -1.7266    1.0630    1.6882 H       1  LIG1        0.0278
     15 C          -6.6512    1.4357    0.8681 C.ar    1  LIG1        0.1031
     16 C          -5.4394    1.4143    0.1480 C.ar    1  LIG1        0.0325
     17 C          -5.0511    2.6029   -0.4607 C.ar    1  LIG1       -0.0457
     18 C          -5.8019    3.7677   -0.3318 C.ar    1  LIG1       -0.0317
     19 C          -6.9444    3.6706    0.4528 C.ar    1  LIG1        0.0318
     20 N          -7.3624    2.5459    1.0258 N.ar    1  LIG1       -0.2481
     21 H          -4.1389    2.6158   -1.0512 H       1  LIG1        0.0628
     22 H          -7.5656    4.5483    0.6224 H       1  LIG1        0.0832
     23 S          -7.3552    0.0355    1.7089 S.3     1  LIG1       -0.1228
     24 H          -6.7425   -0.9038    0.9694 H       1  LIG1        0.1086
     25 C          -5.4044    5.0533   -1.0011 C.3     1  LIG1       -0.0383
     26 H          -6.0288    5.8823   -0.6611 H       1  LIG1        0.0278
     27 H          -5.5088    4.9845   -2.0885 H       1  LIG1        0.0278
     28 H          -4.3623    5.3097   -0.7895 H       1  LIG1        0.0278
@<TRIPOS>BOND
     1    27    25    1
     2     9    10    1
     3     9     1    1
     4    21    17    1
     5    25    28    1
     6    25    26    1
     7    25    18    1
     8     1     6   ar
     9     1     2   ar
    10     8     2    1
    11     6     5   ar
    12    17    18   ar
    13    17    16   ar
    14     2     3   ar
    15    18    19   ar
    16     5    16    1
    17     5     4   ar
    18    16    15   ar
    19     3     4   ar
    20     3     7    1
    21    13    11    1
    22     4    11    1
    23    19    22    1
    24    19    20   ar
    25    15    20   ar
    26    15    23    1
    27    24    23    1
    28    11    14    1
    29    11    12    1
