@<TRIPOS>MOLECULE
mol_data/opt/cam/geoms/mol2/6gi6gi-6gi6gi-.out
 54 57 0 0 0
SMALL
GASTEIGER

@<TRIPOS>ATOM
      1 C          -3.5535   -1.5055   -1.7958 C.ar    1  LIG1        0.0946
      2 C          -2.7432   -2.0303   -0.7894 C.ar    1  LIG1       -0.0297
      3 C          -2.8224   -1.4488    0.4613 C.ar    1  LIG1       -0.0543
      4 C          -3.6589   -0.3572    0.7026 C.ar    1  LIG1       -0.0243
      5 C          -4.4016    0.1124   -0.3898 C.ar    1  LIG1        0.0777
      6 N          -4.3545   -0.4698   -1.5952 N.ar    1  LIG1       -0.2404
      7 H          -2.2303   -1.8523    1.2776 H       1  LIG1        0.0622
      8 H          -2.0892   -2.8745   -0.9726 H       1  LIG1        0.0644
      9 S          -3.6145   -2.1527   -3.4496 S.3     1  LIG1       -0.1234
     10 H          -2.7812   -3.1855   -3.2423 H       1  LIG1        0.1086
     11 C          -3.7480    0.2256    2.0889 C.3     1  LIG1       -0.0377
     12 H          -4.7447    0.6139    2.3028 H       1  LIG1        0.0278
     13 H          -3.0394    1.0472    2.2341 H       1  LIG1        0.0278
     14 H          -3.5136   -0.5376    2.8344 H       1  LIG1        0.0278
     15 C          -6.6603    1.3084   -0.6073 C.ar    1  LIG1        0.1038
     16 C          -5.2904    1.3049   -0.2830 C.ar    1  LIG1        0.0325
     17 C          -4.7672    2.5064    0.1774 C.ar    1  LIG1       -0.0451
     18 C          -5.5404    3.6540    0.3333 C.ar    1  LIG1       -0.0237
     19 C          -6.8971    3.5307    0.0083 C.ar    1  LIG1        0.0777
     20 N          -7.4190    2.3836   -0.4370 N.ar    1  LIG1       -0.2397
     21 H          -3.7124    2.5503    0.4324 H       1  LIG1        0.0628
     22 S          -7.5727   -0.0932   -1.2043 S.3     1  LIG1       -0.1227
     23 H          -6.5087   -0.7713   -1.6656 H       1  LIG1        0.1086
     24 C          -4.9123    4.9152    0.8655 C.3     1  LIG1       -0.0377
     25 H          -5.6076    5.4839    1.4848 H       1  LIG1        0.0278
     26 H          -4.5768    5.5766    0.0604 H       1  LIG1        0.0278
     27 H          -4.0354    4.6747    1.4709 H       1  LIG1        0.0278
     28 C          -9.0265    4.6625    0.8773 C.ar    1  LIG1        0.1038
     29 C          -7.8425    4.6783    0.1168 C.ar    1  LIG1        0.0325
     30 C          -7.5592    5.8633   -0.5507 C.ar    1  LIG1       -0.0451
     31 C          -8.3766    6.9869   -0.4650 C.ar    1  LIG1       -0.0237
     32 C          -9.5077    6.8668    0.3520 C.ar    1  LIG1        0.0777
     33 N          -9.8001    5.7338    0.9973 N.ar    1  LIG1       -0.2397
     34 H          -6.6612    5.9166   -1.1593 H       1  LIG1        0.0628
     35 S          -9.6097    3.2742    1.8206 S.3     1  LIG1       -0.1227
     36 H          -8.9486    2.3393    1.1175 H       1  LIG1        0.1086
     37 C          -8.0021    8.2497   -1.1948 C.3     1  LIG1       -0.0377
     38 H          -8.2555    9.1396   -0.6162 H       1  LIG1        0.0278
     39 H          -8.5142    8.3318   -2.1585 H       1  LIG1        0.0278
     40 H          -6.9286    8.2673   -1.3966 H       1  LIG1        0.0278
     41 C         -10.7978    8.5598    1.7783 C.ar    1  LIG1        0.1031
     42 C         -10.4710    7.9917    0.5307 C.ar    1  LIG1        0.0325
     43 C         -11.0970    8.5321   -0.5872 C.ar    1  LIG1       -0.0457
     44 C         -11.9721    9.6096   -0.4822 C.ar    1  LIG1       -0.0317
     45 C         -12.1623   10.1168    0.7971 C.ar    1  LIG1        0.0318
     46 N         -11.6050    9.6075    1.8920 N.ar    1  LIG1       -0.2481
     47 H         -10.8962    8.0980   -1.5630 H       1  LIG1        0.0628
     48 H         -12.8096   10.9783    0.9514 H       1  LIG1        0.0832
     49 S         -10.1387    8.0123    3.3378 S.3     1  LIG1       -0.1228
     50 H          -9.8696    6.7554    2.9471 H       1  LIG1        0.1086
     51 C         -12.6720   10.1898   -1.6789 C.3     1  LIG1       -0.0383
     52 H         -13.1865   11.1181   -1.4212 H       1  LIG1        0.0278
     53 H         -13.4196    9.4965   -2.0770 H       1  LIG1        0.0278
     54 H         -11.9685   10.4092   -2.4873 H       1  LIG1        0.0278
@<TRIPOS>BOND
     1     9    10    1
     2     9     1    1
     3    54    51    1
     4    39    37    1
     5    53    51    1
     6     1     6   ar
     7     1     2   ar
     8    51    52    1
     9    51    44    1
    10    23    22    1
    11     6     5   ar
    12    47    43    1
    13    40    37    1
    14    22    15    1
    15    37    38    1
    16    37    31    1
    17    34    30    1
    18     8     2    1
    19     2     3   ar
    20    15    20   ar
    21    15    16   ar
    22    43    44   ar
    23    43    42   ar
    24    30    31   ar
    25    30    29   ar
    26    44    45   ar
    27    31    32   ar
    28    20    19   ar
    29     5    16    1
    30     5     4   ar
    31    16    17   ar
    32    19    29    1
    33    19    18   ar
    34    26    24    1
    35    29    28   ar
    36    17    18   ar
    37    17    21    1
    38    18    24    1
    39    32    42    1
    40    32    33   ar
    41     3     4   ar
    42     3     7    1
    43    42    41   ar
    44     4    11    1
    45    45    48    1
    46    45    46   ar
    47    24    27    1
    48    24    25    1
    49    28    33   ar
    50    28    35    1
    51    36    35    1
    52    41    46   ar
    53    41    49    1
    54    11    13    1
    55    11    12    1
    56    11    14    1
    57    50    49    1
