@<TRIPOS>MOLECULE
mol_data/opt/cam/geoms/mol2/6gi6gi.out
 28 29 0 0 0
SMALL
GASTEIGER

@<TRIPOS>ATOM
      1 C          -4.4317   -1.9685   -0.7293 C.ar    1  LIG1        0.0946
      2 C          -3.0787   -2.0508   -0.4036 C.ar    1  LIG1       -0.0297
      3 C          -2.4947   -0.9414    0.1779 C.ar    1  LIG1       -0.0543
      4 C          -3.2243    0.2265    0.4042 C.ar    1  LIG1       -0.0243
      5 C          -4.5691    0.2110    0.0067 C.ar    1  LIG1        0.0777
      6 N          -5.1473   -0.8721   -0.5275 N.ar    1  LIG1       -0.2404
      7 H          -1.4501   -0.9795    0.4738 H       1  LIG1        0.0622
      8 H          -2.5080   -2.9546   -0.5813 H       1  LIG1        0.0644
      9 S          -5.3559   -3.3078   -1.4454 S.3     1  LIG1       -0.1234
     10 H          -4.3633   -4.2125   -1.4203 H       1  LIG1        0.1086
     11 C          -2.5691    1.4059    1.0739 C.3     1  LIG1       -0.0377
     12 H          -3.2667    1.9413    1.7198 H       1  LIG1        0.0278
     13 H          -2.1809    2.1264    0.3470 H       1  LIG1        0.0278
     14 H          -1.7255    1.0740    1.6834 H       1  LIG1        0.0278
     15 C          -6.6505    1.4399    0.8642 C.ar    1  LIG1        0.1031
     16 C          -5.4393    1.4148    0.1433 C.ar    1  LIG1        0.0325
     17 C          -5.0521    2.6000   -0.4729 C.ar    1  LIG1       -0.0457
     18 C          -5.8035    3.7651   -0.3502 C.ar    1  LIG1       -0.0317
     19 C          -6.9453    3.6720    0.4358 C.ar    1  LIG1        0.0318
     20 N          -7.3622    2.5506    1.0158 N.ar    1  LIG1       -0.2481
     21 H          -4.1404    2.6099   -1.0641 H       1  LIG1        0.0628
     22 H          -7.5669    4.5504    0.6007 H       1  LIG1        0.0832
     23 S          -7.3530    0.0442    1.7139 S.3     1  LIG1       -0.1228
     24 H          -6.7405   -0.8990    0.9791 H       1  LIG1        0.1086
     25 C          -5.4072    5.0469   -1.0275 C.3     1  LIG1       -0.0383
     26 H          -6.0318    5.8776   -0.6918 H       1  LIG1        0.0278
     27 H          -5.5126    4.9717   -2.1144 H       1  LIG1        0.0278
     28 H          -4.3650    5.3051   -0.8185 H       1  LIG1        0.0278
@<TRIPOS>BOND
     1    27    25    1
     2     9    10    1
     3     9     1    1
     4    21    17    1
     5    25    28    1
     6    25    26    1
     7    25    18    1
     8     1     6   ar
     9     1     2   ar
    10     8     2    1
    11     6     5   ar
    12    17    18   ar
    13    17    16   ar
    14     2     3   ar
    15    18    19   ar
    16     5    16    1
    17     5     4   ar
    18    16    15   ar
    19     3     4   ar
    20     3     7    1
    21    13    11    1
    22     4    11    1
    23    19    22    1
    24    19    20   ar
    25    15    20   ar
    26    15    23    1
    27    24    23    1
    28    11    14    1
    29    11    12    1
