@<TRIPOS>MOLECULE
mol_data/opt/cam/geoms/mol2/6gl.out
 16 16 0 0 0
SMALL
GASTEIGER

@<TRIPOS>ATOM
      1 C          -4.5993   -2.0396    0.0001 C.ar    1  LIG1        0.0942
      2 C          -3.2102   -2.1043    0.0000 C.ar    1  LIG1       -0.0266
      3 C          -2.4822   -0.9202   -0.0001 C.ar    1  LIG1       -0.0159
      4 C          -3.1718    0.2870   -0.0003 C.ar    1  LIG1        0.1382
      5 C          -4.5682    0.2429   -0.0002 C.ar    1  LIG1        0.0704
      6 N          -5.2619   -0.8847   -0.0001 N.ar    1  LIG1       -0.2454
      7 H          -1.3998   -0.9554   -0.0001 H       1  LIG1        0.0655
      8 H          -2.6941   -3.0574    0.0001 H       1  LIG1        0.0645
      9 H          -5.1239    1.1769   -0.0003 H       1  LIG1        0.0867
     10 S          -5.6564   -3.4738    0.0003 S.3     1  LIG1       -0.1234
     11 H          -4.6760   -4.3922    0.0003 H       1  LIG1        0.1086
     12 O          -2.6091    1.5210   -0.0004 O.3     1  LIG1       -0.4936
     13 C          -1.1994    1.6023   -0.0005 C.3     1  LIG1        0.0789
     14 H          -0.9557    2.6640   -0.0007 H       1  LIG1        0.0660
     15 H          -0.7686    1.1349    0.8928 H       1  LIG1        0.0660
     16 H          -0.7687    1.1346   -0.8938 H       1  LIG1        0.0660
@<TRIPOS>BOND
     1    16    13    1
     2    14    13    1
     3    13    12    1
     4    13    15    1
     5    12     4    1
     6     9     5    1
     7     4     5   ar
     8     4     3   ar
     9     5     6   ar
    10     7     3    1
    11     3     2   ar
    12     6     1   ar
    13     2     1   ar
    14     2     8    1
    15     1    10    1
    16    10    11    1
