@<TRIPOS>MOLECULE
mol_data/opt/cam/geoms/mol2/6gl6gl-6gl-.out
 44 46 0 0 0
SMALL
GASTEIGER

@<TRIPOS>ATOM
      1 C          -4.2129   -2.2125    0.3430 C.ar    1  LIG1        0.0949
      2 C          -2.8584   -2.1644    0.0358 C.ar    1  LIG1       -0.0265
      3 C          -2.3098   -0.9404   -0.3142 C.ar    1  LIG1       -0.0153
      4 C          -3.1112    0.1967   -0.3317 C.ar    1  LIG1        0.1461
      5 C          -4.4718    0.0627    0.0109 C.ar    1  LIG1        0.1163
      6 N          -4.9787   -1.1284    0.3266 N.ar    1  LIG1       -0.2370
      7 H          -1.2602   -0.8827   -0.5732 H       1  LIG1        0.0656
      8 H          -2.2408   -3.0543    0.0602 H       1  LIG1        0.0645
      9 S          -5.0784   -3.6993    0.7964 S.3     1  LIG1       -0.1234
     10 H          -4.0599   -4.5455    0.5721 H       1  LIG1        0.1086
     11 O          -2.6644    1.4329   -0.6693 O.3     1  LIG1       -0.4930
     12 C          -1.3399    1.5592   -1.1482 C.3     1  LIG1        0.0789
     13 H          -1.2171    2.6068   -1.4202 H       1  LIG1        0.0660
     14 H          -0.6044    1.2991   -0.3783 H       1  LIG1        0.0660
     15 H          -1.1736    0.9353   -2.0333 H       1  LIG1        0.0660
     16 C          -6.6792    1.2463   -0.5175 C.ar    1  LIG1        0.1042
     17 C          -5.3903    1.2328    0.0393 C.ar    1  LIG1        0.0391
     18 C          -4.9735    2.4029    0.6761 C.ar    1  LIG1       -0.0060
     19 C          -5.7801    3.5290    0.7128 C.ar    1  LIG1        0.1467
     20 C          -7.0328    3.4717    0.0731 C.ar    1  LIG1        0.1164
     21 N          -7.4340    2.3409   -0.4986 N.ar    1  LIG1       -0.2363
     22 H          -3.9961    2.4193    1.1364 H       1  LIG1        0.0662
     23 S          -7.4705   -0.1017   -1.3669 S.3     1  LIG1       -0.1227
     24 H          -6.7674   -1.0775   -0.7669 H       1  LIG1        0.1086
     25 O          -5.4339    4.6865    1.3352 O.3     1  LIG1       -0.4929
     26 C          -4.2455    4.7060    2.0984 C.3     1  LIG1        0.0789
     27 H          -4.2003    5.6919    2.5599 H       1  LIG1        0.0660
     28 H          -4.2601    3.9412    2.8830 H       1  LIG1        0.0660
     29 H          -3.3580    4.5612    1.4711 H       1  LIG1        0.0660
     30 C          -9.3270    4.5905    0.2682 C.ar    1  LIG1        0.1034
     31 C          -7.9448    4.6459    0.0129 C.ar    1  LIG1        0.0390
     32 C          -7.4016    5.8904   -0.3255 C.ar    1  LIG1       -0.0066
     33 C          -8.2086    7.0146   -0.3669 C.ar    1  LIG1        0.1388
     34 C          -9.5563    6.8567   -0.0465 C.ar    1  LIG1        0.0705
     35 N         -10.0897    5.6859    0.2516 N.ar    1  LIG1       -0.2447
     36 H          -6.3434    5.9564   -0.5353 H       1  LIG1        0.0662
     37 H         -10.2096    7.7257   -0.0463 H       1  LIG1        0.0867
     38 S         -10.2530    3.1376    0.7122 S.3     1  LIG1       -0.1228
     39 H          -9.3965    2.2495    0.1778 H       1  LIG1        0.1086
     40 O          -7.8006    8.2709   -0.6863 O.3     1  LIG1       -0.4936
     41 C          -6.4402    8.4556   -1.0086 C.3     1  LIG1        0.0789
     42 H          -6.3203    9.5155   -1.2319 H       1  LIG1        0.0660
     43 H          -5.7862    8.1881   -0.1699 H       1  LIG1        0.0660
     44 H          -6.1500    7.8681   -1.8881 H       1  LIG1        0.0660
@<TRIPOS>BOND
     1    15    12    1
     2    44    41    1
     3    13    12    1
     4    23    24    1
     5    23    16    1
     6    42    41    1
     7    12    11    1
     8    12    14    1
     9    41    40    1
    10    41    43    1
    11    40    33    1
    12    11     4    1
    13     7     3    1
    14    36    32    1
    15    16    21   ar
    16    16    17   ar
    17    21    20   ar
    18    33    32   ar
    19    33    34   ar
    20     4     3   ar
    21     4     5   ar
    22    32    31   ar
    23     3     2   ar
    24    34    37    1
    25    34    35   ar
    26     5    17    1
    27     5     6   ar
    28    31    20    1
    29    31    30   ar
    30     2     8    1
    31     2     1   ar
    32    17    18   ar
    33    20    19   ar
    34    39    38    1
    35    35    30   ar
    36    30    38    1
    37     6     1   ar
    38     1     9    1
    39    10     9    1
    40    18    19   ar
    41    18    22    1
    42    19    25    1
    43    25    26    1
    44    29    26    1
    45    26    27    1
    46    26    28    1
