@<TRIPOS>MOLECULE
mol_data/opt/cam/geoms/mol2/6gl6gl6gl6gl.out
 58 61 0 0 0
SMALL
GASTEIGER

@<TRIPOS>ATOM
      1 C          -3.9805   -2.2041   -0.7470 C.ar    1  LIG1        0.0949
      2 C          -2.6517   -2.1434   -0.3433 C.ar    1  LIG1       -0.0265
      3 C          -2.1775   -0.9471    0.1714 C.ar    1  LIG1       -0.0153
      4 C          -3.0244    0.1538    0.2540 C.ar    1  LIG1        0.1461
      5 C          -4.3531    0.0109   -0.1927 C.ar    1  LIG1        0.1163
      6 N          -4.7897   -1.1549   -0.6675 N.ar    1  LIG1       -0.2370
      7 H          -1.1501   -0.8821    0.5065 H       1  LIG1        0.0656
      8 H          -1.9978   -3.0040   -0.4191 H       1  LIG1        0.0645
      9 S          -4.7521   -3.6613   -1.4144 S.3     1  LIG1       -0.1234
     10 H          -3.7129   -4.4891   -1.2189 H       1  LIG1        0.1086
     11 O          -2.6515    1.3612    0.7488 O.3     1  LIG1       -0.4930
     12 C          -1.3714    1.4775    1.3394 C.3     1  LIG1        0.0789
     13 H          -1.3116    2.4926    1.7297 H       1  LIG1        0.0660
     14 H          -1.2456    0.7667    2.1634 H       1  LIG1        0.0660
     15 H          -0.5716    1.3270    0.6054 H       1  LIG1        0.0660
     16 C          -6.6365    1.0523    0.3102 C.ar    1  LIG1        0.1042
     17 C          -5.3157    1.1450   -0.1583 C.ar    1  LIG1        0.0391
     18 C          -4.9096    2.3910   -0.6371 C.ar    1  LIG1       -0.0060
     19 C          -5.7579    3.4866   -0.6062 C.ar    1  LIG1        0.1467
     20 C          -7.0436    3.3174   -0.0589 C.ar    1  LIG1        0.1164
     21 N          -7.4315    2.1166    0.3599 N.ar    1  LIG1       -0.2363
     22 H          -3.9069    2.4916   -1.0271 H       1  LIG1        0.0662
     23 S          -7.4223   -0.4079    0.9528 S.3     1  LIG1       -0.1227
     24 H          -6.6495   -1.2843    0.2881 H       1  LIG1        0.1086
     25 O          -5.4200    4.7157   -1.0790 O.3     1  LIG1       -0.4929
     26 C          -4.1972    4.8521   -1.7743 C.3     1  LIG1        0.0789
     27 H          -4.1672    5.8810   -2.1314 H       1  LIG1        0.0660
     28 H          -3.3361    4.6733   -1.1199 H       1  LIG1        0.0660
     29 H          -4.1460    4.1713   -2.6312 H       1  LIG1        0.0660
     30 C          -9.3815    4.3544   -0.2160 C.ar    1  LIG1        0.1042
     31 C          -8.0075    4.4423    0.0692 C.ar    1  LIG1        0.0391
     32 C          -7.5442    5.6792    0.5223 C.ar    1  LIG1       -0.0060
     33 C          -8.3906    6.7699    0.6357 C.ar    1  LIG1        0.1467
     34 C          -9.7380    6.6083    0.2628 C.ar    1  LIG1        0.1164
     35 N         -10.1773    5.4171   -0.1297 N.ar    1  LIG1       -0.2363
     36 H          -6.4988    5.7756    0.7765 H       1  LIG1        0.0662
     37 S         -10.2535    2.9101   -0.7747 S.3     1  LIG1       -0.1227
     38 H          -9.3703    2.0199   -0.2856 H       1  LIG1        0.1086
     39 O          -7.9946    7.9890    1.0913 O.3     1  LIG1       -0.4929
     40 C          -6.6855    8.1166    1.6047 C.3     1  LIG1        0.0789
     41 H          -6.6060    9.1376    1.9769 H       1  LIG1        0.0660
     42 H          -6.5082    7.4174    2.4298 H       1  LIG1        0.0660
     43 H          -5.9272    7.9562    0.8291 H       1  LIG1        0.0660
     44 C         -12.0165    7.6441    0.8060 C.ar    1  LIG1        0.1034
     45 C         -10.7092    7.7354    0.2933 C.ar    1  LIG1        0.0390
     46 C         -10.3070    8.9708   -0.2267 C.ar    1  LIG1       -0.0066
     47 C         -11.1677   10.0546   -0.1936 C.ar    1  LIG1        0.1388
     48 C         -12.4229    9.8677    0.3831 C.ar    1  LIG1        0.0705
     49 N         -12.8278    8.7029    0.8561 N.ar    1  LIG1       -0.2447
     50 H          -9.3107    9.0633   -0.6355 H       1  LIG1        0.0662
     51 H         -13.1114   10.7068    0.4455 H       1  LIG1        0.0867
     52 S         -12.7650    6.1940    1.5141 S.3     1  LIG1       -0.1228
     53 H         -11.9700    5.3037    0.8939 H       1  LIG1        0.1086
     54 O         -10.8933   11.2983   -0.6691 O.3     1  LIG1       -0.4936
     55 C          -9.6252   11.5127   -1.2472 C.3     1  LIG1        0.0789
     56 H          -9.6036   12.5571   -1.5579 H       1  LIG1        0.0660
     57 H          -8.8173   11.3345   -0.5271 H       1  LIG1        0.0660
     58 H          -9.4673   10.8739   -2.1246 H       1  LIG1        0.0660
@<TRIPOS>BOND
     1    29    26    1
     2    27    26    1
     3    58    55    1
     4    26    28    1
     5    26    25    1
     6    56    55    1
     7     9    10    1
     8     9     1    1
     9    55    54    1
    10    55    57    1
    11    25    19    1
    12    22    18    1
    13    37    38    1
    14    37    30    1
    15     1     6   ar
    16     1     2   ar
    17    54    47    1
    18     6     5   ar
    19    18    19   ar
    20    18    17   ar
    21    50    46    1
    22    19    20   ar
    23     8     2    1
    24     2     3   ar
    25    46    47   ar
    26    46    45   ar
    27    30    35   ar
    28    30    31   ar
    29    47    48   ar
    30     5    17    1
    31     5     4   ar
    32    17    16   ar
    33    35    34   ar
    34    20    31    1
    35    20    21   ar
    36    31    32   ar
    37     3     4   ar
    38     3     7    1
    39     4    11    1
    40    34    45    1
    41    34    33   ar
    42    24    23    1
    43    45    44   ar
    44    16    21   ar
    45    16    23    1
    46    48    51    1
    47    48    49   ar
    48    32    33   ar
    49    32    36    1
    50    15    12    1
    51    33    39    1
    52    11    12    1
    53    44    49   ar
    54    44    52    1
    55    43    40    1
    56    53    52    1
    57    39    40    1
    58    12    13    1
    59    12    14    1
    60    40    41    1
    61    40    42    1
