@<TRIPOS>MOLECULE
mol_data/opt/cam/geoms/mol2/6gl6gl-6gl6gl.out
 58 61 0 0 0
SMALL
GASTEIGER

@<TRIPOS>ATOM
      1 C          -3.9661   -2.2008    0.7183 C.ar    1  LIG1        0.0949
      2 C          -2.6440   -2.1408    0.2931 C.ar    1  LIG1       -0.0265
      3 C          -2.1787   -0.9457   -0.2327 C.ar    1  LIG1       -0.0153
      4 C          -3.0272    0.1546   -0.3047 C.ar    1  LIG1        0.1461
      5 C          -4.3485    0.0125    0.1638 C.ar    1  LIG1        0.1163
      6 N          -4.7770   -1.1522    0.6489 N.ar    1  LIG1       -0.2370
      7 H          -1.1569   -0.8814   -0.5844 H       1  LIG1        0.0656
      8 H          -1.9887   -3.0010    0.3607 H       1  LIG1        0.0645
      9 S          -4.7262   -3.6564    1.4022 S.3     1  LIG1       -0.1234
     10 H          -3.6900   -4.4844    1.1923 H       1  LIG1        0.1086
     11 O          -2.6630    1.3608   -0.8088 O.3     1  LIG1       -0.4930
     12 C          -1.3926    1.4760   -1.4201 C.3     1  LIG1        0.0789
     13 H          -1.3394    2.4901   -1.8141 H       1  LIG1        0.0660
     14 H          -0.5810    1.3278   -0.6985 H       1  LIG1        0.0660
     15 H          -1.2796    0.7630   -2.2441 H       1  LIG1        0.0660
     16 C          -6.6402    1.0515   -0.3053 C.ar    1  LIG1        0.1042
     17 C          -5.3121    1.1460    0.1418 C.ar    1  LIG1        0.0391
     18 C          -4.8989    2.3936    0.6105 C.ar    1  LIG1       -0.0060
     19 C          -5.7481    3.4887    0.5901 C.ar    1  LIG1        0.1467
     20 C          -7.0424    3.3173    0.0639 C.ar    1  LIG1        0.1164
     21 N          -7.4364    2.1153   -0.3452 N.ar    1  LIG1       -0.2363
     22 H          -3.8901    2.4956    0.9840 H       1  LIG1        0.0662
     23 S          -7.4354   -0.4109   -0.9311 S.3     1  LIG1       -0.1227
     24 H          -6.6519   -1.2851   -0.2762 H       1  LIG1        0.1086
     25 O          -5.4034    4.7193    1.0539 O.3     1  LIG1       -0.4929
     26 C          -4.1698    4.8582    1.7297 C.3     1  LIG1        0.0789
     27 H          -4.1348    5.8880    2.0835 H       1  LIG1        0.0660
     28 H          -4.1049    4.1796    2.5874 H       1  LIG1        0.0660
     29 H          -3.3190    4.6780    1.0623 H       1  LIG1        0.0660
     30 C          -9.3778    4.3540    0.2559 C.ar    1  LIG1        0.1042
     31 C          -8.0086    4.4415   -0.0517 C.ar    1  LIG1        0.0391
     32 C          -7.5531    5.6773   -0.5157 C.ar    1  LIG1       -0.0060
     33 C          -8.4015    6.7674   -0.6184 C.ar    1  LIG1        0.1467
     34 C          -9.7426    6.6065   -0.2231 C.ar    1  LIG1        0.1164
     35 N         -10.1752    5.4163    0.1797 N.ar    1  LIG1       -0.2363
     36 H          -6.5120    5.7732   -0.7871 H       1  LIG1        0.0662
     37 S         -10.2400    2.9109    0.8325 S.3     1  LIG1       -0.1227
     38 H          -9.3645    2.0198    0.3314 H       1  LIG1        0.1086
     39 O          -8.0134    7.9853   -1.0838 O.3     1  LIG1       -0.4929
     40 C          -6.7130    8.1117   -1.6191 C.3     1  LIG1        0.0789
     41 H          -6.6399    9.1316   -1.9956 H       1  LIG1        0.0660
     42 H          -5.9420    7.9537   -0.8556 H       1  LIG1        0.0660
     43 H          -6.5492    7.4101   -2.4449 H       1  LIG1        0.0660
     44 C         -12.0299    7.6403   -0.7323 C.ar    1  LIG1        0.1034
     45 C         -10.7146    7.7332   -0.2409 C.ar    1  LIG1        0.0390
     46 C         -10.3044    8.9700    0.2694 C.ar    1  LIG1       -0.0066
     47 C         -11.1659   10.0536    0.2473 C.ar    1  LIG1        0.1388
     48 C         -12.4301    9.8649   -0.3087 C.ar    1  LIG1        0.0705
     49 N         -12.8423    8.6987   -0.7721 N.ar    1  LIG1       -0.2447
     50 H          -9.3017    9.0639    0.6618 H       1  LIG1        0.0662
     51 H         -13.1198   10.7035   -0.3622 H       1  LIG1        0.0867
     52 S         -12.7890    6.1881   -1.4246 S.3     1  LIG1       -0.1228
     53 H         -11.9842    5.2997   -0.8146 H       1  LIG1        0.1086
     54 O         -10.8843   11.2985    0.7151 O.3     1  LIG1       -0.4936
     55 C          -9.6070   11.5149    1.2720 C.3     1  LIG1        0.0789
     56 H          -9.5808   12.5601    1.5795 H       1  LIG1        0.0660
     57 H          -9.4347   10.8784    2.1483 H       1  LIG1        0.0660
     58 H          -8.8110   11.3349    0.5393 H       1  LIG1        0.0660
@<TRIPOS>BOND
     1    43    40    1
     2    15    12    1
     3    41    40    1
     4    13    12    1
     5    40    39    1
     6    40    42    1
     7    52    53    1
     8    52    44    1
     9    12    11    1
    10    12    14    1
    11    39    33    1
    12    23    16    1
    13    23    24    1
    14    11     4    1
    15    36    32    1
    16    49    44   ar
    17    49    48   ar
    18    44    45   ar
    19    33    32   ar
    20    33    34   ar
    21     7     3    1
    22    32    31   ar
    23    51    48    1
    24    21    16   ar
    25    21    20   ar
    26    48    47   ar
    27    16    17   ar
    28     4     3   ar
    29     4     5   ar
    30    45    34    1
    31    45    46   ar
    32     3     2   ar
    33    34    35   ar
    34    31    20    1
    35    31    30   ar
    36    20    19   ar
    37    17     5    1
    38    17    18   ar
    39     5     6   ar
    40    35    30   ar
    41    47    46   ar
    42    47    54    1
    43    30    37    1
    44    46    50    1
    45     2     8    1
    46     2     1   ar
    47    38    37    1
    48    58    55    1
    49    19    18   ar
    50    19    25    1
    51    18    22    1
    52     6     1   ar
    53    54    55    1
    54     1     9    1
    55    25    26    1
    56    29    26    1
    57    10     9    1
    58    55    56    1
    59    55    57    1
    60    26    27    1
    61    26    28    1
