@<TRIPOS>MOLECULE
mol_data/opt/cam/geoms/mol2/6gl6gl6gl-6gl-.out
 58 61 0 0 0
SMALL
GASTEIGER

@<TRIPOS>ATOM
      1 C          -3.9640   -2.2012   -0.7037 C.ar    1  LIG1        0.0949
      2 C          -2.6452   -2.1425   -0.2683 C.ar    1  LIG1       -0.0265
      3 C          -2.1832   -0.9484    0.2627 C.ar    1  LIG1       -0.0153
      4 C          -3.0318    0.1522    0.3298 C.ar    1  LIG1        0.1461
      5 C          -4.3495    0.0114   -0.1489 C.ar    1  LIG1        0.1163
      6 N          -4.7748   -1.1523   -0.6390 N.ar    1  LIG1       -0.2370
      7 H          -1.1641   -0.8851    0.6223 H       1  LIG1        0.0656
      8 H          -1.9898   -3.0029   -0.3322 H       1  LIG1        0.0645
      9 S          -4.7196   -3.6554   -1.3954 S.3     1  LIG1       -0.1234
     10 H          -3.6854   -4.4842   -1.1788 H       1  LIG1        0.1086
     11 O          -2.6708    1.3575    0.8384 O.3     1  LIG1       -0.4930
     12 C          -1.4050    1.4712    1.4595 C.3     1  LIG1        0.0789
     13 H          -1.3544    2.4847    1.8553 H       1  LIG1        0.0660
     14 H          -1.2987    0.7570    2.2834 H       1  LIG1        0.0660
     15 H          -0.5881    1.3237    0.7439 H       1  LIG1        0.0660
     16 C          -6.6442    1.0509    0.3042 C.ar    1  LIG1        0.1042
     17 C          -5.3127    1.1454   -0.1326 C.ar    1  LIG1        0.0391
     18 C          -4.8954    2.3935   -0.5964 C.ar    1  LIG1       -0.0060
     19 C          -5.7441    3.4890   -0.5809 C.ar    1  LIG1        0.1467
     20 C          -7.0424    3.3175   -0.0648 C.ar    1  LIG1        0.1164
     21 N          -7.4401    2.1151    0.3396 N.ar    1  LIG1       -0.2363
     22 H          -3.8837    2.4955   -0.9620 H       1  LIG1        0.0662
     23 S          -7.4449   -0.4119    0.9219 S.3     1  LIG1       -0.1227
     24 H          -6.6568   -1.2856    0.2717 H       1  LIG1        0.1086
     25 O          -5.3953    4.7200   -1.0402 O.3     1  LIG1       -0.4929
     26 C          -4.1565    4.8593   -1.7064 C.3     1  LIG1        0.0789
     27 H          -4.1184    5.8896   -2.0585 H       1  LIG1        0.0660
     28 H          -3.3109    4.6778   -1.0329 H       1  LIG1        0.0660
     29 H          -4.0855    4.1819   -2.5647 H       1  LIG1        0.0660
     30 C          -9.3758    4.3557   -0.2730 C.ar    1  LIG1        0.1042
     31 C          -8.0090    4.4420    0.0451 C.ar    1  LIG1        0.0391
     32 C          -7.5564    5.6769    0.5144 C.ar    1  LIG1       -0.0060
     33 C          -8.4050    6.7673    0.6121 C.ar    1  LIG1        0.1467
     34 C          -9.7432    6.6077    0.2065 C.ar    1  LIG1        0.1164
     35 N         -10.1733    5.4182   -0.2014 N.ar    1  LIG1       -0.2363
     36 H          -6.5173    5.7719    0.7938 H       1  LIG1        0.0662
     37 S         -10.2343    2.9139   -0.8583 S.3     1  LIG1       -0.1227
     38 H          -9.3631    2.0215   -0.3518 H       1  LIG1        0.1086
     39 O          -8.0199    7.9844    1.0822 O.3     1  LIG1       -0.4929
     40 C          -6.7235    8.1093    1.6276 C.3     1  LIG1        0.0789
     41 H          -6.6528    9.1287    2.0061 H       1  LIG1        0.0660
     42 H          -6.5662    7.4064    2.4536 H       1  LIG1        0.0660
     43 H          -5.9468    7.9521    0.8697 H       1  LIG1        0.0660
     44 C         -12.0337    7.6419    0.6997 C.ar    1  LIG1        0.1034
     45 C         -10.7147    7.7349    0.2185 C.ar    1  LIG1        0.0390
     46 C         -10.3000    8.9722   -0.2869 C.ar    1  LIG1       -0.0066
     47 C         -11.1611   10.0561   -0.2699 C.ar    1  LIG1        0.1388
     48 C         -12.4296    9.8673    0.2763 C.ar    1  LIG1        0.0705
     49 N         -12.8459    8.7007    0.7349 N.ar    1  LIG1       -0.2447
     50 H          -9.2943    9.0661   -0.6716 H       1  LIG1        0.0662
     51 H         -13.1193   10.7062    0.3257 H       1  LIG1        0.0867
     52 S         -12.7988    6.1891    1.3842 S.3     1  LIG1       -0.1228
     53 H         -11.9898    5.3012    0.7790 H       1  LIG1        0.1086
     54 O         -10.8754   11.3016   -0.7337 O.3     1  LIG1       -0.4936
     55 C          -9.5938   11.5181   -1.2805 C.3     1  LIG1        0.0789
     56 H          -9.5646   12.5637   -1.5864 H       1  LIG1        0.0660
     57 H          -8.8034   11.3367   -0.5421 H       1  LIG1        0.0660
     58 H          -9.4151   10.8828   -2.1565 H       1  LIG1        0.0660
@<TRIPOS>BOND
     1    29    26    1
     2    58    55    1
     3    27    26    1
     4    26    25    1
     5    26    28    1
     6    56    55    1
     7     9    10    1
     8     9     1    1
     9    55    54    1
    10    55    57    1
    11    25    19    1
    12    22    18    1
    13    37    38    1
    14    37    30    1
    15    54    47    1
    16     1     6   ar
    17     1     2   ar
    18    50    46    1
    19     6     5   ar
    20    18    19   ar
    21    18    17   ar
    22    19    20   ar
    23     8     2    1
    24    46    47   ar
    25    46    45   ar
    26    30    35   ar
    27    30    31   ar
    28    47    48   ar
    29     2     3   ar
    30    35    34   ar
    31     5    17    1
    32     5     4   ar
    33    17    16   ar
    34    20    31    1
    35    20    21   ar
    36    31    32   ar
    37    34    45    1
    38    34    33   ar
    39    45    44   ar
    40     3     4   ar
    41     3     7    1
    42    24    23    1
    43    48    51    1
    44    48    49   ar
    45    16    21   ar
    46    16    23    1
    47     4    11    1
    48    32    33   ar
    49    32    36    1
    50    33    39    1
    51    44    49   ar
    52    44    52    1
    53    15    12    1
    54    53    52    1
    55    11    12    1
    56    43    40    1
    57    39    40    1
    58    12    13    1
    59    12    14    1
    60    40    41    1
    61    40    42    1
