@<TRIPOS>MOLECULE
mol_data/opt/cam/geoms/mol2/6gl6gl-6gl-6gl.out
 58 61 0 0 0
SMALL
GASTEIGER

@<TRIPOS>ATOM
      1 C          -4.0808   -2.2735   -0.3099 C.ar    1  LIG1        0.0949
      2 C          -2.7008   -2.1604   -0.4322 C.ar    1  LIG1       -0.0265
      3 C          -2.1505   -0.8896   -0.4895 C.ar    1  LIG1       -0.0153
      4 C          -2.9773    0.2264   -0.4062 C.ar    1  LIG1        0.1461
      5 C          -4.3645    0.0224   -0.2654 C.ar    1  LIG1        0.1163
      6 N          -4.8706   -1.2097   -0.2306 N.ar    1  LIG1       -0.2370
      7 H          -1.0793   -0.7786   -0.6003 H       1  LIG1        0.0656
      8 H          -2.0643   -3.0355   -0.4879 H       1  LIG1        0.0645
      9 S          -4.9496   -3.8240   -0.2373 S.3     1  LIG1       -0.1234
     10 H          -3.8857   -4.6084   -0.4745 H       1  LIG1        0.1086
     11 O          -2.5300    1.5065   -0.4610 O.3     1  LIG1       -0.4930
     12 C          -1.1613    1.7274   -0.7415 C.3     1  LIG1        0.0789
     13 H          -1.0381    2.8077   -0.8054 H       1  LIG1        0.0660
     14 H          -0.5170    1.3387    0.0555 H       1  LIG1        0.0660
     15 H          -0.8705    1.2747   -1.6957 H       1  LIG1        0.0660
     16 C          -6.5302    1.2610   -0.8411 C.ar    1  LIG1        0.1042
     17 C          -5.3147    1.1611   -0.1442 C.ar    1  LIG1        0.0391
     18 C          -5.0114    2.2035    0.7323 C.ar    1  LIG1       -0.0060
     19 C          -5.8492    3.2992    0.8680 C.ar    1  LIG1        0.1467
     20 C          -7.0145    3.3467    0.0797 C.ar    1  LIG1        0.1164
     21 N          -7.3123    2.3296   -0.7233 N.ar    1  LIG1       -0.2363
     22 H          -4.0957    2.1471    1.3031 H       1  LIG1        0.0662
     23 S          -7.1798    0.0755   -1.9966 S.3     1  LIG1       -0.1227
     24 H          -6.5225   -0.9835   -1.4931 H       1  LIG1        0.1086
     25 O          -5.6114    4.3286    1.7231 O.3     1  LIG1       -0.4929
     26 C          -4.5470    4.2022    2.6447 C.3     1  LIG1        0.0789
     27 H          -4.5962    5.0832    3.2836 H       1  LIG1        0.0660
     28 H          -4.6568    3.3031    3.2610 H       1  LIG1        0.0660
     29 H          -3.5741    4.1774    2.1401 H       1  LIG1        0.0660
     30 C          -9.3520    4.3962    0.1358 C.ar    1  LIG1        0.1042
     31 C          -7.9497    4.5024    0.1121 C.ar    1  LIG1        0.0391
     32 C          -7.4218    5.7947    0.1227 C.ar    1  LIG1       -0.0060
     33 C          -8.2428    6.9087    0.1798 C.ar    1  LIG1        0.1467
     34 C          -9.6331    6.7065    0.2454 C.ar    1  LIG1        0.1164
     35 N         -10.1291    5.4737    0.2203 N.ar    1  LIG1       -0.2363
     36 H          -6.3481    5.9113    0.1067 H       1  LIG1        0.0662
     37 S         -10.2949    2.8901    0.1341 S.3     1  LIG1       -0.1227
     38 H          -9.3226    2.1167   -0.3822 H       1  LIG1        0.1086
     39 O          -7.7819    8.1884    0.1952 O.3     1  LIG1       -0.4929
     40 C          -6.3877    8.3937    0.2821 C.3     1  LIG1        0.0789
     41 H          -6.2457    9.4715    0.3560 H       1  LIG1        0.0660
     42 H          -5.9658    7.9116    1.1712 H       1  LIG1        0.0660
     43 H          -5.8661    8.0230   -0.6084 H       1  LIG1        0.0660
     44 C         -11.6616    7.9156    1.2321 C.ar    1  LIG1        0.1034
     45 C         -10.5909    7.8436    0.3241 C.ar    1  LIG1        0.0390
     46 C         -10.4258    8.9127   -0.5625 C.ar    1  LIG1       -0.0066
     47 C         -11.2775   10.0033   -0.5035 C.ar    1  LIG1        0.1388
     48 C         -12.2754    9.9948    0.4699 C.ar    1  LIG1        0.0705
     49 N         -12.4597    8.9824    1.2987 N.ar    1  LIG1       -0.2447
     50 H          -9.6149    8.8763   -1.2764 H       1  LIG1        0.0662
     51 H         -12.9434   10.8481    0.5562 H       1  LIG1        0.0867
     52 S         -12.0753    6.6842    2.4493 S.3     1  LIG1       -0.1228
     53 H         -11.5093    5.6499    1.8040 H       1  LIG1        0.1086
     54 O         -11.2216   11.0951   -1.3106 O.3     1  LIG1       -0.4936
     55 C         -10.2235   11.1226   -2.3070 C.3     1  LIG1        0.0789
     56 H         -10.3506   12.0642   -2.8406 H       1  LIG1        0.0660
     57 H          -9.2172   11.0883   -1.8723 H       1  LIG1        0.0660
     58 H         -10.3350   10.2912   -3.0133 H       1  LIG1        0.0660
@<TRIPOS>BOND
     1    58    55    1
     2    56    55    1
     3    55    57    1
     4    55    54    1
     5    23    24    1
     6    23    16    1
     7    15    12    1
     8    54    47    1
     9    50    46    1
    10    16    21   ar
    11    16    17   ar
    12    13    12    1
    13    12    11    1
    14    12    14    1
    15    21    20   ar
    16    43    40    1
    17     7     3    1
    18    46    47   ar
    19    46    45   ar
    20    47    48   ar
    21     3     2   ar
    22     3     4   ar
    23     8     2    1
    24    10     9    1
    25    11     4    1
    26     2     1   ar
    27     4     5   ar
    28    38    37    1
    29     1     9    1
    30     1     6   ar
    31     5     6   ar
    32     5    17    1
    33    17    18   ar
    34    20    31    1
    35    20    19   ar
    36    36    32    1
    37    31    32   ar
    38    31    30   ar
    39    32    33   ar
    40    37    30    1
    41    30    35   ar
    42    33    39    1
    43    33    34   ar
    44    39    40    1
    45    35    34   ar
    46    34    45    1
    47    40    41    1
    48    40    42    1
    49    45    44   ar
    50    48    51    1
    51    48    49   ar
    52    18    19   ar
    53    18    22    1
    54    19    25    1
    55    44    49   ar
    56    44    52    1
    57    25    26    1
    58    53    52    1
    59    29    26    1
    60    26    28    1
    61    26    27    1
