@<TRIPOS>MOLECULE
mol_data/opt/cam/geoms/mol2/6gl6gl-6gl-6gl-.out
 58 61 0 0 0
SMALL
GASTEIGER

@<TRIPOS>ATOM
      1 C          -4.0875   -2.2760   -0.3120 C.ar    1  LIG1        0.0949
      2 C          -2.7073   -2.1642   -0.4331 C.ar    1  LIG1       -0.0265
      3 C          -2.1557   -0.8939   -0.4888 C.ar    1  LIG1       -0.0153
      4 C          -2.9813    0.2228   -0.4049 C.ar    1  LIG1        0.1461
      5 C          -4.3689    0.0202   -0.2653 C.ar    1  LIG1        0.1163
      6 N          -4.8763   -1.2114   -0.2322 N.ar    1  LIG1       -0.2370
      7 H          -1.0843   -0.7840   -0.5987 H       1  LIG1        0.0656
      8 H          -2.0718   -3.0399   -0.4893 H       1  LIG1        0.0645
      9 S          -4.9581   -3.8256   -0.2416 S.3     1  LIG1       -0.1234
     10 H          -3.8948   -4.6109   -0.4789 H       1  LIG1        0.1086
     11 O          -2.5327    1.5025   -0.4581 O.3     1  LIG1       -0.4930
     12 C          -1.1635    1.7222   -0.7373 C.3     1  LIG1        0.0789
     13 H          -1.0392    2.8025   -0.8000 H       1  LIG1        0.0660
     14 H          -0.5202    1.3321    0.0597 H       1  LIG1        0.0660
     15 H          -0.8725    1.2702   -1.6918 H       1  LIG1        0.0660
     16 C          -6.5329    1.2616   -0.8413 C.ar    1  LIG1        0.1042
     17 C          -5.3180    1.1597   -0.1436 C.ar    1  LIG1        0.0391
     18 C          -5.0143    2.2009    0.7342 C.ar    1  LIG1       -0.0060
     19 C          -5.8510    3.2973    0.8705 C.ar    1  LIG1        0.1467
     20 C          -7.0157    3.3468    0.0813 C.ar    1  LIG1        0.1164
     21 N          -7.3139    2.3309   -0.7229 N.ar    1  LIG1       -0.2363
     22 H          -4.0990    2.1429    1.3056 H       1  LIG1        0.0662
     23 S          -7.1829    0.0780   -1.9985 S.3     1  LIG1       -0.1227
     24 H          -6.5271   -0.9823   -1.4956 H       1  LIG1        0.1086
     25 O          -5.6127    4.3256    1.7267 O.3     1  LIG1       -0.4929
     26 C          -4.5490    4.1971    2.6489 C.3     1  LIG1        0.0789
     27 H          -4.5978    5.0776    3.2887 H       1  LIG1        0.0660
     28 H          -4.6602    3.2975    3.2643 H       1  LIG1        0.0660
     29 H          -3.5759    4.1718    2.1450 H       1  LIG1        0.0660
     30 C          -9.3521    4.3988    0.1369 C.ar    1  LIG1        0.1042
     31 C          -7.9497    4.5035    0.1143 C.ar    1  LIG1        0.0391
     32 C          -7.4204    5.7952    0.1266 C.ar    1  LIG1       -0.0060
     33 C          -8.2403    6.9100    0.1843 C.ar    1  LIG1        0.1467
     34 C          -9.6308    6.7092    0.2486 C.ar    1  LIG1        0.1164
     35 N         -10.1281    5.4769    0.2220 N.ar    1  LIG1       -0.2363
     36 H          -6.3466    5.9107    0.1114 H       1  LIG1        0.0662
     37 S         -10.2966    2.8936    0.1329 S.3     1  LIG1       -0.1227
     38 H          -9.3247    2.1197   -0.3835 H       1  LIG1        0.1086
     39 O          -7.7781    8.1892    0.2013 O.3     1  LIG1       -0.4929
     40 C          -6.3837    8.3930    0.2893 C.3     1  LIG1        0.0789
     41 H          -6.2407    9.4706    0.3645 H       1  LIG1        0.0660
     42 H          -5.9630    7.9095    1.1783 H       1  LIG1        0.0660
     43 H          -5.8619    8.0226   -0.6011 H       1  LIG1        0.0660
     44 C         -11.6588    7.9194    1.2352 C.ar    1  LIG1        0.1034
     45 C         -10.5875    7.8472    0.3278 C.ar    1  LIG1        0.0390
     46 C         -10.4207    8.9171   -0.5575 C.ar    1  LIG1       -0.0066
     47 C         -11.2713   10.0085   -0.4980 C.ar    1  LIG1        0.1388
     48 C         -12.2699   10.0000    0.4747 C.ar    1  LIG1        0.0705
     49 N         -12.4559    8.9870    1.3023 N.ar    1  LIG1       -0.2447
     50 H          -9.6093    8.8805   -1.2708 H       1  LIG1        0.0662
     51 H         -12.9370   10.8539    0.5614 H       1  LIG1        0.0867
     52 S         -12.0746    6.6872    2.4509 S.3     1  LIG1       -0.1228
     53 H         -11.5093    5.6530    1.8049 H       1  LIG1        0.1086
     54 O         -11.2136   11.1011   -1.3039 O.3     1  LIG1       -0.4936
     55 C         -10.2148   11.1285   -2.2995 C.3     1  LIG1        0.0789
     56 H         -10.3406   12.0708   -2.8323 H       1  LIG1        0.0660
     57 H          -9.2089   11.0927   -1.8642 H       1  LIG1        0.0660
     58 H         -10.3267   10.2980   -3.0068 H       1  LIG1        0.0660
@<TRIPOS>BOND
     1    58    55    1
     2    56    55    1
     3    55    57    1
     4    55    54    1
     5    23    24    1
     6    23    16    1
     7    15    12    1
     8    54    47    1
     9    50    46    1
    10    16    21   ar
    11    16    17   ar
    12    13    12    1
    13    12    11    1
    14    12    14    1
    15    21    20   ar
    16    43    40    1
    17     7     3    1
    18    46    47   ar
    19    46    45   ar
    20    47    48   ar
    21     8     2    1
    22     3     2   ar
    23     3     4   ar
    24    10     9    1
    25    11     4    1
    26     2     1   ar
    27     4     5   ar
    28    38    37    1
    29     1     9    1
    30     1     6   ar
    31     5     6   ar
    32     5    17    1
    33    17    18   ar
    34    20    31    1
    35    20    19   ar
    36    36    32    1
    37    31    32   ar
    38    31    30   ar
    39    32    33   ar
    40    37    30    1
    41    30    35   ar
    42    33    39    1
    43    33    34   ar
    44    39    40    1
    45    35    34   ar
    46    34    45    1
    47    40    41    1
    48    40    42    1
    49    45    44   ar
    50    48    51    1
    51    48    49   ar
    52    18    19   ar
    53    18    22    1
    54    19    25    1
    55    44    49   ar
    56    44    52    1
    57    25    26    1
    58    53    52    1
    59    29    26    1
    60    26    28    1
    61    26    27    1
