@<TRIPOS>MOLECULE
mol_data/opt/cam/geoms/mol2/6gl6gl6gl6gl-.out
 58 61 0 0 0
SMALL
GASTEIGER

@<TRIPOS>ATOM
      1 C          -3.6722   -1.9294   -1.2621 C.ar    1  LIG1        0.0949
      2 C          -2.5277   -2.0455   -0.4817 C.ar    1  LIG1       -0.0265
      3 C          -2.2667   -1.0524    0.4492 C.ar    1  LIG1       -0.0153
      4 C          -3.1322    0.0310    0.5661 C.ar    1  LIG1        0.1461
      5 C          -4.2601    0.0801   -0.2775 C.ar    1  LIG1        0.1163
      6 N          -4.4991   -0.8970   -1.1515 N.ar    1  LIG1       -0.2370
      7 H          -1.3900   -1.1310    1.0793 H       1  LIG1        0.0656
      8 H          -1.8553   -2.8887   -0.5856 H       1  LIG1        0.0645
      9 S          -4.1650   -3.1197   -2.4889 S.3     1  LIG1       -0.1234
     10 H          -3.2143   -4.0274   -2.2138 H       1  LIG1        0.1086
     11 O          -2.9618    1.0437    1.4527 O.3     1  LIG1       -0.4930
     12 C          -1.9327    0.9267    2.4166 C.3     1  LIG1        0.0789
     13 H          -2.0287    1.7963    3.0654 H       1  LIG1        0.0660
     14 H          -2.0480    0.0164    3.0149 H       1  LIG1        0.0660
     15 H          -0.9402    0.9325    1.9518 H       1  LIG1        0.0660
     16 C          -6.6210    1.0683   -0.2080 C.ar    1  LIG1        0.1042
     17 C          -5.2237    1.2131   -0.2312 C.ar    1  LIG1        0.0391
     18 C          -4.7296    2.5174   -0.2068 C.ar    1  LIG1       -0.0060
     19 C          -5.5808    3.6090   -0.1405 C.ar    1  LIG1        0.1467
     20 C          -6.9656    3.3684   -0.0802 C.ar    1  LIG1        0.1164
     21 N          -7.4275    2.1221   -0.1163 N.ar    1  LIG1       -0.2363
     22 H          -3.6591    2.6624   -0.2195 H       1  LIG1        0.0662
     23 S          -7.5175   -0.4670   -0.2148 S.3     1  LIG1       -0.1227
     24 H          -6.5355   -1.2039   -0.7607 H       1  LIG1        0.1086
     25 O          -5.1544    4.8994   -0.1119 O.3     1  LIG1       -0.4929
     26 C          -3.7650    5.1425   -0.0262 C.3     1  LIG1        0.0789
     27 H          -3.6528    6.2233    0.0539 H       1  LIG1        0.0660
     28 H          -3.3292    4.6673    0.8597 H       1  LIG1        0.0660
     29 H          -3.2362    4.7916   -0.9201 H       1  LIG1        0.0660
     30 C          -9.0618    4.4905    0.8720 C.ar    1  LIG1        0.1042
     31 C          -7.9559    4.4752    0.0062 C.ar    1  LIG1        0.0391
     32 C          -7.8093    5.5793   -0.8351 C.ar    1  LIG1       -0.0060
     33 C          -8.6861    6.6507   -0.7777 C.ar    1  LIG1        0.1467
     34 C          -9.7247    6.6114    0.1713 C.ar    1  LIG1        0.1164
     35 N          -9.8785    5.5376    0.9398 N.ar    1  LIG1       -0.2363
     36 H          -6.9846    5.5894   -1.5330 H       1  LIG1        0.0662
     37 S          -9.5095    3.2086    2.0206 S.3     1  LIG1       -0.1227
     38 H          -8.9065    2.2113    1.3493 H       1  LIG1        0.1086
     39 O          -8.6022    7.7386   -1.5892 O.3     1  LIG1       -0.4929
     40 C          -7.6677    7.7118   -2.6480 C.3     1  LIG1        0.0789
     41 H          -7.8255    8.6306   -3.2121 H       1  LIG1        0.0660
     42 H          -6.6356    7.6892   -2.2789 H       1  LIG1        0.0660
     43 H          -7.8325    6.8515   -3.3064 H       1  LIG1        0.0660
     44 C         -12.0686    7.5924    0.4947 C.ar    1  LIG1        0.1034
     45 C         -10.6766    7.7410    0.3518 C.ar    1  LIG1        0.0390
     46 C         -10.1613    9.0415    0.3909 C.ar    1  LIG1       -0.0066
     47 C         -11.0119   10.1248    0.5304 C.ar    1  LIG1        0.1388
     48 C         -12.3795    9.8679    0.6138 C.ar    1  LIG1        0.0705
     49 N         -12.8810    8.6461    0.6029 N.ar    1  LIG1       -0.2447
     50 H          -9.0940    9.1806    0.2925 H       1  LIG1        0.0662
     51 H         -13.0742   10.6998    0.6997 H       1  LIG1        0.0867
     52 S         -12.9655    6.0562    0.4828 S.3     1  LIG1       -0.1228
     53 H         -11.9284    5.2796    0.8434 H       1  LIG1        0.1086
     54 O         -10.6311   11.4286    0.5854 O.3     1  LIG1       -0.4936
     55 C          -9.2532   11.7126    0.4908 C.3     1  LIG1        0.0789
     56 H          -9.1597   12.7967    0.5513 H       1  LIG1        0.0660
     57 H          -8.6889   11.2572    1.3136 H       1  LIG1        0.0660
     58 H          -8.8338   11.3677   -0.4622 H       1  LIG1        0.0660
@<TRIPOS>BOND
     1    43    40    1
     2    41    40    1
     3    40    42    1
     4    40    39    1
     5     9    10    1
     6     9     1    1
     7    39    33    1
     8    36    32    1
     9     1     6   ar
    10     1     2   ar
    11     6     5   ar
    12    29    26    1
    13    32    33   ar
    14    32    31   ar
    15    33    34   ar
    16    24    23    1
    17     8     2    1
    18     2     3   ar
    19    58    55    1
    20     5    17    1
    21     5     4   ar
    22    17    16   ar
    23    17    18   ar
    24    22    18    1
    25    23    16    1
    26    16    21   ar
    27    18    19   ar
    28    19    25    1
    29    19    20   ar
    30    21    20   ar
    31    25    26    1
    32    20    31    1
    33    26    27    1
    34    26    28    1
    35    31    30   ar
    36    34    45    1
    37    34    35   ar
    38    50    46    1
    39    45    46   ar
    40    45    44   ar
    41    46    47   ar
    42     3     4   ar
    43     3     7    1
    44    52    44    1
    45    52    53    1
    46    55    56    1
    47    55    54    1
    48    55    57    1
    49    44    49   ar
    50    47    54    1
    51    47    48   ar
    52     4    11    1
    53    49    48   ar
    54    48    51    1
    55    30    35   ar
    56    30    37    1
    57    38    37    1
    58    11    12    1
    59    15    12    1
    60    12    14    1
    61    12    13    1
