@<TRIPOS>MOLECULE
mol_data/opt/cam/geoms/mol2/6gl6gl6gl-6gl.out
 58 61 0 0 0
SMALL
GASTEIGER

@<TRIPOS>ATOM
      1 C          -3.9752   -2.2058   -0.7089 C.ar    1  LIG1        0.0949
      2 C          -2.6521   -2.1462   -0.2870 C.ar    1  LIG1       -0.0265
      3 C          -2.1841   -0.9503    0.2346 C.ar    1  LIG1       -0.0153
      4 C          -3.0313    0.1511    0.3059 C.ar    1  LIG1        0.1461
      5 C          -4.3538    0.0093   -0.1590 C.ar    1  LIG1        0.1163
      6 N          -4.7847   -1.1561   -0.6402 N.ar    1  LIG1       -0.2370
      7 H          -1.1614   -0.8862    0.5837 H       1  LIG1        0.0656
      8 H          -1.9978   -3.0073   -0.3540 H       1  LIG1        0.0645
      9 S          -4.7386   -3.6622   -1.3872 S.3     1  LIG1       -0.1234
     10 H          -3.7028   -4.4909   -1.1777 H       1  LIG1        0.1086
     11 O          -2.6644    1.3582    0.8060 O.3     1  LIG1       -0.4930
     12 C          -1.3924    1.4735    1.4140 C.3     1  LIG1        0.0789
     13 H          -1.3372    2.4886    1.8052 H       1  LIG1        0.0660
     14 H          -1.2782    0.7625    2.2395 H       1  LIG1        0.0660
     15 H          -0.5828    1.3226    0.6908 H       1  LIG1        0.0660
     16 C          -6.6432    1.0521    0.3130 C.ar    1  LIG1        0.1042
     17 C          -5.3161    1.1440   -0.1375 C.ar    1  LIG1        0.0391
     18 C          -4.9027    2.3899   -0.6104 C.ar    1  LIG1       -0.0060
     19 C          -5.7506    3.4860   -0.5908 C.ar    1  LIG1        0.1467
     20 C          -7.0437    3.3174   -0.0610 C.ar    1  LIG1        0.1164
     21 N          -7.4381    2.1169    0.3522 N.ar    1  LIG1       -0.2363
     22 H          -3.8946    2.4898   -0.9866 H       1  LIG1        0.0662
     23 S          -7.4385   -0.4078    0.9445 S.3     1  LIG1       -0.1227
     24 H          -6.6575   -1.2846    0.2899 H       1  LIG1        0.1086
     25 O          -5.4056    4.7150   -1.0585 O.3     1  LIG1       -0.4929
     26 C          -4.1735    4.8508   -1.7376 C.3     1  LIG1        0.0789
     27 H          -4.1383    5.8797   -2.0942 H       1  LIG1        0.0660
     28 H          -3.3213    4.6714   -1.0719 H       1  LIG1        0.0660
     29 H          -4.1115    4.1700   -2.5938 H       1  LIG1        0.0660
     30 C          -9.3785    4.3563   -0.2499 C.ar    1  LIG1        0.1042
     31 C          -8.0084    4.4430    0.0541 C.ar    1  LIG1        0.0391
     32 C          -7.5504    5.6794    0.5140 C.ar    1  LIG1       -0.0060
     33 C          -8.3974    6.7707    0.6159 C.ar    1  LIG1        0.1467
     34 C          -9.7396    6.6104    0.2243 C.ar    1  LIG1        0.1164
     35 N         -10.1745    5.4196   -0.1744 N.ar    1  LIG1       -0.2363
     36 H          -6.5085    5.7749    0.7826 H       1  LIG1        0.0662
     37 S         -10.2437    2.9127   -0.8207 S.3     1  LIG1       -0.1227
     38 H          -9.3680    2.0218   -0.3195 H       1  LIG1        0.1086
     39 O          -8.0068    7.9894    1.0773 O.3     1  LIG1       -0.4929
     40 C          -6.7049    8.1157    1.6091 C.3     1  LIG1        0.0789
     41 H          -6.6298    9.1365    1.9828 H       1  LIG1        0.0660
     42 H          -6.5398    7.4160    2.4363 H       1  LIG1        0.0660
     43 H          -5.9359    7.9549    0.8442 H       1  LIG1        0.0660
     44 C         -12.0244    7.6480    0.7364 C.ar    1  LIG1        0.1034
     45 C         -10.7103    7.7382    0.2416 C.ar    1  LIG1        0.0390
     46 C         -10.2999    8.9733   -0.2728 C.ar    1  LIG1       -0.0066
     47 C         -11.1601   10.0578   -0.2514 C.ar    1  LIG1        0.1388
     48 C         -12.4232    9.8719    0.3082 C.ar    1  LIG1        0.0705
     49 N         -12.8356    8.7075    0.7755 N.ar    1  LIG1       -0.2447
     50 H          -9.2981    9.0650   -0.6679 H       1  LIG1        0.0662
     51 H         -13.1119   10.7115    0.3612 H       1  LIG1        0.0867
     52 S         -12.7835    6.1984    1.4343 S.3     1  LIG1       -0.1228
     53 H         -11.9811    5.3076    0.8245 H       1  LIG1        0.1086
     54 O         -10.8784   11.3013   -0.7230 O.3     1  LIG1       -0.4936
     55 C          -9.6022   11.5148   -1.2835 C.3     1  LIG1        0.0789
     56 H          -9.5755   12.5591   -1.5938 H       1  LIG1        0.0660
     57 H          -8.8045   11.3358   -0.5523 H       1  LIG1        0.0660
     58 H          -9.4327   10.8759   -2.1587 H       1  LIG1        0.0660
@<TRIPOS>BOND
     1    29    26    1
     2    58    55    1
     3    27    26    1
     4    26    28    1
     5    26    25    1
     6    56    55    1
     7     9    10    1
     8     9     1    1
     9    55    54    1
    10    55    57    1
    11    25    19    1
    12    22    18    1
    13    37    38    1
    14    37    30    1
    15    54    47    1
    16     1     6   ar
    17     1     2   ar
    18    50    46    1
    19     6     5   ar
    20    18    19   ar
    21    18    17   ar
    22    19    20   ar
    23     8     2    1
    24     2     3   ar
    25    46    47   ar
    26    46    45   ar
    27    47    48   ar
    28    30    35   ar
    29    30    31   ar
    30    35    34   ar
    31     5    17    1
    32     5     4   ar
    33    17    16   ar
    34    20    31    1
    35    20    21   ar
    36    31    32   ar
    37    34    45    1
    38    34    33   ar
    39     3     4   ar
    40     3     7    1
    41    45    44   ar
    42    24    23    1
    43     4    11    1
    44    48    51    1
    45    48    49   ar
    46    16    21   ar
    47    16    23    1
    48    32    33   ar
    49    32    36    1
    50    33    39    1
    51    15    12    1
    52    44    49   ar
    53    44    52    1
    54    11    12    1
    55    53    52    1
    56    43    40    1
    57    39    40    1
    58    12    13    1
    59    12    14    1
    60    40    41    1
    61    40    42    1
