@<TRIPOS>MOLECULE
mol_data/opt/cam/geoms/mol2/6gl6gl-6gl.out
 44 46 0 0 0
SMALL
GASTEIGER

@<TRIPOS>ATOM
      1 C          -4.2167   -2.2134    0.3388 C.ar    1  LIG1        0.0949
      2 C          -2.8649   -2.1679    0.0197 C.ar    1  LIG1       -0.0265
      3 C          -2.3177   -0.9453   -0.3375 C.ar    1  LIG1       -0.0153
      4 C          -3.1177    0.1928   -0.3504 C.ar    1  LIG1        0.1461
      5 C          -4.4755    0.0614    0.0042 C.ar    1  LIG1        0.1163
      6 N          -4.9812   -1.1284    0.3268 N.ar    1  LIG1       -0.2370
      7 H          -1.2703   -0.8896   -0.6057 H       1  LIG1        0.0656
      8 H          -2.2483   -3.0586    0.0406 H       1  LIG1        0.0645
      9 S          -5.0802   -3.6982    0.8028 S.3     1  LIG1       -0.1234
     10 H          -4.0649   -4.5462    0.5713 H       1  LIG1        0.1086
     11 O          -2.6722    1.4278   -0.6944 O.3     1  LIG1       -0.4930
     12 C          -1.3517    1.5513   -1.1848 C.3     1  LIG1        0.0789
     13 H          -1.2298    2.5982   -1.4599 H       1  LIG1        0.0660
     14 H          -0.6100    1.2917   -0.4206 H       1  LIG1        0.0660
     15 H          -1.1937    0.9254   -2.0700 H       1  LIG1        0.0660
     16 C          -6.6858    1.2469   -0.5075 C.ar    1  LIG1        0.1042
     17 C          -5.3921    1.2328    0.0383 C.ar    1  LIG1        0.0391
     18 C          -4.9683    2.4036    0.6690 C.ar    1  LIG1       -0.0060
     19 C          -5.7730    3.5309    0.7103 C.ar    1  LIG1        0.1467
     20 C          -7.0313    3.4740    0.0816 C.ar    1  LIG1        0.1164
     21 N          -7.4389    2.3426   -0.4842 N.ar    1  LIG1       -0.2363
     22 H          -3.9869    2.4196    1.1208 H       1  LIG1        0.0662
     23 S          -7.4862   -0.1017   -1.3472 S.3     1  LIG1       -0.1227
     24 H          -6.7793   -1.0773   -0.7513 H       1  LIG1        0.1086
     25 O          -5.4199    4.6892    1.3274 O.3     1  LIG1       -0.4929
     26 C          -4.2249    4.7086    2.0803 C.3     1  LIG1        0.0789
     27 H          -4.1745    5.6953    2.5395 H       1  LIG1        0.0660
     28 H          -4.2339    3.9453    2.8666 H       1  LIG1        0.0660
     29 H          -3.3430    4.5613    1.4458 H       1  LIG1        0.0660
     30 C          -9.3222    4.5963    0.2943 C.ar    1  LIG1        0.1034
     31 C          -7.9422    4.6493    0.0270 C.ar    1  LIG1        0.0390
     32 C          -7.4003    5.8924   -0.3186 C.ar    1  LIG1       -0.0066
     33 C          -8.2061    7.0176   -0.3554 C.ar    1  LIG1        0.1388
     34 C          -9.5511    6.8622   -0.0231 C.ar    1  LIG1        0.0705
     35 N         -10.0836    5.6927    0.2821 N.ar    1  LIG1       -0.2447
     36 H          -6.3438    5.9565   -0.5378 H       1  LIG1        0.0662
     37 H         -10.2032    7.7320   -0.0190 H       1  LIG1        0.0867
     38 S         -10.2463    3.1456    0.7492 S.3     1  LIG1       -0.1228
     39 H          -9.3957    2.2552    0.2093 H       1  LIG1        0.1086
     40 O          -7.7992    8.2727   -0.6808 O.3     1  LIG1       -0.4936
     41 C          -6.4413    8.4549   -1.0153 C.3     1  LIG1        0.0789
     42 H          -6.3219    9.5141   -1.2417 H       1  LIG1        0.0660
     43 H          -5.7805    8.1881   -0.1817 H       1  LIG1        0.0660
     44 H          -6.1596    7.8653   -1.8961 H       1  LIG1        0.0660
@<TRIPOS>BOND
     1    15    12    1
     2    44    41    1
     3    13    12    1
     4    23    24    1
     5    23    16    1
     6    42    41    1
     7    12    11    1
     8    12    14    1
     9    41    40    1
    10    41    43    1
    11    11     4    1
    12    40    33    1
    13     7     3    1
    14    36    32    1
    15    16    21   ar
    16    16    17   ar
    17    21    20   ar
    18    33    32   ar
    19    33    34   ar
    20     4     3   ar
    21     4     5   ar
    22     3     2   ar
    23    32    31   ar
    24    34    37    1
    25    34    35   ar
    26     5    17    1
    27     5     6   ar
    28     2     8    1
    29     2     1   ar
    30    31    20    1
    31    31    30   ar
    32    17    18   ar
    33    20    19   ar
    34    39    38    1
    35    35    30   ar
    36    30    38    1
    37     6     1   ar
    38     1     9    1
    39    10     9    1
    40    18    19   ar
    41    18    22    1
    42    19    25    1
    43    25    26    1
    44    29    26    1
    45    26    27    1
    46    26    28    1
