@<TRIPOS>MOLECULE
mol_data/opt/cam/geoms/mol2/6gl6gl6gl-.out
 44 46 0 0 0
SMALL
GASTEIGER

@<TRIPOS>ATOM
      1 C          -4.2185   -2.2134   -0.3402 C.ar    1  LIG1        0.0949
      2 C          -2.8712   -2.1711   -0.0022 C.ar    1  LIG1       -0.0265
      3 C          -2.3274   -0.9510    0.3684 C.ar    1  LIG1       -0.0153
      4 C          -3.1261    0.1881    0.3754 C.ar    1  LIG1        0.1461
      5 C          -4.4790    0.0601    0.0014 C.ar    1  LIG1        0.1163
      6 N          -4.9817   -1.1274   -0.3338 N.ar    1  LIG1       -0.2370
      7 H          -1.2838   -0.8979    0.6514 H       1  LIG1        0.0656
      8 H          -2.2554   -3.0625   -0.0186 H       1  LIG1        0.0645
      9 S          -5.0773   -3.6949   -0.8231 S.3     1  LIG1       -0.1234
     10 H          -4.0663   -4.5453   -0.5815 H       1  LIG1        0.1086
     11 O          -2.6839    1.4209    0.7314 O.3     1  LIG1       -0.4930
     12 C          -1.3702    1.5404    1.2407 C.3     1  LIG1        0.0789
     13 H          -1.2508    2.5858    1.5223 H       1  LIG1        0.0660
     14 H          -1.2253    0.9102    2.1251 H       1  LIG1        0.0660
     15 H          -0.6183    1.2834    0.4857 H       1  LIG1        0.0660
     16 C          -6.6947    1.2462    0.4879 C.ar    1  LIG1        0.1042
     17 C          -5.3936    1.2329   -0.0399 C.ar    1  LIG1        0.0391
     18 C          -4.9596    2.4061   -0.6592 C.ar    1  LIG1       -0.0060
     19 C          -5.7623    3.5346   -0.7064 C.ar    1  LIG1        0.1467
     20 C          -7.0292    3.4764   -0.0956 C.ar    1  LIG1        0.1164
     21 N          -7.4461    2.3430    0.4593 N.ar    1  LIG1       -0.2363
     22 H          -3.9720    2.4229   -1.0973 H       1  LIG1        0.0662
     23 S          -7.5084   -0.1053    1.3101 S.3     1  LIG1       -0.1227
     24 H          -6.7945   -1.0790    0.7195 H       1  LIG1        0.1086
     25 O          -5.3991    4.6953   -1.3131 O.3     1  LIG1       -0.4929
     26 C          -4.1938    4.7166   -2.0493 C.3     1  LIG1        0.0789
     27 H          -4.1358    5.7054   -2.5032 H       1  LIG1        0.0660
     28 H          -3.3210    4.5652   -1.4033 H       1  LIG1        0.0660
     29 H          -4.1929    3.9570   -2.8392 H       1  LIG1        0.0660
     30 C          -9.3156    4.6028   -0.3348 C.ar    1  LIG1        0.1034
     31 C          -7.9393    4.6527   -0.0481 C.ar    1  LIG1        0.0390
     32 C          -7.4007    5.8934    0.3109 C.ar    1  LIG1       -0.0066
     33 C          -8.2056    7.0195    0.3417 C.ar    1  LIG1        0.1388
     34 C          -9.5461    6.8674   -0.0101 C.ar    1  LIG1        0.0705
     35 N         -10.0756    5.7000   -0.3280 N.ar    1  LIG1       -0.2447
     36 H          -6.3473    5.9551    0.5450 H       1  LIG1        0.0662
     37 H         -10.1969    7.7381   -0.0192 H       1  LIG1        0.0867
     38 S         -10.2350    3.1553   -0.8093 S.3     1  LIG1       -0.1228
     39 H          -9.3931    2.2614   -0.2617 H       1  LIG1        0.1086
     40 O          -7.8017    8.2725    0.6786 O.3     1  LIG1       -0.4936
     41 C          -6.4484    8.4514    1.0328 C.3     1  LIG1        0.0789
     42 H          -6.3308    9.5094    1.2658 H       1  LIG1        0.0660
     43 H          -6.1796    7.8573    1.9146 H       1  LIG1        0.0660
     44 H          -5.7763    8.1876    0.2072 H       1  LIG1        0.0660
@<TRIPOS>BOND
     1    29    26    1
     2    27    26    1
     3    26    28    1
     4    26    25    1
     5    25    19    1
     6    22    18    1
     7     9    10    1
     8     9     1    1
     9    38    30    1
    10    38    39    1
    11    19    18   ar
    12    19    20   ar
    13    18    17   ar
    14     1     6   ar
    15     1     2   ar
    16    30    35   ar
    17    30    31   ar
    18     6     5   ar
    19    35    34   ar
    20    20    31    1
    21    20    21   ar
    22    31    32   ar
    23    17     5    1
    24    17    16   ar
    25    37    34    1
    26     8     2    1
    27    34    33   ar
    28     2     3   ar
    29     5     4   ar
    30    44    41    1
    31    32    33   ar
    32    32    36    1
    33    33    40    1
    34     3     4   ar
    35     3     7    1
    36     4    11    1
    37    21    16   ar
    38    15    12    1
    39    16    23    1
    40    40    41    1
    41    24    23    1
    42    11    12    1
    43    41    42    1
    44    41    43    1
    45    12    13    1
    46    12    14    1
