@<TRIPOS>MOLECULE
mol_data/opt/cam/geoms/mol2/6gl6gl.out
 30 31 0 0 0
SMALL
GASTEIGER

@<TRIPOS>ATOM
      1 C          -4.4329   -2.0189   -0.7626 C.ar    1  LIG1        0.0949
      2 C          -3.0717   -2.1113   -0.5006 C.ar    1  LIG1       -0.0265
      3 C          -2.4330   -1.0053    0.0396 C.ar    1  LIG1       -0.0153
      4 C          -3.1560    0.1573    0.2860 C.ar    1  LIG1        0.1461
      5 C          -4.5308    0.1705   -0.0250 C.ar    1  LIG1        0.1163
      6 N          -5.1249   -0.9104   -0.5278 N.ar    1  LIG1       -0.2370
      7 H          -1.3758   -1.0596    0.2665 H       1  LIG1        0.0656
      8 H          -2.5165   -3.0195   -0.7030 H       1  LIG1        0.0645
      9 S          -5.4073   -3.3461   -1.4391 S.3     1  LIG1       -0.1234
     10 H          -4.4358   -4.2734   -1.4258 H       1  LIG1        0.1086
     11 O          -2.6207    1.2848    0.8182 O.3     1  LIG1       -0.4930
     12 C          -1.2794    1.2449    1.2620 C.3     1  LIG1        0.0789
     13 H          -1.0813    2.2185    1.7085 H       1  LIG1        0.0660
     14 H          -1.1305    0.4652    2.0173 H       1  LIG1        0.0660
     15 H          -0.5824    1.0816    0.4317 H       1  LIG1        0.0660
     16 C          -6.6093    1.3844    0.8396 C.ar    1  LIG1        0.1034
     17 C          -5.3653    1.3853    0.1867 C.ar    1  LIG1        0.0390
     18 C          -4.8914    2.6086   -0.2982 C.ar    1  LIG1       -0.0066
     19 C          -5.6262    3.7658   -0.1005 C.ar    1  LIG1        0.1388
     20 C          -6.8262    3.6595    0.6019 C.ar    1  LIG1        0.0705
     21 N          -7.2975    2.5084    1.0465 N.ar    1  LIG1       -0.2447
     22 H          -3.9397    2.6325   -0.8107 H       1  LIG1        0.0662
     23 H          -7.4131    4.5545    0.7922 H       1  LIG1        0.0867
     24 S          -7.4148   -0.0378    1.5464 S.3     1  LIG1       -0.1228
     25 H          -6.8133   -0.9523    0.7679 H       1  LIG1        0.1086
     26 O          -5.2770    5.0073   -0.5252 O.3     1  LIG1       -0.4936
     27 C          -4.0647    5.1423   -1.2341 C.3     1  LIG1        0.0789
     28 H          -3.9722    6.1993   -1.4819 H       1  LIG1        0.0660
     29 H          -3.2048    4.8388   -0.6249 H       1  LIG1        0.0660
     30 H          -4.0711    4.5554   -2.1604 H       1  LIG1        0.0660
@<TRIPOS>BOND
     1    30    27    1
     2    28    27    1
     3     9    10    1
     4     9     1    1
     5    27    29    1
     6    27    26    1
     7    22    18    1
     8     1     6   ar
     9     1     2   ar
    10     8     2    1
    11     6     5   ar
    12    26    19    1
    13     2     3   ar
    14    18    19   ar
    15    18    17   ar
    16    19    20   ar
    17     5    17    1
    18     5     4   ar
    19     3     7    1
    20     3     4   ar
    21    17    16   ar
    22     4    11    1
    23    15    12    1
    24    20    23    1
    25    20    21   ar
    26    25    24    1
    27    11    12    1
    28    16    21   ar
    29    16    24    1
    30    12    13    1
    31    12    14    1
