@<TRIPOS>MOLECULE
mol_data/opt/cam/geoms/mol2/6gl6gl6gl.out
 44 46 0 0 0
SMALL
GASTEIGER

@<TRIPOS>ATOM
      1 C          -4.0905   -1.8566   -1.4830 C.ar    1  LIG1        0.0949
      2 C          -2.8822   -2.0859   -0.8358 C.ar    1  LIG1       -0.0265
      3 C          -2.4552   -1.1576    0.1010 C.ar    1  LIG1       -0.0153
      4 C          -3.2248   -0.0263    0.3538 C.ar    1  LIG1        0.1461
      5 C          -4.4286    0.1378   -0.3607 C.ar    1  LIG1        0.1163
      6 N          -4.8264   -0.7782   -1.2430 N.ar    1  LIG1       -0.2370
      7 H          -1.5253   -1.3240    0.6296 H       1  LIG1        0.0656
      8 H          -2.2862   -2.9662   -1.0452 H       1  LIG1        0.0645
      9 S          -4.7924   -2.9527   -2.6963 S.3     1  LIG1       -0.1234
     10 H          -3.8794   -3.9292   -2.5684 H       1  LIG1        0.1086
     11 O          -2.8918    0.9297    1.2569 O.3     1  LIG1       -0.4930
     12 C          -1.7805    0.6985    2.1009 C.3     1  LIG1        0.0789
     13 H          -1.7477    1.5401    2.7916 H       1  LIG1        0.0660
     14 H          -1.8977   -0.2303    2.6698 H       1  LIG1        0.0660
     15 H          -0.8426    0.6611    1.5347 H       1  LIG1        0.0660
     16 C          -6.6891    1.2777    0.0192 C.ar    1  LIG1        0.1042
     17 C          -5.2976    1.3294   -0.1635 C.ar    1  LIG1        0.0391
     18 C          -4.7113    2.5956   -0.1519 C.ar    1  LIG1       -0.0060
     19 C          -5.4697    3.7368    0.0534 C.ar    1  LIG1        0.1467
     20 C          -6.8513    3.5858    0.2713 C.ar    1  LIG1        0.1164
     21 N          -7.4035    2.3770    0.2454 N.ar    1  LIG1       -0.2363
     22 H          -3.6417    2.6693   -0.2861 H       1  LIG1        0.0662
     23 S          -7.6872   -0.1940    0.0609 S.3     1  LIG1       -0.1227
     24 H          -6.8300   -0.9692   -0.6241 H       1  LIG1        0.1086
     25 O          -4.9551    4.9943    0.0760 O.3     1  LIG1       -0.4929
     26 C          -3.5527    5.1436   -0.0003 C.3     1  LIG1        0.0789
     27 H          -3.3574    6.2106    0.1017 H       1  LIG1        0.0660
     28 H          -3.0476    4.6050    0.8095 H       1  LIG1        0.0660
     29 H          -3.1593    4.7967   -0.9630 H       1  LIG1        0.0660
     30 C          -8.6816    4.8263    1.5577 C.ar    1  LIG1        0.1034
     31 C          -7.7399    4.7547    0.5171 C.ar    1  LIG1        0.0390
     32 C          -7.6412    5.8554   -0.3400 C.ar    1  LIG1       -0.0066
     33 C          -8.4308    6.9736   -0.1288 C.ar    1  LIG1        0.1388
     34 C          -9.2971    6.9587    0.9636 C.ar    1  LIG1        0.0705
     35 N          -9.4182    5.9182    1.7688 N.ar    1  LIG1       -0.2447
     36 H          -6.9291    5.8204   -1.1526 H       1  LIG1        0.0662
     37 H          -9.9114    7.8318    1.1685 H       1  LIG1        0.0867
     38 S          -8.9868    3.5588    2.7705 S.3     1  LIG1       -0.1228
     39 H          -8.5581    2.5323    2.0169 H       1  LIG1        0.1086
     40 O          -8.4304    8.0977   -0.8914 O.3     1  LIG1       -0.4936
     41 C          -7.5655    8.1339   -2.0053 C.3     1  LIG1        0.0789
     42 H          -7.7202    9.1023   -2.4805 H       1  LIG1        0.0660
     43 H          -6.5148    8.0445   -1.7040 H       1  LIG1        0.0660
     44 H          -7.7994    7.3394   -2.7239 H       1  LIG1        0.0660
@<TRIPOS>BOND
     1    44    41    1
     2     9    10    1
     3     9     1    1
     4    42    41    1
     5    41    43    1
     6    41    40    1
     7     1     6   ar
     8     1     2   ar
     9     6     5   ar
    10    36    32    1
    11     8     2    1
    12    29    26    1
    13    40    33    1
    14     2     3   ar
    15    24    23    1
    16     5    17    1
    17     5     4   ar
    18    32    33   ar
    19    32    31   ar
    20    22    18    1
    21    17    18   ar
    22    17    16   ar
    23    18    19   ar
    24    33    34   ar
    25    26    25    1
    26    26    27    1
    27    26    28    1
    28    16    23    1
    29    16    21   ar
    30    19    25    1
    31    19    20   ar
    32     3     4   ar
    33     3     7    1
    34    21    20   ar
    35    20    31    1
    36     4    11    1
    37    31    30   ar
    38    34    37    1
    39    34    35   ar
    40    11    12    1
    41    15    12    1
    42    30    35   ar
    43    30    38    1
    44    39    38    1
    45    12    14    1
    46    12    13    1
