@<TRIPOS>MOLECULE
mol_data/opt/cam/geoms/mol2/6gl6gl-.out
 30 31 0 0 0
SMALL
GASTEIGER

@<TRIPOS>ATOM
      1 C          -4.4337   -2.0245    0.7429 C.ar    1  LIG1        0.0949
      2 C          -3.0721   -2.1149    0.4821 C.ar    1  LIG1       -0.0265
      3 C          -2.4328   -1.0048   -0.0490 C.ar    1  LIG1       -0.0153
      4 C          -3.1555    0.1595   -0.2875 C.ar    1  LIG1        0.1461
      5 C          -4.5308    0.1703    0.0217 C.ar    1  LIG1        0.1163
      6 N          -5.1254   -0.9144    0.5156 N.ar    1  LIG1       -0.2370
      7 H          -1.3753   -1.0574   -0.2748 H       1  LIG1        0.0656
      8 H          -2.5172   -3.0246    0.6784 H       1  LIG1        0.0645
      9 S          -5.4089   -3.3568    1.4081 S.3     1  LIG1       -0.1234
     10 H          -4.4373   -4.2839    1.3893 H       1  LIG1        0.1086
     11 O          -2.6196    1.2910   -0.8106 O.3     1  LIG1       -0.4930
     12 C          -1.2776    1.2546   -1.2525 C.3     1  LIG1        0.0789
     13 H          -1.0789    2.2316   -1.6913 H       1  LIG1        0.0660
     14 H          -0.5819    1.0851   -0.4224 H       1  LIG1        0.0660
     15 H          -1.1275    0.4807   -2.0135 H       1  LIG1        0.0660
     16 C          -6.6081    1.3906   -0.8368 C.ar    1  LIG1        0.1034
     17 C          -5.3651    1.3866   -0.1821 C.ar    1  LIG1        0.0390
     18 C          -4.8920    2.6062    0.3127 C.ar    1  LIG1       -0.0066
     19 C          -5.6265    3.7649    0.1228 C.ar    1  LIG1        0.1388
     20 C          -6.8256    3.6638   -0.5822 C.ar    1  LIG1        0.0705
     21 N          -7.2961    2.5160   -1.0363 N.ar    1  LIG1       -0.2447
     22 H          -3.9410    2.6263    0.8268 H       1  LIG1        0.0662
     23 H          -7.4122    4.5601   -0.7666 H       1  LIG1        0.0867
     24 S          -7.4125   -0.0263   -1.5555 S.3     1  LIG1       -0.1228
     25 H          -6.8125   -0.9466   -0.7827 H       1  LIG1        0.1086
     26 O          -5.2781    5.0032    0.5574 O.3     1  LIG1       -0.4936
     27 C          -4.0669    5.1328    1.2692 C.3     1  LIG1        0.0789
     28 H          -3.9749    6.1879    1.5251 H       1  LIG1        0.0660
     29 H          -4.0747    4.5389    2.1910 H       1  LIG1        0.0660
     30 H          -3.2061    4.8340    0.6589 H       1  LIG1        0.0660
@<TRIPOS>BOND
     1    15    12    1
     2    13    12    1
     3    24    16    1
     4    24    25    1
     5    12    11    1
     6    12    14    1
     7    21    16   ar
     8    21    20   ar
     9    16    17   ar
    10    11     4    1
    11    23    20    1
    12    20    19   ar
    13     4     3   ar
    14     4     5   ar
    15     7     3    1
    16    17     5    1
    17    17    18   ar
    18     3     2   ar
    19     5     6   ar
    20    19    18   ar
    21    19    26    1
    22    18    22    1
    23     2     8    1
    24     2     1   ar
    25     6     1   ar
    26    26    27    1
    27    30    27    1
    28     1     9    1
    29    27    28    1
    30    27    29    1
    31    10     9    1
