@<TRIPOS>MOLECULE
mol_data/opt/cam/geoms/mol2/6gl6gl-6gl6gl-.out
 58 61 0 0 0
SMALL
GASTEIGER

@<TRIPOS>ATOM
      1 C          -3.9756   -2.2063    0.7085 C.ar    1  LIG1        0.0949
      2 C          -2.6499   -2.1445    0.2951 C.ar    1  LIG1       -0.0265
      3 C          -2.1794   -0.9468   -0.2198 C.ar    1  LIG1       -0.0153
      4 C          -3.0268    0.1544   -0.2930 C.ar    1  LIG1        0.1461
      5 C          -4.3521    0.0103    0.1632 C.ar    1  LIG1        0.1163
      6 N          -4.7853   -1.1568    0.6380 N.ar    1  LIG1       -0.2370
      7 H          -1.1546   -0.8810   -0.5623 H       1  LIG1        0.0656
      8 H          -1.9955   -3.0054    0.3635 H       1  LIG1        0.0645
      9 S          -4.7423   -3.6653    1.3775 S.3     1  LIG1       -0.1234
     10 H          -3.7047   -4.4926    1.1719 H       1  LIG1        0.1086
     11 O          -2.6576    1.3632   -0.7871 O.3     1  LIG1       -0.4930
     12 C          -1.3819    1.4812   -1.3867 C.3     1  LIG1        0.0789
     13 H          -1.3248    2.4975   -1.7745 H       1  LIG1        0.0660
     14 H          -0.5767    1.3285   -0.6590 H       1  LIG1        0.0660
     15 H          -1.2621    0.7728   -2.2137 H       1  LIG1        0.0660
     16 C          -6.6391    1.0531   -0.3199 C.ar    1  LIG1        0.1042
     17 C          -5.3149    1.1445    0.1392 C.ar    1  LIG1        0.0391
     18 C          -4.9053    2.3892    0.6186 C.ar    1  LIG1       -0.0060
     19 C          -5.7537    3.4848    0.5970 C.ar    1  LIG1        0.1467
     20 C          -7.0434    3.3171    0.0587 C.ar    1  LIG1        0.1164
     21 N          -7.4345    2.1176   -0.3606 N.ar    1  LIG1       -0.2363
     22 H          -3.8997    2.4885    1.0014 H       1  LIG1        0.0662
     23 S          -7.4296   -0.4052   -0.9608 S.3     1  LIG1       -0.1227
     24 H          -6.6522   -1.2836   -0.3041 H       1  LIG1        0.1086
     25 O          -5.4124    4.7126    1.0707 O.3     1  LIG1       -0.4929
     26 C          -4.1847    4.8470    1.7579 C.3     1  LIG1        0.0789
     27 H          -4.1523    5.8748    2.1179 H       1  LIG1        0.0660
     28 H          -4.1276    4.1636    2.6124 H       1  LIG1        0.0660
     29 H          -3.3282    4.6702    1.0970 H       1  LIG1        0.0660
     30 C          -9.3800    4.3539    0.2362 C.ar    1  LIG1        0.1042
     31 C          -8.0081    4.4424   -0.0589 C.ar    1  LIG1        0.0391
     32 C          -7.5480    5.6806   -0.5121 C.ar    1  LIG1       -0.0060
     33 C          -8.3950    6.7717   -0.6159 C.ar    1  LIG1        0.1467
     34 C          -9.7396    6.6093   -0.2332 C.ar    1  LIG1        0.1164
     35 N         -10.1762    5.4170    0.1591 N.ar    1  LIG1       -0.2363
     36 H          -6.5045    5.7775   -0.7739 H       1  LIG1        0.0662
     37 S         -10.2478    2.9080    0.7972 S.3     1  LIG1       -0.1227
     38 H          -9.3685    2.0192    0.2987 H       1  LIG1        0.1086
     39 O          -8.0023    7.9920   -1.0710 O.3     1  LIG1       -0.4929
     40 C          -6.6972    8.1207   -1.5944 C.3     1  LIG1        0.0789
     41 H          -6.6204    9.1427   -1.9645 H       1  LIG1        0.0660
     42 H          -5.9329    7.9581   -0.8252 H       1  LIG1        0.0660
     43 H          -6.5266    7.4237   -2.4227 H       1  LIG1        0.0660
     44 C         -12.0218    7.6471   -0.7563 C.ar    1  LIG1        0.1034
     45 C         -10.7108    7.7366   -0.2531 C.ar    1  LIG1        0.0390
     46 C         -10.3045    8.9703    0.2677 C.ar    1  LIG1       -0.0066
     47 C         -11.1652   10.0544    0.2443 C.ar    1  LIG1        0.1388
     48 C         -12.4247    9.8694   -0.3237 C.ar    1  LIG1        0.0705
     49 N         -12.8334    8.7062   -0.7972 N.ar    1  LIG1       -0.2447
     50 H          -9.3052    9.0614    0.6694 H       1  LIG1        0.0662
     51 H         -13.1135   10.7088   -0.3784 H       1  LIG1        0.0867
     52 S         -12.7756    6.1992   -1.4634 S.3     1  LIG1       -0.1228
     53 H         -11.9765    5.3070   -0.8514 H       1  LIG1        0.1086
     54 O         -10.8871   11.2965    0.7215 O.3     1  LIG1       -0.4936
     55 C          -9.6146   11.5091    1.2906 C.3     1  LIG1        0.0789
     56 H          -9.5905   12.5525    1.6043 H       1  LIG1        0.0660
     57 H          -9.4502   10.8676    2.1649 H       1  LIG1        0.0660
     58 H          -8.8123   11.3328    0.5639 H       1  LIG1        0.0660
@<TRIPOS>BOND
     1    43    40    1
     2    15    12    1
     3    41    40    1
     4    13    12    1
     5    40    39    1
     6    40    42    1
     7    52    53    1
     8    52    44    1
     9    12    11    1
    10    12    14    1
    11    39    33    1
    12    23    16    1
    13    23    24    1
    14    49    44   ar
    15    49    48   ar
    16    11     4    1
    17    36    32    1
    18    44    45   ar
    19    33    32   ar
    20    33    34   ar
    21     7     3    1
    22    32    31   ar
    23    51    48    1
    24    21    16   ar
    25    21    20   ar
    26    48    47   ar
    27    16    17   ar
    28     4     3   ar
    29     4     5   ar
    30    45    34    1
    31    45    46   ar
    32    34    35   ar
    33     3     2   ar
    34    31    20    1
    35    31    30   ar
    36    20    19   ar
    37    17     5    1
    38    17    18   ar
    39    35    30   ar
    40     5     6   ar
    41    30    37    1
    42    47    46   ar
    43    47    54    1
    44    46    50    1
    45     2     8    1
    46     2     1   ar
    47    38    37    1
    48    58    55    1
    49    19    18   ar
    50    19    25    1
    51    18    22    1
    52     6     1   ar
    53     1     9    1
    54    54    55    1
    55    25    26    1
    56    29    26    1
    57    10     9    1
    58    55    56    1
    59    55    57    1
    60    26    27    1
    61    26    28    1
