@<TRIPOS>MOLECULE
mol_data/opt/cam/geoms/mol2/6ha13eh-6fd-13fe13li.out
 62 66 0 0 0
SMALL
GASTEIGER

@<TRIPOS>ATOM
      1 C          -4.9076   -1.8892    1.5785 C.ar    1  LIG1        0.1169
      2 C          -3.5289   -2.1650    1.5482 C.ar    1  LIG1       -0.0221
      3 C          -2.6938   -1.2352    0.9645 C.ar    1  LIG1       -0.0565
      4 C          -3.2161   -0.0607    0.4286 C.ar    1  LIG1       -0.0341
      5 C          -4.5911    0.1241    0.5043 C.ar    1  LIG1        0.0905
      6 N          -5.4211   -0.7750    1.0639 N.ar    1  LIG1       -0.2309
      7 H          -1.6248   -1.4190    0.9253 H       1  LIG1        0.0619
      8 H          -3.1434   -3.0811    1.9815 H       1  LIG1        0.0652
      9 N          -5.7912   -2.7517    2.1829 N.pl3   1  LIG1       -0.3431
     10 H          -6.7625   -2.5899    1.9664 H       1  LIG1        0.1437
     11 H          -5.5196   -3.7169    2.2747 H       1  LIG1        0.1437
     12 H          -2.5832    0.6852   -0.0320 H       1  LIG1        0.0639
     13 C          -5.2626    1.3144   -0.0152 C.ar    1  LIG1        0.0829
     14 C          -4.8222    2.4825   -0.6331 C.ar    1  LIG1        0.0726
     15 C          -5.9717    3.3009   -0.8604 C.ar    1  LIG1        0.0666
     16 C          -7.0753    2.6160   -0.3861 C.ar    1  LIG1        0.0743
     17 N          -6.6130    1.4001    0.0990 N.ar    1  LIG1       -0.3504
     18 H          -7.1103    0.7354    0.6770 H       1  LIG1        0.1660
     19 C          -3.5102    2.8531   -1.0236 C.1     1  LIG1       -0.0656
     20 C          -2.4241    3.2286   -1.3903 C.1     1  LIG1       -0.1138
     21 H          -1.4567    3.5512   -1.6992 H       1  LIG1        0.1232
     22 N          -5.9433    4.5680   -1.4306 N.pl3   1  LIG1       -0.3554
     23 H          -5.0802    4.7578   -1.9232 H       1  LIG1        0.1424
     24 H          -6.7517    4.7934   -1.9949 H       1  LIG1        0.1424
     25 C          -9.5143    2.0553   -0.6457 C.ar    1  LIG1        0.2224
     26 C          -8.4856    2.9891   -0.3725 C.ar    1  LIG1        0.0627
     27 C          -8.9074    4.2890   -0.1433 C.ar    1  LIG1       -0.0279
     28 C         -10.2661    4.6252   -0.1321 C.ar    1  LIG1        0.0801
     29 C         -11.2079    3.5898   -0.2993 C.ar    1  LIG1        0.1119
     30 N         -10.7939    2.3388   -0.5844 N.ar    1  LIG1       -0.2096
     31 H          -8.1696    5.0661    0.0260 H       1  LIG1        0.0639
     32 O          -9.2327    0.7796   -0.9828 O.3     1  LIG1       -0.4919
     33 H          -8.2843    0.7002   -1.1624 H       1  LIG1        0.2937
     34 N         -10.7527    7.1612   -0.0215 N.1     1  LIG1       -0.1908
     35 C         -10.5918    6.0156   -0.0425 C.1     1  LIG1        0.1014
     36 C         -12.6469    3.7165   -0.2290 C.ar    1  LIG1        0.1100
     37 C         -13.5467    4.6062    0.3335 C.ar    1  LIG1        0.1596
     38 C         -14.8625    4.0981    0.1419 C.ar    1  LIG1        0.0935
     39 C         -14.7346    2.8731   -0.5181 C.ar    1  LIG1        0.0862
     40 N         -13.4125    2.6719   -0.7334 N.ar    1  LIG1       -0.3478
     41 H         -12.9645    1.8101   -1.0110 H       1  LIG1        0.1661
     42 O         -13.2454    5.7411    0.9816 O.3     1  LIG1       -0.5034
     43 H         -14.0737    6.1830    1.2199 H       1  LIG1        0.2923
     44 C         -16.0207    4.8071    0.5442 C.1     1  LIG1       -0.0638
     45 C         -16.9415    5.4855    0.9272 C.1     1  LIG1       -0.1137
     46 H         -17.7827    6.0586    1.2418 H       1  LIG1        0.1232
     47 C         -15.7252    1.9339   -0.9908 C.ar    1  LIG1        0.1067
     48 C         -16.9707    1.5585   -0.5175 C.ar    1  LIG1        0.1496
     49 C         -17.5129    0.5736   -1.3878 C.ar    1  LIG1        0.0092
     50 C         -16.5778    0.3755   -2.3728 C.ar    1  LIG1        0.0087
     51 N         -15.4925    1.1676   -2.1179 N.ar    1  LIG1       -0.3563
     52 H         -14.7524    1.3545   -2.7742 H       1  LIG1        0.1655
     53 H         -16.6044   -0.2741   -3.2349 H       1  LIG1        0.0811
     54 O         -17.6272    2.0152    0.5854 O.3     1  LIG1       -0.4927
     55 C         -17.0066    1.7268    1.8294 C.3     1  LIG1        0.0789
     56 H         -17.6890    2.0772    2.6046 H       1  LIG1        0.0660
     57 H         -16.8438    0.6491    1.9466 H       1  LIG1        0.0660
     58 H         -16.0512    2.2490    1.9355 H       1  LIG1        0.0660
     59 C         -18.8388   -0.0964   -1.2247 C.3     1  LIG1       -0.0348
     60 H         -19.0252   -0.8009   -2.0385 H       1  LIG1        0.0279
     61 H         -19.6525    0.6339   -1.2155 H       1  LIG1        0.0279
     62 H         -18.8966   -0.6496   -0.2823 H       1  LIG1        0.0279
@<TRIPOS>BOND
     1    53    50    1
     2    52    51    1
     3    50    51   ar
     4    50    49   ar
     5    51    47   ar
     6    60    59    1
     7    24    22    1
     8    23    22    1
     9    21    20    1
    10    22    15    1
    11    20    19    3
    12    49    59    1
    13    49    48   ar
    14    59    61    1
    15    59    62    1
    16    33    32    1
    17    19    14    1
    18    41    40    1
    19    47    39    1
    20    47    48   ar
    21    32    25    1
    22    15    14   ar
    23    15    16   ar
    24    40    39   ar
    25    40    36   ar
    26    25    30   ar
    27    25    26   ar
    28    14    13   ar
    29    30    29   ar
    30    39    38   ar
    31    48    54    1
    32    16    26    1
    33    16    17   ar
    34    26    27   ar
    35    29    36    1
    36    29    28   ar
    37    36    37   ar
    38    27    28   ar
    39    27    31    1
    40    28    35    1
    41    35    34    3
    42    12     4    1
    43    13    17   ar
    44    13     5    1
    45    17    18    1
    46    38    37   ar
    47    38    44    1
    48    37    42    1
    49     4     5   ar
    50     4     3   ar
    51     5     6   ar
    52    44    45    3
    53    54    55    1
    54     7     3    1
    55    45    46    1
    56     3     2   ar
    57    42    43    1
    58     6     1   ar
    59     2     1   ar
    60     2     8    1
    61     1     9    1
    62    55    58    1
    63    55    57    1
    64    55    56    1
    65    10     9    1
    66     9    11    1
