@<TRIPOS>MOLECULE
mol_data/opt/cam/geoms/mol2/6ha12fl13eh13fd-6ee-12fd-6lf6ef-.out
 95 102 0 0 0
SMALL
GASTEIGER

@<TRIPOS>ATOM
      1 C          -5.2178   -2.0455   -2.0390 C.ar    1  LIG1        0.1169
      2 C          -3.8635   -2.0889   -2.4060 C.ar    1  LIG1       -0.0221
      3 C          -3.0996   -0.9565   -2.2079 C.ar    1  LIG1       -0.0564
      4 C          -3.6744    0.1837   -1.6618 C.ar    1  LIG1       -0.0324
      5 C          -5.0279    0.1351   -1.3258 C.ar    1  LIG1        0.1119
      6 N          -5.7869   -0.9608   -1.5070 N.ar    1  LIG1       -0.2292
      7 H          -2.0495   -0.9562   -2.4822 H       1  LIG1        0.0619
      8 H          -3.4398   -2.9939   -2.8269 H       1  LIG1        0.0652
      9 N          -6.0112   -3.1646   -2.1809 N.pl3   1  LIG1       -0.3431
     10 H          -7.0085   -3.0138   -2.1555 H       1  LIG1        0.1437
     11 H          -5.7101   -3.8519   -2.8532 H       1  LIG1        0.1437
     12 H          -3.1033    1.0879   -1.5001 H       1  LIG1        0.0640
     13 C          -5.6620    1.3128   -0.7578 C.ar    1  LIG1        0.1989
     14 C          -5.1829    2.5304   -0.3620 C.ar    1  LIG1        0.2076
     15 C          -6.2802    3.2857    0.1369 C.ar    1  LIG1        0.2099
     16 C          -7.3924    2.4988    0.0078 C.ar    1  LIG1        0.1983
     17 O          -7.0146    1.3004   -0.5240 O.2     1  LIG1       -0.4442
     18 O          -3.9139    2.9881   -0.4063 O.3     1  LIG1       -0.5008
     19 H          -3.9484    3.9207   -0.1449 H       1  LIG1        0.2924
     20 O          -6.1144    4.5482    0.6153 O.3     1  LIG1       -0.4884
     21 C          -6.1023    4.6362    2.0433 C.3     1  LIG1        0.0791
     22 H          -5.8945    5.6788    2.2845 H       1  LIG1        0.0660
     23 H          -7.0736    4.3604    2.4582 H       1  LIG1        0.0660
     24 H          -5.3210    3.9946    2.4650 H       1  LIG1        0.0660
     25 C          -8.7993    2.6049    0.2909 C.ar    1  LIG1        0.1038
     26 C          -9.6461    3.6268    0.7263 C.ar    1  LIG1        0.0743
     27 C         -10.9677    3.0791    0.8081 C.ar    1  LIG1        0.0681
     28 C         -10.8897    1.7573    0.4080 C.ar    1  LIG1        0.0892
     29 N          -9.5630    1.4947    0.1147 N.ar    1  LIG1       -0.3480
     30 H          -9.2182    0.6834   -0.3753 H       1  LIG1        0.1661
     31 C          -9.3479    4.9802    1.0215 C.1     1  LIG1       -0.0656
     32 C          -9.1839    6.1470    1.2798 C.1     1  LIG1       -0.1138
     33 H          -9.0153    7.1780    1.4881 H       1  LIG1        0.1232
     34 N         -12.0767    3.7513    1.2841 N.pl3   1  LIG1       -0.3553
     35 H         -11.9878    4.7569    1.2455 H       1  LIG1        0.1424
     36 H         -12.9626    3.4107    0.9328 H       1  LIG1        0.1424
     37 C         -11.8521    0.6920    0.3097 C.ar    1  LIG1        0.1085
     38 C         -13.2172    0.6358    0.1231 C.ar    1  LIG1        0.1616
     39 C         -13.5868   -0.7305   -0.0240 C.ar    1  LIG1        0.1190
     40 C         -12.4163   -1.4970    0.0671 C.ar    1  LIG1        0.0709
     41 N         -11.4150   -0.6104    0.2857 N.ar    1  LIG1       -0.3489
     42 H         -10.4606   -0.8942    0.4498 H       1  LIG1        0.1661
     43 O         -14.0285    1.7226    0.0480 O.3     1  LIG1       -0.5034
     44 H         -14.9442    1.4368   -0.0678 H       1  LIG1        0.2923
     45 N         -16.0295   -1.4012   -0.4754 N.1     1  LIG1       -0.1907
     46 C         -14.9162   -1.1430   -0.2789 C.1     1  LIG1        0.1050
     47 C         -10.8879   -3.4765   -0.3387 C.ar    1  LIG1        0.1231
     48 C         -12.1677   -2.9261   -0.0743 C.ar    1  LIG1        0.0347
     49 C         -13.2114   -3.8431    0.0539 C.ar    1  LIG1       -0.0323
     50 C         -13.0018   -5.2104   -0.0975 C.ar    1  LIG1        0.0545
     51 C         -11.6967   -5.6402   -0.4250 C.ar    1  LIG1        0.1264
     52 N         -10.6857   -4.7800   -0.5164 N.ar    1  LIG1       -0.2333
     53 H         -14.2085   -3.5006    0.3024 H       1  LIG1        0.0638
     54 C          -9.6888   -2.6833   -0.4602 C.1     1  LIG1       -0.0491
     55 C          -8.6741   -2.0331   -0.5454 C.1     1  LIG1       -0.1124
     56 H          -7.7527   -1.4796   -0.6752 H       1  LIG1        0.1232
     57 C         -14.0777   -6.1131    0.1560 C.1     1  LIG1       -0.0674
     58 C         -15.0039   -6.8377    0.4091 C.1     1  LIG1       -0.1138
     59 H         -15.8200   -7.4897    0.6208 H       1  LIG1        0.1232
     60 C         -11.3442   -7.0354   -0.6629 C.ar    1  LIG1        0.1975
     61 C         -11.9309   -8.0930   -1.2995 C.ar    1  LIG1        0.1826
     62 C         -10.9768   -9.1616   -1.2825 C.ar    1  LIG1        0.1396
     63 C          -9.8569   -8.6741   -0.6414 C.ar    1  LIG1        0.1620
     64 O         -10.0789   -7.4090   -0.2810 O.2     1  LIG1       -0.4479
     65 O         -13.1373   -8.1107   -1.8875 O.3     1  LIG1       -0.5023
     66 H         -13.2861   -8.9746   -2.2951 H       1  LIG1        0.2923
     67 N         -11.4713  -11.4333   -2.3841 N.1     1  LIG1       -0.1906
     68 C         -11.2030  -10.4258   -1.8782 C.1     1  LIG1        0.1067
     69 C          -7.3714   -8.5780   -0.2033 C.ar    1  LIG1        0.2262
     70 C          -8.5873   -9.3024   -0.3016 C.ar    1  LIG1        0.0836
     71 C          -8.5214  -10.6699   -0.0806 C.ar    1  LIG1       -0.0022
     72 C          -7.3084  -11.2752    0.2364 C.ar    1  LIG1        0.1437
     73 C          -6.1767  -10.4691    0.3376 C.ar    1  LIG1        0.1188
     74 N          -6.2313   -9.1505    0.1112 N.ar    1  LIG1       -0.2085
     75 H          -9.4056  -11.2934   -0.1441 H       1  LIG1        0.0663
     76 O          -7.4000   -7.2643   -0.4611 O.3     1  LIG1       -0.4792
     77 C          -6.1665   -6.5571   -0.3665 C.3     1  LIG1        0.0804
     78 H          -6.3922   -5.5303   -0.6526 H       1  LIG1        0.0660
     79 H          -5.7785   -6.5890    0.6544 H       1  LIG1        0.0660
     80 H          -5.4166   -6.9921   -1.0317 H       1  LIG1        0.0660
     81 O          -7.3114  -12.6195    0.4407 O.3     1  LIG1       -0.5046
     82 H          -6.4020  -12.9372    0.5115 H       1  LIG1        0.2922
     83 C          -3.7055  -10.8483   -0.0852 C.ar    1  LIG1        0.1226
     84 C          -4.8547  -11.0366    0.7113 C.ar    1  LIG1        0.0413
     85 C          -4.7215  -11.7678    1.8875 C.ar    1  LIG1       -0.0067
     86 C          -3.4747  -12.2658    2.2464 C.ar    1  LIG1        0.1356
     87 C          -2.3970  -12.0106    1.4009 C.ar    1  LIG1        0.0704
     88 N          -2.5095  -11.3290    0.2711 N.ar    1  LIG1       -0.2424
     89 H          -5.5681  -11.9300    2.5465 H       1  LIG1        0.0662
     90 H          -1.4026  -12.3790    1.6536 H       1  LIG1        0.0867
     91 C          -3.7632  -10.1649   -1.3474 C.1     1  LIG1       -0.0491
     92 C          -3.7894   -9.6268   -2.4227 C.1     1  LIG1       -0.1124
     93 H          -3.8104   -9.1544   -3.3777 H       1  LIG1        0.1232
     94 O          -3.3663  -12.9668    3.3983 O.3     1  LIG1       -0.5052
     95 H          -2.4490  -13.2351    3.5338 H       1  LIG1        0.2922
@<TRIPOS>BOND
     1    93    92    1
     2    11     9    1
     3     8     2    1
     4     7     3    1
     5    92    91    3
     6     2     3   ar
     7     2     1   ar
     8    67    68    3
     9    66    65    1
    10     3     4   ar
    11     9    10    1
    12     9     1    1
    13     1     6   ar
    14    65    61    1
    15    68    62    1
    16     4    12    1
    17     4     5   ar
    18     6     5   ar
    19    91    83    1
    20     5    13    1
    21    61    62   ar
    22    61    60   ar
    23    62    63   ar
    24    80    77    1
    25    13    17   ar
    26    13    14   ar
    27    56    55    1
    28    60    51    1
    29    60    64   ar
    30    78    77    1
    31    63    70    1
    32    63    64   ar
    33    55    54    3
    34    17    16   ar
    35    52    51   ar
    36    52    47   ar
    37    45    46    3
    38    76    77    1
    39    76    69    1
    40    54    47    1
    41    51    50   ar
    42    18    14    1
    43    18    19    1
    44    30    29    1
    45    77    79    1
    46    14    15   ar
    47    47    48   ar
    48    70    69   ar
    49    70    71   ar
    50    46    39    1
    51    69    74   ar
    52    75    71    1
    53    50    49   ar
    54    50    57    1
    55    83    88   ar
    56    83    84   ar
    57    71    72   ar
    58    48    49   ar
    59    48    40    1
    60    44    43    1
    61    39    40   ar
    62    39    38   ar
    63    16    15   ar
    64    16    25    1
    65    43    38    1
    66    49    53    1
    67    40    41   ar
    68    74    73   ar
    69    29    25   ar
    70    29    28   ar
    71    38    37   ar
    72    15    20    1
    73    57    58    3
    74    72    73   ar
    75    72    81    1
    76    88    87   ar
    77    41    37   ar
    78    41    42    1
    79    25    26   ar
    80    37    28    1
    81    73    84    1
    82    28    27   ar
    83    58    59    1
    84    81    82    1
    85    20    21    1
    86    84    85   ar
    87    26    27   ar
    88    26    31    1
    89    27    34    1
    90    36    34    1
    91    31    32    3
    92    35    34    1
    93    32    33    1
    94    87    90    1
    95    87    86   ar
    96    85    86   ar
    97    85    89    1
    98    21    22    1
    99    21    23    1
   100    21    24    1
   101    86    94    1
   102    94    95    1
