@<TRIPOS>MOLECULE
mol_data/opt/cam/geoms/mol2/6ha12if-12id-13ei-.out
 48 51 0 0 0
SMALL
GASTEIGER

@<TRIPOS>ATOM
      1 C          -3.8409   -1.7419    1.1122 C.ar    1  LIG1        0.1169
      2 C          -2.5661   -1.7908    0.5199 C.ar    1  LIG1       -0.0221
      3 C          -2.2209   -0.7805   -0.3524 C.ar    1  LIG1       -0.0564
      4 C          -3.1185    0.2515   -0.6130 C.ar    1  LIG1       -0.0325
      5 C          -4.3509    0.2219    0.0369 C.ar    1  LIG1        0.1085
      6 N          -4.7082   -0.7617    0.8735 N.ar    1  LIG1       -0.2293
      7 H          -1.2514   -0.7928   -0.8403 H       1  LIG1        0.0619
      8 H          -1.8825   -2.6006    0.7501 H       1  LIG1        0.0652
      9 N          -4.2411   -2.6989    2.0155 N.pl3   1  LIG1       -0.3431
     10 H          -5.2273   -2.6884    2.2257 H       1  LIG1        0.1437
     11 H          -3.8112   -3.6079    1.9644 H       1  LIG1        0.1437
     12 H          -2.8762    1.0341   -1.3179 H       1  LIG1        0.0640
     13 C          -5.3397    1.2828   -0.1721 C.ar    1  LIG1        0.1605
     14 C          -5.2399    2.5767   -0.6155 C.ar    1  LIG1        0.0391
     15 C          -6.5718    3.0807   -0.5829 C.ar    1  LIG1        0.1694
     16 C          -7.3815    2.0878   -0.1105 C.ar    1  LIG1        0.2123
     17 O          -6.6254    0.9802    0.1377 O.2     1  LIG1       -0.4461
     18 C          -4.0470    3.3730   -1.0378 C.3     1  LIG1       -0.0325
     19 H          -4.2699    4.4388   -0.9601 H       1  LIG1        0.0280
     20 H          -3.7696    3.1750   -2.0786 H       1  LIG1        0.0280
     21 H          -3.1776    3.1568   -0.4130 H       1  LIG1        0.0280
     22 O          -6.8923    4.3388   -0.9710 O.3     1  LIG1       -0.5029
     23 H          -7.8532    4.4194   -1.0225 H       1  LIG1        0.2923
     24 C          -8.7995    2.0405    0.1355 C.ar    1  LIG1        0.1785
     25 C          -9.6754    2.9367    0.6660 C.ar    1  LIG1        0.0166
     26 C         -10.9701    2.3061    0.5954 C.ar    1  LIG1        0.1025
     27 C         -10.7848    1.0661    0.0322 C.ar    1  LIG1        0.1706
     28 O          -9.4697    0.9074   -0.2538 O.2     1  LIG1       -0.4485
     29 C          -9.3876    4.2703    1.2745 C.3     1  LIG1       -0.0348
     30 H          -9.8271    4.3373    2.2732 H       1  LIG1        0.0279
     31 H          -9.8220    5.0856    0.6866 H       1  LIG1        0.0279
     32 H          -8.3132    4.4401    1.3616 H       1  LIG1        0.0279
     33 N         -13.0447    3.4161    1.6407 N.1     1  LIG1       -0.1907
     34 C         -12.1456    2.8810    1.1456 C.1     1  LIG1        0.1033
     35 C         -11.6025   -0.0763   -0.2813 C.ar    1  LIG1        0.0992
     36 C         -12.9642   -0.2518   -0.5112 C.ar    1  LIG1        0.0558
     37 C         -13.1721   -1.6349   -0.8053 C.ar    1  LIG1       -0.0171
     38 C         -11.9412   -2.2387   -0.7544 C.ar    1  LIG1        0.0064
     39 N         -11.0034   -1.2975   -0.4429 N.ar    1  LIG1       -0.3570
     40 H         -10.0113   -1.4454   -0.3490 H       1  LIG1        0.1655
     41 H         -11.6672   -3.2702   -0.9171 H       1  LIG1        0.0810
     42 C         -13.9747    0.7436   -0.5249 C.1     1  LIG1       -0.0672
     43 C         -14.8525    1.5670   -0.5612 C.1     1  LIG1       -0.1138
     44 H         -15.6070    2.3193   -0.5584 H       1  LIG1        0.1232
     45 C         -14.4870   -2.2713   -1.1179 C.3     1  LIG1       -0.0371
     46 H         -14.3663   -3.3339   -1.3399 H       1  LIG1        0.0278
     47 H         -14.9611   -1.7959   -1.9815 H       1  LIG1        0.0278
     48 H         -15.1833   -2.1776   -0.2794 H       1  LIG1        0.0278
@<TRIPOS>BOND
     1    20    18    1
     2    47    45    1
     3    46    45    1
     4    12     4    1
     5    45    37    1
     6    45    48    1
     7    18    19    1
     8    18    14    1
     9    18    21    1
    10    23    22    1
    11    22    15    1
    12    41    38    1
    13     7     3    1
    14    37    38   ar
    15    37    36   ar
    16    38    39   ar
    17    14    15   ar
    18    14    13   ar
    19     4     3   ar
    20     4     5   ar
    21    15    16   ar
    22    43    44    1
    23    43    42    3
    24    42    36    1
    25    36    35   ar
    26    39    40    1
    27    39    35   ar
    28     3     2   ar
    29    35    27    1
    30    28    27   ar
    31    28    24   ar
    32    13     5    1
    33    13    17   ar
    34    16    24    1
    35    16    17   ar
    36    27    26   ar
    37     5     6   ar
    38    24    25   ar
    39     2     8    1
    40     2     1   ar
    41    26    25   ar
    42    26    34    1
    43    25    29    1
    44    31    29    1
    45     6     1   ar
    46     1     9    1
    47    34    33    3
    48    29    32    1
    49    29    30    1
    50    11     9    1
    51     9    10    1
