@<TRIPOS>MOLECULE
mol_data/opt/cam/geoms/mol2/6ha6ha6ha6ha-.out
 46 49 0 0 0
SMALL
GASTEIGER

@<TRIPOS>ATOM
      1 C          -4.0382   -2.1349   -0.6586 C.ar    1  LIG1        0.1168
      2 C          -2.8930   -2.2323    0.1443 C.ar    1  LIG1       -0.0221
      3 C          -2.6038   -1.1725    0.9798 C.ar    1  LIG1       -0.0565
      4 C          -3.4262   -0.0523    0.9978 C.ar    1  LIG1       -0.0355
      5 C          -4.5348   -0.0218    0.1508 C.ar    1  LIG1        0.0764
      6 N          -4.8285   -1.0609   -0.6517 N.ar    1  LIG1       -0.2323
      7 H          -1.7368   -1.2184    1.6312 H       1  LIG1        0.0619
      8 H          -2.2737   -3.1218    0.1168 H       1  LIG1        0.0652
      9 N          -4.4269   -3.1727   -1.4758 N.pl3   1  LIG1       -0.3431
     10 H          -5.0788   -2.9187   -2.2020 H       1  LIG1        0.1437
     11 H          -3.7190   -3.8345   -1.7511 H       1  LIG1        0.1437
     12 H          -3.2245    0.7657    1.6761 H       1  LIG1        0.0639
     13 C          -6.7981    1.1001   -0.2544 C.ar    1  LIG1        0.1261
     14 C          -5.4228    1.1630    0.1012 C.ar    1  LIG1        0.0399
     15 C          -4.9407    2.4254    0.4281 C.ar    1  LIG1       -0.0473
     16 C          -5.7556    3.5440    0.4205 C.ar    1  LIG1       -0.0348
     17 C          -7.0973    3.3877    0.0662 C.ar    1  LIG1        0.0764
     18 N          -7.5870    2.1817   -0.2531 N.ar    1  LIG1       -0.2317
     19 H          -3.8928    2.5411    0.6836 H       1  LIG1        0.0626
     20 N          -7.4024   -0.0746   -0.5806 N.pl3   1  LIG1       -0.3426
     21 H          -8.3144    0.0099   -0.9992 H       1  LIG1        0.1437
     22 H          -6.7848   -0.8221   -0.8720 H       1  LIG1        0.1437
     23 H          -5.3603    4.5093    0.7063 H       1  LIG1        0.0639
     24 C          -9.4281    4.4414    0.1915 C.ar    1  LIG1        0.1261
     25 C          -8.0164    4.5476    0.0177 C.ar    1  LIG1        0.0399
     26 C          -7.5291    5.8310   -0.1927 C.ar    1  LIG1       -0.0473
     27 C          -8.3664    6.9369   -0.2222 C.ar    1  LIG1       -0.0348
     28 C          -9.7333    6.7286   -0.0323 C.ar    1  LIG1        0.0764
     29 N         -10.2353    5.5069    0.1696 N.ar    1  LIG1       -0.2317
     30 H          -6.4659    5.9744   -0.3532 H       1  LIG1        0.0626
     31 N         -10.0333    3.2482    0.4256 N.pl3   1  LIG1       -0.3426
     32 H         -11.0394    3.2617    0.3865 H       1  LIG1        0.1437
     33 H          -9.5147    2.4203    0.1615 H       1  LIG1        0.1437
     34 H          -7.9674    7.9334   -0.3558 H       1  LIG1        0.0639
     35 C         -10.6202    9.0203   -0.7672 C.ar    1  LIG1        0.1254
     36 C         -10.7172    7.8403    0.0078 C.ar    1  LIG1        0.0399
     37 C         -11.8245    7.7288    0.8415 C.ar    1  LIG1       -0.0478
     38 C         -12.7497    8.7588    0.9348 C.ar    1  LIG1       -0.0428
     39 C         -12.5339    9.8838    0.1551 C.ar    1  LIG1        0.0297
     40 N         -11.5110   10.0123   -0.6854 N.ar    1  LIG1       -0.2401
     41 H         -11.9353    6.8160    1.4156 H       1  LIG1        0.0626
     42 H         -13.2221   10.7257    0.1938 H       1  LIG1        0.0830
     43 N          -9.5911    9.2410   -1.6634 N.pl3   1  LIG1       -0.3426
     44 H          -9.1820    8.4257   -2.0945 H       1  LIG1        0.1437
     45 H          -9.7969   10.0000   -2.2974 H       1  LIG1        0.1437
     46 H         -13.6090    8.6921    1.5914 H       1  LIG1        0.0633
@<TRIPOS>BOND
     1    45    43    1
     2    10     9    1
     3    44    43    1
     4    11     9    1
     5    43    35    1
     6     9     1    1
     7    21    20    1
     8    22    20    1
     9    35    40   ar
    10    35    36   ar
    11    40    39   ar
    12     1     6   ar
    13     1     2   ar
    14     6     5   ar
    15    20    13    1
    16    34    27    1
    17    30    26    1
    18    13    18   ar
    19    13    14   ar
    20    18    17   ar
    21    27    26   ar
    22    27    28   ar
    23    26    25   ar
    24    28    36    1
    25    28    29   ar
    26    36    37   ar
    27    25    17    1
    28    25    24   ar
    29    17    16   ar
    30    14     5    1
    31    14    15   ar
    32     8     2    1
    33     2     3   ar
    34     5     4   ar
    35    39    42    1
    36    39    38   ar
    37    33    31    1
    38    29    24   ar
    39    24    31    1
    40    32    31    1
    41    16    15   ar
    42    16    23    1
    43    15    19    1
    44    37    38   ar
    45    37    41    1
    46    38    46    1
    47     3     4   ar
    48     3     7    1
    49     4    12    1
