@<TRIPOS>MOLECULE
mol_data/opt/cam/geoms/mol2/6ha6ha-6ha-6ha.out
 46 49 0 0 0
SMALL
GASTEIGER

@<TRIPOS>ATOM
      1 C          -4.4843   -2.2541    0.0204 C.ar    1  LIG1        0.1168
      2 C          -3.0863   -2.3575    0.1297 C.ar    1  LIG1       -0.0221
      3 C          -2.3605   -1.1883    0.1991 C.ar    1  LIG1       -0.0565
      4 C          -3.0111    0.0433    0.1466 C.ar    1  LIG1       -0.0355
      5 C          -4.3998    0.0505    0.0176 C.ar    1  LIG1        0.0764
      6 N          -5.1153   -1.0837   -0.0406 N.ar    1  LIG1       -0.2323
      7 H          -1.2808   -1.2262    0.3058 H       1  LIG1        0.0619
      8 H          -2.6066   -3.3290    0.1745 H       1  LIG1        0.0652
      9 N          -5.2810   -3.3749    0.0057 N.pl3   1  LIG1       -0.3431
     10 H          -6.2293   -3.2113   -0.2957 H       1  LIG1        0.1437
     11 H          -4.8694   -4.2433   -0.2950 H       1  LIG1        0.1437
     12 H          -2.4594    0.9688    0.2458 H       1  LIG1        0.0639
     13 C          -4.7665    2.5132   -0.5951 C.ar    1  LIG1        0.1261
     14 C          -5.1959    1.3023   -0.0109 C.ar    1  LIG1        0.0399
     15 C          -6.4637    1.3152    0.5608 C.ar    1  LIG1       -0.0473
     16 C          -7.2311    2.4655    0.5857 C.ar    1  LIG1       -0.0348
     17 C          -6.7189    3.6257    0.0002 C.ar    1  LIG1        0.0764
     18 N          -5.5072    3.6234   -0.5761 N.ar    1  LIG1       -0.2317
     19 H          -6.8294    0.3950    1.0017 H       1  LIG1        0.0626
     20 N          -3.5442    2.6426   -1.2266 N.pl3   1  LIG1       -0.3426
     21 H          -3.1516    1.8006   -1.6205 H       1  LIG1        0.1437
     22 H          -3.5017    3.4478   -1.8344 H       1  LIG1        0.1437
     23 H          -8.1938    2.4688    1.0790 H       1  LIG1        0.0639
     24 C          -6.9007    6.1788   -0.0882 C.ar    1  LIG1        0.1261
     25 C          -7.4966    4.8853   -0.0173 C.ar    1  LIG1        0.0399
     26 C          -8.8836    4.8628    0.0527 C.ar    1  LIG1       -0.0473
     27 C          -9.6355    6.0287    0.0626 C.ar    1  LIG1       -0.0348
     28 C          -8.9567    7.2466   -0.0002 C.ar    1  LIG1        0.0764
     29 N          -7.6235    7.3030   -0.0727 N.ar    1  LIG1       -0.2317
     30 H          -9.3971    3.9080    0.0878 H       1  LIG1        0.0626
     31 N          -5.5531    6.3464   -0.1396 N.pl3   1  LIG1       -0.3426
     32 H          -5.0092    5.5504   -0.4450 H       1  LIG1        0.1437
     33 H          -5.2449    7.2849   -0.3351 H       1  LIG1        0.1437
     34 H         -10.7130    5.9946    0.1505 H       1  LIG1        0.0639
     35 C         -10.9300    8.8096   -0.4933 C.ar    1  LIG1        0.1254
     36 C          -9.6512    8.5579    0.0578 C.ar    1  LIG1        0.0399
     37 C          -9.0149    9.6289    0.6757 C.ar    1  LIG1       -0.0478
     38 C          -9.6424   10.8618    0.7838 C.ar    1  LIG1       -0.0428
     39 C         -10.9107   10.9828    0.2388 C.ar    1  LIG1        0.0297
     40 N         -11.5364    9.9959   -0.3965 N.ar    1  LIG1       -0.2401
     41 H          -8.0192    9.4654    1.0719 H       1  LIG1        0.0626
     42 H         -11.4541   11.9234    0.3018 H       1  LIG1        0.0830
     43 N         -11.6547    7.8446   -1.1674 N.pl3   1  LIG1       -0.3426
     44 H         -12.4184    8.2436   -1.6945 H       1  LIG1        0.1437
     45 H         -11.1258    7.1368   -1.6545 H       1  LIG1        0.1437
     46 H          -9.1647   11.7006    1.2758 H       1  LIG1        0.0633
@<TRIPOS>BOND
     1    22    20    1
     2    44    43    1
     3    45    43    1
     4    21    20    1
     5    20    13    1
     6    43    35    1
     7    13    18   ar
     8    13    14   ar
     9    18    17   ar
    10    35    40   ar
    11    35    36   ar
    12    32    31    1
    13    40    39   ar
    14    33    31    1
    15    10     9    1
    16    11     9    1
    17    31    24    1
    18    24    29   ar
    19    24    25   ar
    20    29    28   ar
    21     6     5   ar
    22     6     1   ar
    23    25    17    1
    24    25    26   ar
    25    14     5    1
    26    14    15   ar
    27    28    36    1
    28    28    27   ar
    29    17    16   ar
    30     9     1    1
    31     5     4   ar
    32     1     2   ar
    33    26    27   ar
    34    26    30    1
    35    36    37   ar
    36    27    34    1
    37     2     8    1
    38     2     3   ar
    39     4     3   ar
    40     4    12    1
    41     3     7    1
    42    39    42    1
    43    39    38   ar
    44    15    16   ar
    45    15    19    1
    46    16    23    1
    47    37    38   ar
    48    37    41    1
    49    38    46    1
