@<TRIPOS>MOLECULE
mol_data/opt/cam/geoms/mol2/6ha6ha6ha.out
 35 37 0 0 0
SMALL
GASTEIGER

@<TRIPOS>ATOM
      1 C          -4.2249   -2.1269   -0.4906 C.ar    1  LIG1        0.1168
      2 C          -2.9433   -2.1245    0.0775 C.ar    1  LIG1       -0.0221
      3 C          -2.5033   -0.9538    0.6614 C.ar    1  LIG1       -0.0565
      4 C          -3.3146    0.1743    0.6626 C.ar    1  LIG1       -0.0355
      5 C          -4.5689    0.0983    0.0549 C.ar    1  LIG1        0.0764
      6 N          -5.0065   -1.0466   -0.4997 N.ar    1  LIG1       -0.2323
      7 H          -1.5245   -0.9176    1.1293 H       1  LIG1        0.0619
      8 H          -2.3348   -3.0218    0.0705 H       1  LIG1        0.0652
      9 N          -4.7592   -3.2706   -1.0411 N.pl3   1  LIG1       -0.3431
     10 H          -5.5432   -3.1173   -1.6565 H       1  LIG1        0.1437
     11 H          -4.1141   -3.9830   -1.3430 H       1  LIG1        0.1437
     12 H          -2.9895    1.0836    1.1498 H       1  LIG1        0.0639
     13 C          -6.8754    1.1975   -0.0787 C.ar    1  LIG1        0.1261
     14 C          -5.4579    1.2815   -0.0069 C.ar    1  LIG1        0.0399
     15 C          -4.9303    2.5678    0.0221 C.ar    1  LIG1       -0.0473
     16 C          -5.7388    3.6905   -0.0032 C.ar    1  LIG1       -0.0348
     17 C          -7.1226    3.5133   -0.0676 C.ar    1  LIG1        0.0764
     18 N          -7.6565    2.2847   -0.0959 N.ar    1  LIG1       -0.2317
     19 H          -3.8536    2.6968    0.0517 H       1  LIG1        0.0626
     20 N          -7.5243    0.0014   -0.0958 N.pl3   1  LIG1       -0.3426
     21 H          -8.5001    0.0429   -0.3411 H       1  LIG1        0.1437
     22 H          -6.9700   -0.7971   -0.3788 H       1  LIG1        0.1437
     23 H          -5.3034    4.6791    0.0495 H       1  LIG1        0.0639
     24 C          -9.3873    4.6305    0.3438 C.ar    1  LIG1        0.1254
     25 C          -8.0405    4.6751   -0.1217 C.ar    1  LIG1        0.0399
     26 C          -7.6052    5.8904   -0.6400 C.ar    1  LIG1       -0.0478
     27 C          -8.4376    7.0004   -0.6713 C.ar    1  LIG1       -0.0428
     28 C          -9.7201    6.8455   -0.1680 C.ar    1  LIG1        0.0297
     29 N         -10.1910    5.7040    0.3193 N.ar    1  LIG1       -0.2401
     30 H          -6.6024    5.9626   -1.0472 H       1  LIG1        0.0626
     31 H         -10.4159    7.6826   -0.1650 H       1  LIG1        0.0830
     32 N          -9.9273    3.5040    0.8784 N.pl3   1  LIG1       -0.3426
     33 H         -10.9203    3.5425    1.0413 H       1  LIG1        0.1437
     34 H          -9.4736    2.6306    0.6453 H       1  LIG1        0.1437
     35 H          -8.1063    7.9473   -1.0797 H       1  LIG1        0.0633
@<TRIPOS>BOND
     1    10     9    1
     2    11     9    1
     3    35    27    1
     4    30    26    1
     5     9     1    1
     6    27    26   ar
     7    27    28   ar
     8    26    25   ar
     9     6     1   ar
    10     6     5   ar
    11     1     2   ar
    12    22    20    1
    13    21    20    1
    14    28    31    1
    15    28    29   ar
    16    25    17    1
    17    25    24   ar
    18    18    13   ar
    19    18    17   ar
    20    20    13    1
    21    13    14   ar
    22    17    16   ar
    23    14    15   ar
    24    14     5    1
    25    16    15   ar
    26    16    23    1
    27    15    19    1
    28     5     4   ar
    29     8     2    1
    30     2     3   ar
    31    29    24   ar
    32    24    32    1
    33    34    32    1
    34     3     4   ar
    35     3     7    1
    36     4    12    1
    37    32    33    1
