@<TRIPOS>MOLECULE
mol_data/opt/cam/geoms/mol2/6ha6ha6ha-6ha-.out
 46 49 0 0 0
SMALL
GASTEIGER

@<TRIPOS>ATOM
      1 C          -4.2892   -2.2559   -0.4346 C.ar    1  LIG1        0.1168
      2 C          -3.0358   -2.3283    0.1895 C.ar    1  LIG1       -0.0221
      3 C          -2.5620   -1.1903    0.8104 C.ar    1  LIG1       -0.0565
      4 C          -3.3132   -0.0212    0.7933 C.ar    1  LIG1       -0.0355
      5 C          -4.5411   -0.0239    0.1301 C.ar    1  LIG1        0.0764
      6 N          -5.0127   -1.1361   -0.4614 N.ar    1  LIG1       -0.2323
      7 H          -1.6046   -1.2120    1.3216 H       1  LIG1        0.0619
      8 H          -2.4751   -3.2562    0.1956 H       1  LIG1        0.0652
      9 N          -4.8570   -3.3625   -1.0256 N.pl3   1  LIG1       -0.3431
     10 H          -5.6051   -3.1604   -1.6709 H       1  LIG1        0.1437
     11 H          -4.2378   -4.1046   -1.3095 H       1  LIG1        0.1437
     12 H          -2.9640    0.8636    1.3084 H       1  LIG1        0.0639
     13 C          -6.7861    1.1930   -0.0745 C.ar    1  LIG1        0.1261
     14 C          -5.3655    1.2048    0.0494 C.ar    1  LIG1        0.0399
     15 C          -4.7746    2.4593    0.1109 C.ar    1  LIG1       -0.0473
     16 C          -5.5257    3.6258    0.0658 C.ar    1  LIG1       -0.0348
     17 C          -6.9117    3.5078   -0.0467 C.ar    1  LIG1        0.0764
     18 N          -7.5113    2.3149   -0.1128 N.ar    1  LIG1       -0.2317
     19 H          -3.6948    2.5328    0.1849 H       1  LIG1        0.0626
     20 N          -7.4915    0.0328   -0.1254 N.pl3   1  LIG1       -0.3426
     21 H          -8.4660    0.1332   -0.3588 H       1  LIG1        0.1437
     22 H          -6.9801   -0.7961   -0.3977 H       1  LIG1        0.1437
     23 H          -5.0517    4.5941    0.1561 H       1  LIG1        0.0639
     24 C          -7.5113    5.9340   -0.6202 C.ar    1  LIG1        0.1261
     25 C          -7.8213    4.6791   -0.0533 C.ar    1  LIG1        0.0399
     26 C          -9.0812    4.5640    0.5247 C.ar    1  LIG1       -0.0473
     27 C          -9.9522    5.6373    0.5727 C.ar    1  LIG1       -0.0348
     28 C          -9.5543    6.8493    0.0039 C.ar    1  LIG1        0.0764
     29 N          -8.3520    6.9699   -0.5787 N.ar    1  LIG1       -0.2317
     30 H          -9.3555    3.6059    0.9511 H       1  LIG1        0.0626
     31 N          -6.3119    6.1867   -1.2588 N.pl3   1  LIG1       -0.3426
     32 H          -5.8483    5.3913   -1.6719 H       1  LIG1        0.1437
     33 H          -6.3514    7.0024   -1.8527 H       1  LIG1        0.1437
     34 H         -10.9080    5.5440    1.0708 H       1  LIG1        0.0639
     35 C          -9.9714    9.3732   -0.0214 C.ar    1  LIG1        0.1254
     36 C         -10.4485    8.0307    0.0101 C.ar    1  LIG1        0.0399
     37 C         -11.8289    7.8656    0.0546 C.ar    1  LIG1       -0.0478
     38 C         -12.6844    8.9578    0.0942 C.ar    1  LIG1       -0.0428
     39 C         -12.1055   10.2173    0.0834 C.ar    1  LIG1        0.0297
     40 N         -10.7962   10.4293    0.0216 N.ar    1  LIG1       -0.2401
     41 H         -12.2422    6.8627    0.0364 H       1  LIG1        0.0626
     42 H         -12.7273   11.1102    0.1149 H       1  LIG1        0.0830
     43 N          -8.6437    9.6660   -0.0564 N.pl3   1  LIG1       -0.3426
     44 H          -8.0282    8.9375   -0.3917 H       1  LIG1        0.1437
     45 H          -8.4269   10.6355   -0.2220 H       1  LIG1        0.1437
     46 H         -13.7602    8.8355    0.1228 H       1  LIG1        0.0633
@<TRIPOS>BOND
     1    33    31    1
     2    32    31    1
     3    10     9    1
     4    11     9    1
     5    31    24    1
     6     9     1    1
     7    24    29   ar
     8    24    25   ar
     9    29    28   ar
    10     6     1   ar
    11     6     5   ar
    12     1     2   ar
    13    22    20    1
    14    44    43    1
    15    21    20    1
    16    45    43    1
    17    20    13    1
    18    18    13   ar
    19    18    17   ar
    20    13    14   ar
    21    43    35    1
    22    25    17    1
    23    25    26   ar
    24    17    16   ar
    25    35    36   ar
    26    35    40   ar
    27    28    36    1
    28    28    27   ar
    29    36    37   ar
    30    40    39   ar
    31    41    37    1
    32    14    15   ar
    33    14     5    1
    34    37    38   ar
    35    16    15   ar
    36    16    23    1
    37    39    38   ar
    38    39    42    1
    39    38    46    1
    40    15    19    1
    41     5     4   ar
    42     2     8    1
    43     2     3   ar
    44    26    27   ar
    45    26    30    1
    46    27    34    1
    47     4     3   ar
    48     4    12    1
    49     3     7    1
