@<TRIPOS>MOLECULE
mol_data/opt/cam/geoms/mol2/6ha6ha6ha6ha.out
 46 49 0 0 0
SMALL
GASTEIGER

@<TRIPOS>ATOM
      1 C          -3.9621   -2.1155   -0.6551 C.ar    1  LIG1        0.1168
      2 C          -2.8036   -2.1666    0.1330 C.ar    1  LIG1       -0.0221
      3 C          -2.5275   -1.0803    0.9383 C.ar    1  LIG1       -0.0565
      4 C          -3.3759    0.0206    0.9416 C.ar    1  LIG1       -0.0355
      5 C          -4.4969    0.0043    0.1108 C.ar    1  LIG1        0.0764
      6 N          -4.7775   -1.0605   -0.6622 N.ar    1  LIG1       -0.2323
      7 H          -1.6505   -1.0901    1.5778 H       1  LIG1        0.0619
      8 H          -2.1638   -3.0418    0.1177 H       1  LIG1        0.0652
      9 N          -4.3375   -3.1817   -1.4413 N.pl3   1  LIG1       -0.3431
     10 H          -5.0056   -2.9610   -2.1637 H       1  LIG1        0.1437
     11 H          -3.6185   -3.8339   -1.7105 H       1  LIG1        0.1437
     12 H          -3.1841    0.8594    1.5969 H       1  LIG1        0.0639
     13 C          -6.7930    1.0613   -0.2829 C.ar    1  LIG1        0.1261
     14 C          -5.4138    1.1662    0.0466 C.ar    1  LIG1        0.0399
     15 C          -4.9570    2.4475    0.3331 C.ar    1  LIG1       -0.0473
     16 C          -5.7988    3.5460    0.3124 C.ar    1  LIG1       -0.0348
     17 C          -7.1423    3.3487   -0.0128 C.ar    1  LIG1        0.0764
     18 N          -7.6079    2.1233   -0.2933 N.ar    1  LIG1       -0.2317
     19 H          -3.9080    2.5945    0.5670 H       1  LIG1        0.0626
     20 N          -7.3733   -0.1354   -0.5703 N.pl3   1  LIG1       -0.3426
     21 H          -8.2937   -0.0840   -0.9755 H       1  LIG1        0.1437
     22 H          -6.7419   -0.8741   -0.8545 H       1  LIG1        0.1437
     23 H          -5.4220    4.5272    0.5670 H       1  LIG1        0.0639
     24 C          -9.4921    4.3493    0.1269 C.ar    1  LIG1        0.1261
     25 C          -8.0901    4.4842   -0.0730 C.ar    1  LIG1        0.0399
     26 C          -7.6374    5.7762   -0.3184 C.ar    1  LIG1       -0.0473
     27 C          -8.4987    6.8587   -0.3526 C.ar    1  LIG1       -0.0348
     28 C          -9.8603    6.6333   -0.1388 C.ar    1  LIG1        0.0764
     29 N         -10.3228    5.3993    0.1019 N.ar    1  LIG1       -0.2317
     30 H          -6.5814    5.9405   -0.5029 H       1  LIG1        0.0626
     31 N         -10.0657    3.1455    0.3930 N.pl3   1  LIG1       -0.3426
     32 H         -11.0702    3.1199    0.3285 H       1  LIG1        0.1437
     33 H          -9.5207    2.3315    0.1348 H       1  LIG1        0.1437
     34 H          -8.1165    7.8569   -0.5182 H       1  LIG1        0.0639
     35 C         -12.0720    7.7348    0.5248 C.ar    1  LIG1        0.1254
     36 C         -10.8362    7.7474   -0.1858 C.ar    1  LIG1        0.0399
     37 C         -10.5704    8.8825   -0.9443 C.ar    1  LIG1       -0.0478
     38 C         -11.4558    9.9508   -0.9778 C.ar    1  LIG1       -0.0428
     39 C         -12.6155    9.8368   -0.2269 C.ar    1  LIG1        0.0297
     40 N         -12.9259    8.7687    0.4980 N.ar    1  LIG1       -0.2401
     41 H          -9.6630    8.9210   -1.5376 H       1  LIG1        0.0626
     42 H         -13.3452   10.6444   -0.2137 H       1  LIG1        0.0830
     43 N         -12.4420    6.6864    1.3064 N.pl3   1  LIG1       -0.3426
     44 H         -13.3905    6.7196    1.6433 H       1  LIG1        0.1437
     45 H         -11.9909    5.8010    1.1167 H       1  LIG1        0.1437
     46 H         -11.2573   10.8344   -1.5719 H       1  LIG1        0.0633
@<TRIPOS>BOND
     1    10     9    1
     2    11     9    1
     3    46    38    1
     4    41    37    1
     5     9     1    1
     6    38    37   ar
     7    38    39   ar
     8    21    20    1
     9    37    36   ar
    10    22    20    1
    11     6     1   ar
    12     6     5   ar
    13     1     2   ar
    14    20    13    1
    15    34    27    1
    16    30    26    1
    17    27    26   ar
    18    27    28   ar
    19    26    25   ar
    20    18    13   ar
    21    18    17   ar
    22    13    14   ar
    23    39    42    1
    24    39    40   ar
    25    36    28    1
    26    36    35   ar
    27    28    29   ar
    28    25    17    1
    29    25    24   ar
    30    17    16   ar
    31    14     5    1
    32    14    15   ar
    33    29    24   ar
    34     5     4   ar
    35     8     2    1
    36    24    31    1
    37     2     3   ar
    38    33    31    1
    39    16    15   ar
    40    16    23    1
    41    32    31    1
    42    15    19    1
    43    40    35   ar
    44    35    43    1
    45     3     4   ar
    46     3     7    1
    47     4    12    1
    48    45    43    1
    49    43    44    1
