@<TRIPOS>MOLECULE
mol_data/opt/cam/geoms/mol2/6ha6ha-6ha-6ha-.out
 46 49 0 0 0
SMALL
GASTEIGER

@<TRIPOS>ATOM
      1 C          -4.5775   -2.2838   -0.0244 C.ar    1  LIG1        0.1168
      2 C          -3.1855   -2.4220    0.1184 C.ar    1  LIG1       -0.0221
      3 C          -2.4340   -1.2715    0.2191 C.ar    1  LIG1       -0.0565
      4 C          -3.0537   -0.0241    0.1646 C.ar    1  LIG1       -0.0355
      5 C          -4.4381    0.0178    0.0012 C.ar    1  LIG1        0.0764
      6 N          -5.1788   -1.0980   -0.0876 N.ar    1  LIG1       -0.2323
      7 H          -1.3585   -1.3366    0.3522 H       1  LIG1        0.0619
      8 H          -2.7303   -3.4052    0.1637 H       1  LIG1        0.0652
      9 N          -5.3998   -3.3849   -0.0720 N.pl3   1  LIG1       -0.3431
     10 H          -6.3362   -3.1956   -0.3950 H       1  LIG1        0.1437
     11 H          -5.0014   -4.2599   -0.3714 H       1  LIG1        0.1437
     12 H          -2.4828    0.8867    0.2882 H       1  LIG1        0.0639
     13 C          -4.7316    2.4938   -0.5964 C.ar    1  LIG1        0.1261
     14 C          -5.2031    1.2886   -0.0334 C.ar    1  LIG1        0.0399
     15 C          -6.4833    1.3268    0.5085 C.ar    1  LIG1       -0.0473
     16 C          -7.2243    2.4945    0.5256 C.ar    1  LIG1       -0.0348
     17 C          -6.6718    3.6471   -0.0378 C.ar    1  LIG1        0.0764
     18 N          -5.4467    3.6208   -0.5850 N.ar    1  LIG1       -0.2317
     19 H          -6.8810    0.4118    0.9323 H       1  LIG1        0.0626
     20 N          -3.4919    2.5994   -1.1972 N.pl3   1  LIG1       -0.3426
     21 H          -3.1083    1.7510   -1.5863 H       1  LIG1        0.1437
     22 H          -3.4155    3.4069   -1.7985 H       1  LIG1        0.1437
     23 H          -8.1980    2.5156    0.9963 H       1  LIG1        0.0639
     24 C          -6.7972    6.2010   -0.1216 C.ar    1  LIG1        0.1261
     25 C          -7.4203    4.9238   -0.0648 C.ar    1  LIG1        0.0399
     26 C          -8.8105    4.9330   -0.0165 C.ar    1  LIG1       -0.0473
     27 C          -9.5343    6.1120   -0.0117 C.ar    1  LIG1       -0.0348
     28 C          -8.8379    7.3217   -0.0648 C.ar    1  LIG1        0.0764
     29 N          -7.4992    7.3412   -0.1101 N.ar    1  LIG1       -0.2317
     30 H          -9.3455    3.9898    0.0046 H       1  LIG1        0.0626
     31 N          -5.4442    6.3396   -0.1532 N.pl3   1  LIG1       -0.3426
     32 H          -4.9229    5.5237   -0.4491 H       1  LIG1        0.1437
     33 H          -5.1083    7.2602   -0.3845 H       1  LIG1        0.1437
     34 H         -10.6135    6.0906    0.0553 H       1  LIG1        0.0639
     35 C          -8.9892    9.8350    0.3900 C.ar    1  LIG1        0.1254
     36 C          -9.5566    8.6172   -0.0871 C.ar    1  LIG1        0.0399
     37 C         -10.8532    8.6926   -0.5851 C.ar    1  LIG1       -0.0478
     38 C         -11.5567    9.8889   -0.5865 C.ar    1  LIG1       -0.0428
     39 C         -10.9116   11.0042   -0.0745 C.ar    1  LIG1        0.0297
     40 N          -9.6697   10.9907    0.3942 N.ar    1  LIG1       -0.2401
     41 H         -11.3127    7.8018   -1.0001 H       1  LIG1        0.0626
     42 H         -11.4155   11.9687   -0.0485 H       1  LIG1        0.0830
     43 N          -7.7337    9.8902    0.9069 N.pl3   1  LIG1       -0.3426
     44 H          -7.1070    9.1378    0.6534 H       1  LIG1        0.1437
     45 H          -7.3836   10.8183    1.0803 H       1  LIG1        0.1437
     46 H         -12.5641    9.9548   -0.9788 H       1  LIG1        0.0633
@<TRIPOS>BOND
     1    22    20    1
     2    21    20    1
     3    20    13    1
     4    41    37    1
     5    46    38    1
     6    13    18   ar
     7    13    14   ar
     8    38    37   ar
     9    38    39   ar
    10    37    36   ar
    11    18    17   ar
    12    32    31    1
    13    10     9    1
    14    33    31    1
    15    11     9    1
    16    31    24    1
    17    24    29   ar
    18    24    25   ar
    19    29    28   ar
    20     6     1   ar
    21     6     5   ar
    22    36    28    1
    23    36    35   ar
    24    39    42    1
    25    39    40   ar
    26     9     1    1
    27    25    17    1
    28    25    26   ar
    29    28    27   ar
    30    17    16   ar
    31    14     5    1
    32    14    15   ar
    33     1     2   ar
    34    26    27   ar
    35    26    30    1
    36    27    34    1
    37     5     4   ar
    38     2     8    1
    39     2     3   ar
    40     4     3   ar
    41     4    12    1
    42     3     7    1
    43    35    40   ar
    44    35    43    1
    45    15    16   ar
    46    15    19    1
    47    16    23    1
    48    44    43    1
    49    43    45    1
