@<TRIPOS>MOLECULE
mol_data/opt/cam/geoms/mol2/6ha6ha-6ha6ha-.out
 46 49 0 0 0
SMALL
GASTEIGER

@<TRIPOS>ATOM
      1 C          -4.3896   -2.2432   -0.1753 C.ar    1  LIG1        0.1168
      2 C          -3.0386   -2.3151    0.2064 C.ar    1  LIG1       -0.0221
      3 C          -2.4033   -1.1384    0.5399 C.ar    1  LIG1       -0.0565
      4 C          -3.0939    0.0707    0.4806 C.ar    1  LIG1       -0.0355
      5 C          -4.4278    0.0491    0.0740 C.ar    1  LIG1        0.0764
      6 N          -5.0564   -1.0934   -0.2446 N.ar    1  LIG1       -0.2323
      7 H          -1.3659   -1.1545    0.8595 H       1  LIG1        0.0619
      8 H          -2.5272   -3.2704    0.2496 H       1  LIG1        0.0652
      9 N          -5.1075   -3.3803   -0.4663 N.pl3   1  LIG1       -0.3431
     10 H          -5.9830   -3.2124   -0.9380 H       1  LIG1        0.1437
     11 H          -4.5981   -4.1949   -0.7682 H       1  LIG1        0.1437
     12 H          -2.6219    0.9973    0.7791 H       1  LIG1        0.0639
     13 C          -4.7928    2.5567   -0.3412 C.ar    1  LIG1        0.1261
     14 C          -5.2672    1.2717    0.0151 C.ar    1  LIG1        0.0399
     15 C          -6.6200    1.1805    0.3143 C.ar    1  LIG1       -0.0473
     16 C          -7.4401    2.2991    0.2966 C.ar    1  LIG1       -0.0348
     17 C          -6.8734    3.5266   -0.0491 C.ar    1  LIG1        0.0764
     18 N          -5.5771    3.6329   -0.3674 N.ar    1  LIG1       -0.2317
     19 H          -7.0168    0.2067    0.5778 H       1  LIG1        0.0626
     20 N          -3.4765    2.7929   -0.6854 N.pl3   1  LIG1       -0.3426
     21 H          -2.9692    2.0267   -1.1016 H       1  LIG1        0.1437
     22 H          -3.3525    3.6859   -1.1404 H       1  LIG1        0.1437
     23 H          -8.4806    2.2294    0.5851 H       1  LIG1        0.0639
     24 C          -9.0035    4.9150   -0.3964 C.ar    1  LIG1        0.1261
     25 C          -7.6368    4.7979   -0.0476 C.ar    1  LIG1        0.0399
     26 C          -6.9924    5.9767    0.3045 C.ar    1  LIG1       -0.0473
     27 C          -7.6705    7.1859    0.3433 C.ar    1  LIG1       -0.0348
     28 C          -9.0233    7.1947    0.0008 C.ar    1  LIG1        0.0764
     29 N          -9.6578    6.0748   -0.3673 N.ar    1  LIG1       -0.2317
     30 H          -5.9411    5.9225    0.5635 H       1  LIG1        0.0626
     31 N          -9.7642    3.8323   -0.7909 N.pl3   1  LIG1       -0.3426
     32 H         -10.6294    4.1105   -1.2311 H       1  LIG1        0.1437
     33 H          -9.2785    3.0733   -1.2443 H       1  LIG1        0.1437
     34 H          -7.1753    8.0913    0.6686 H       1  LIG1        0.0639
     35 C          -9.3956    9.7202   -0.2344 C.ar    1  LIG1        0.1254
     36 C          -9.8632    8.4173    0.0599 C.ar    1  LIG1        0.0399
     37 C         -11.2044    8.2975    0.4065 C.ar    1  LIG1       -0.0478
     38 C         -12.0155    9.4191    0.5050 C.ar    1  LIG1       -0.0428
     39 C         -11.4405   10.6492    0.2285 C.ar    1  LIG1        0.0297
     40 N         -10.1735   10.8025   -0.1460 N.ar    1  LIG1       -0.2401
     41 H         -11.5907    7.3035    0.6012 H       1  LIG1        0.0626
     42 H         -12.0264   11.5634    0.2980 H       1  LIG1        0.0830
     43 N          -8.0953    9.9742   -0.6273 N.pl3   1  LIG1       -0.3426
     44 H          -7.6191    9.2406   -1.1300 H       1  LIG1        0.1437
     45 H          -7.9908   10.8984   -1.0210 H       1  LIG1        0.1437
     46 H         -13.0583    9.3422    0.7887 H       1  LIG1        0.0633
@<TRIPOS>BOND
     1    33    31    1
     2    32    31    1
     3    22    20    1
     4    44    43    1
     5    21    20    1
     6    45    43    1
     7    10     9    1
     8    31    24    1
     9    11     9    1
    10    20    13    1
    11    43    35    1
    12     9     1    1
    13    24    29   ar
    14    24    25   ar
    15    18    13   ar
    16    18    17   ar
    17    29    28   ar
    18    13    14   ar
    19     6     1   ar
    20     6     5   ar
    21    35    40   ar
    22    35    36   ar
    23     1     2   ar
    24    40    39   ar
    25    17    25    1
    26    17    16   ar
    27    25    26   ar
    28    28    36    1
    29    28    27   ar
    30    14     5    1
    31    14    15   ar
    32    36    37   ar
    33     5     4   ar
    34     2     8    1
    35     2     3   ar
    36    39    42    1
    37    39    38   ar
    38    16    15   ar
    39    16    23    1
    40    26    27   ar
    41    26    30    1
    42    15    19    1
    43    27    34    1
    44    37    38   ar
    45    37    41    1
    46     4     3   ar
    47     4    12    1
    48    38    46    1
    49     3     7    1
