@<TRIPOS>MOLECULE
mol_data/opt/cam/geoms/mol2/6ha6ha.out
 24 25 0 0 0
SMALL
GASTEIGER

@<TRIPOS>ATOM
      1 C          -4.4155   -2.0768   -0.3102 C.ar    1  LIG1        0.1168
      2 C          -3.0540   -2.0606    0.0235 C.ar    1  LIG1       -0.0221
      3 C          -2.4930   -0.8475    0.3686 C.ar    1  LIG1       -0.0565
      4 C          -3.2682    0.3059    0.3659 C.ar    1  LIG1       -0.0355
      5 C          -4.6113    0.2096   -0.0014 C.ar    1  LIG1        0.0764
      6 N          -5.1641   -0.9736   -0.3218 N.ar    1  LIG1       -0.2323
      7 H          -1.4464   -0.7968    0.6521 H       1  LIG1        0.0619
      8 H          -2.4755   -2.9776    0.0265 H       1  LIG1        0.0652
      9 N          -5.0631   -3.2556   -0.6102 N.pl3   1  LIG1       -0.3431
     10 H          -5.9400   -3.1410   -1.0951 H       1  LIG1        0.1437
     11 H          -4.4962   -4.0228   -0.9345 H       1  LIG1        0.1437
     12 H          -2.8452    1.2544    0.6688 H       1  LIG1        0.0639
     13 C          -6.8798    1.3818    0.1587 C.ar    1  LIG1        0.1254
     14 C          -5.4722    1.4155   -0.0586 C.ar    1  LIG1        0.0399
     15 C          -4.9163    2.6613   -0.3277 C.ar    1  LIG1       -0.0478
     16 C          -5.6972    3.8088   -0.3507 C.ar    1  LIG1       -0.0428
     17 C          -7.0519    3.6584   -0.0982 C.ar    1  LIG1        0.0297
     18 N          -7.6345    2.4897    0.1427 N.ar    1  LIG1       -0.2401
     19 H          -3.8553    2.7305   -0.5439 H       1  LIG1        0.0626
     20 H          -7.7124    4.5235   -0.1003 H       1  LIG1        0.0830
     21 N          -7.5391    0.2248    0.4367 N.pl3   1  LIG1       -0.3426
     22 H          -8.5437    0.2971    0.4293 H       1  LIG1        0.1437
     23 H          -7.0859   -0.6335    0.1546 H       1  LIG1        0.1437
     24 H          -5.2716    4.7813   -0.5656 H       1  LIG1        0.0633
@<TRIPOS>BOND
     1    10     9    1
     2    11     9    1
     3     9     1    1
     4    24    16    1
     5    19    15    1
     6    16    15   ar
     7    16    17   ar
     8    15    14   ar
     9     6     1   ar
    10     6     5   ar
    11     1     2   ar
    12    20    17    1
    13    17    18   ar
    14    14     5    1
    15    14    13   ar
    16     5     4   ar
    17     2     8    1
    18     2     3   ar
    19    18    13   ar
    20    23    21    1
    21    13    21    1
    22     4     3   ar
    23     4    12    1
    24     3     7    1
    25    22    21    1
