@<TRIPOS>MOLECULE
mol_data/opt/cam/geoms/mol2/6ha6ha-.out
 24 25 0 0 0
SMALL
GASTEIGER

@<TRIPOS>ATOM
      1 C          -4.5097   -2.0558   -0.2883 C.ar    1  LIG1        0.1168
      2 C          -3.1538   -2.1395    0.0720 C.ar    1  LIG1       -0.0221
      3 C          -2.5146   -0.9738    0.4361 C.ar    1  LIG1       -0.0565
      4 C          -3.2068    0.2356    0.4278 C.ar    1  LIG1       -0.0355
      5 C          -4.5465    0.2265    0.0406 C.ar    1  LIG1        0.0764
      6 N          -5.1783   -0.9054   -0.3076 N.ar    1  LIG1       -0.2323
      7 H          -1.4725   -0.9994    0.7395 H       1  LIG1        0.0619
      8 H          -2.6413   -3.0952    0.0752 H       1  LIG1        0.0652
      9 N          -5.2314   -3.1835   -0.6098 N.pl3   1  LIG1       -0.3431
     10 H          -6.1112   -2.9963   -1.0663 H       1  LIG1        0.1437
     11 H          -4.7238   -3.9813   -0.9568 H       1  LIG1        0.1437
     12 H          -2.7310    1.1538    0.7459 H       1  LIG1        0.0639
     13 C          -4.9106    2.7444   -0.2861 C.ar    1  LIG1        0.1254
     14 C          -5.3871    1.4516    0.0361 C.ar    1  LIG1        0.0399
     15 C          -6.7376    1.3427    0.3484 C.ar    1  LIG1       -0.0478
     16 C          -7.5508    2.4665    0.3867 C.ar    1  LIG1       -0.0428
     17 C          -6.9679    3.6871    0.0859 C.ar    1  LIG1        0.0297
     18 N          -5.6904    3.8283   -0.2564 N.ar    1  LIG1       -0.2401
     19 H          -7.1300    0.3555    0.5643 H       1  LIG1        0.0626
     20 H          -7.5552    4.6028    0.1080 H       1  LIG1        0.0830
     21 N          -3.5982    2.9872   -0.6467 N.pl3   1  LIG1       -0.3426
     22 H          -3.1095    2.2390   -1.1149 H       1  LIG1        0.1437
     23 H          -3.4837    3.8985   -1.0672 H       1  LIG1        0.1437
     24 H          -8.6013    2.3983    0.6428 H       1  LIG1        0.0633
@<TRIPOS>BOND
     1    22    21    1
     2    23    21    1
     3    10     9    1
     4    11     9    1
     5    21    13    1
     6     9     1    1
     7     6     1   ar
     8     6     5   ar
     9     1     2   ar
    10    13    18   ar
    11    13    14   ar
    12    18    17   ar
    13    14     5    1
    14    14    15   ar
    15     5     4   ar
    16     2     8    1
    17     2     3   ar
    18    17    20    1
    19    17    16   ar
    20    15    16   ar
    21    15    19    1
    22    16    24    1
    23     4     3   ar
    24     4    12    1
    25     3     7    1
