@<TRIPOS>MOLECULE
mol_data/opt/cam/geoms/mol2/6ha6ha6ha-6ha.out
 46 49 0 0 0
SMALL
GASTEIGER

@<TRIPOS>ATOM
      1 C          -4.2087   -2.2203   -0.4176 C.ar    1  LIG1        0.1168
      2 C          -2.9458   -2.2603    0.1897 C.ar    1  LIG1       -0.0221
      3 C          -2.4880   -1.1066    0.7934 C.ar    1  LIG1       -0.0565
      4 C          -3.2640    0.0461    0.7757 C.ar    1  LIG1       -0.0355
      5 C          -4.5005    0.0113    0.1294 C.ar    1  LIG1        0.0764
      6 N          -4.9562   -1.1164   -0.4450 N.ar    1  LIG1       -0.2323
      7 H          -1.5235   -1.1030    1.2915 H       1  LIG1        0.0619
      8 H          -2.3655   -3.1761    0.1967 H       1  LIG1        0.0652
      9 N          -4.7610   -3.3444   -0.9906 N.pl3   1  LIG1       -0.3431
     10 H          -5.5212   -3.1636   -1.6280 H       1  LIG1        0.1437
     11 H          -4.1292   -4.0748   -1.2776 H       1  LIG1        0.1437
     12 H          -2.9267    0.9431    1.2775 H       1  LIG1        0.0639
     13 C          -6.7729    1.1788   -0.0583 C.ar    1  LIG1        0.1261
     14 C          -5.3517    1.2214    0.0483 C.ar    1  LIG1        0.0399
     15 C          -4.7867    2.4888    0.0908 C.ar    1  LIG1       -0.0473
     16 C          -5.5625    3.6386    0.0437 C.ar    1  LIG1       -0.0348
     17 C          -6.9470    3.4907   -0.0504 C.ar    1  LIG1        0.0764
     18 N          -7.5221    2.2848   -0.0987 N.ar    1  LIG1       -0.2317
     19 H          -3.7079    2.5858    0.1501 H       1  LIG1        0.0626
     20 N          -7.4547    0.0035   -0.0891 N.pl3   1  LIG1       -0.3426
     21 H          -8.4338    0.0817   -0.3111 H       1  LIG1        0.1437
     22 H          -6.9297   -0.8173   -0.3598 H       1  LIG1        0.1437
     23 H          -5.1087    4.6179    0.1154 H       1  LIG1        0.0639
     24 C          -7.6019    5.9035   -0.6364 C.ar    1  LIG1        0.1261
     25 C          -7.8807    4.6434   -0.0554 C.ar    1  LIG1        0.0399
     26 C          -9.1304    4.5055    0.5347 C.ar    1  LIG1       -0.0473
     27 C         -10.0284    5.5614    0.5780 C.ar    1  LIG1       -0.0348
     28 C          -9.6521    6.7717   -0.0056 C.ar    1  LIG1        0.0764
     29 N          -8.4634    6.9188   -0.6037 N.ar    1  LIG1       -0.2317
     30 H          -9.3793    3.5467    0.9750 H       1  LIG1        0.0626
     31 N          -6.4112    6.1772   -1.2807 N.pl3   1  LIG1       -0.3426
     32 H          -5.9409    5.3987   -1.7172 H       1  LIG1        0.1437
     33 H          -6.4637    7.0145   -1.8429 H       1  LIG1        0.1437
     34 H         -10.9792    5.4625    1.0851 H       1  LIG1        0.0639
     35 C         -11.9203    7.9659   -0.0323 C.ar    1  LIG1        0.1254
     36 C         -10.5065    7.9851    0.0290 C.ar    1  LIG1        0.0399
     37 C          -9.9008    9.2342    0.1074 C.ar    1  LIG1       -0.0478
     38 C         -10.6644   10.3910    0.1749 C.ar    1  LIG1       -0.0428
     39 C         -12.0424   10.2493    0.1429 C.ar    1  LIG1        0.0297
     40 N         -12.6598    9.0768    0.0270 N.ar    1  LIG1       -0.2401
     41 H          -8.8175    9.2723    0.1195 H       1  LIG1        0.0626
     42 H         -12.6911   11.1209    0.2012 H       1  LIG1        0.0830
     43 N         -12.6451    6.7954   -0.1493 N.pl3   1  LIG1       -0.3426
     44 H         -13.6041    6.9666   -0.4160 H       1  LIG1        0.1437
     45 H         -12.1993    6.0287   -0.6302 H       1  LIG1        0.1437
     46 H         -10.2062   11.3698    0.2516 H       1  LIG1        0.0633
@<TRIPOS>BOND
     1    33    31    1
     2    32    31    1
     3    10     9    1
     4    31    24    1
     5    11     9    1
     6     9     1    1
     7    24    29   ar
     8    24    25   ar
     9    45    43    1
    10    29    28   ar
    11     6     1   ar
    12     6     5   ar
    13     1     2   ar
    14    44    43    1
    15    22    20    1
    16    21    20    1
    17    43    35    1
    18    18    13   ar
    19    18    17   ar
    20    20    13    1
    21    13    14   ar
    22    25    17    1
    23    25    26   ar
    24    17    16   ar
    25    35    40   ar
    26    35    36   ar
    27    28    36    1
    28    28    27   ar
    29    40    39   ar
    30    36    37   ar
    31    16    15   ar
    32    16    23    1
    33    14    15   ar
    34    14     5    1
    35    15    19    1
    36    37    41    1
    37    37    38   ar
    38     5     4   ar
    39    39    38   ar
    40    39    42    1
    41    38    46    1
    42     2     8    1
    43     2     3   ar
    44    26    27   ar
    45    26    30    1
    46    27    34    1
    47     4     3   ar
    48     4    12    1
    49     3     7    1
