@<TRIPOS>MOLECULE
mol_data/opt/cam/geoms/mol2/6ha6ha-6ha.out
 35 37 0 0 0
SMALL
GASTEIGER

@<TRIPOS>ATOM
      1 C          -4.4279   -2.1432   -0.1401 C.ar    1  LIG1        0.1168
      2 C          -3.0496   -2.1983    0.1304 C.ar    1  LIG1       -0.0221
      3 C          -2.3954   -1.0092    0.3703 C.ar    1  LIG1       -0.0565
      4 C          -3.0954    0.1951    0.3280 C.ar    1  LIG1       -0.0355
      5 C          -4.4583    0.1562    0.0345 C.ar    1  LIG1        0.0764
      6 N          -5.1047   -0.9984   -0.1922 N.ar    1  LIG1       -0.2323
      7 H          -1.3350   -1.0114    0.6029 H       1  LIG1        0.0619
      8 H          -2.5311   -3.1503    0.1631 H       1  LIG1        0.0652
      9 N          -5.1610   -3.2917   -0.3329 N.pl3   1  LIG1       -0.3431
     10 H          -6.0731   -3.1413   -0.7361 H       1  LIG1        0.1437
     11 H          -4.6734   -4.1130   -0.6522 H       1  LIG1        0.1437
     12 H          -2.6058    1.1331    0.5541 H       1  LIG1        0.0639
     13 C          -4.8691    2.6469   -0.4335 C.ar    1  LIG1        0.1261
     14 C          -5.3060    1.3741    0.0042 C.ar    1  LIG1        0.0399
     15 C          -6.6291    1.2903    0.4172 C.ar    1  LIG1       -0.0473
     16 C          -7.4533    2.4059    0.4293 C.ar    1  LIG1       -0.0348
     17 C          -6.9231    3.6221   -0.0032 C.ar    1  LIG1        0.0764
     18 N          -5.6583    3.7198   -0.4306 N.ar    1  LIG1       -0.2317
     19 H          -6.9983    0.3252    0.7451 H       1  LIG1        0.0626
     20 N          -3.5866    2.8745   -0.8935 N.pl3   1  LIG1       -0.3426
     21 H          -3.1133    2.0960   -1.3269 H       1  LIG1        0.1437
     22 H          -3.5072    3.7514   -1.3881 H       1  LIG1        0.1437
     23 H          -8.4675    2.3440    0.8011 H       1  LIG1        0.0639
     24 C          -9.0833    4.9861   -0.2186 C.ar    1  LIG1        0.1254
     25 C          -7.6916    4.8921    0.0204 C.ar    1  LIG1        0.0399
     26 C          -7.0189    6.0820    0.2748 C.ar    1  LIG1       -0.0478
     27 C          -7.7052    7.2864    0.3394 C.ar    1  LIG1       -0.0428
     28 C          -9.0737    7.2537    0.1241 C.ar    1  LIG1        0.0297
     29 N          -9.7478    6.1435   -0.1625 N.ar    1  LIG1       -0.2401
     30 H          -5.9464    6.0357    0.4257 H       1  LIG1        0.0626
     31 H          -9.6645    8.1661    0.1713 H       1  LIG1        0.0830
     32 N          -9.8638    3.8861   -0.5195 N.pl3   1  LIG1       -0.3426
     33 H         -10.7667    4.1499   -0.8873 H       1  LIG1        0.1437
     34 H          -9.4123    3.1252   -1.0042 H       1  LIG1        0.1437
     35 H          -7.1963    8.2190    0.5517 H       1  LIG1        0.0633
@<TRIPOS>BOND
     1    22    20    1
     2    21    20    1
     3    34    32    1
     4    20    13    1
     5    33    32    1
     6    10     9    1
     7    11     9    1
     8    32    24    1
     9    13    18   ar
    10    13    14   ar
    11    18    17   ar
    12     9     1    1
    13    24    29   ar
    14    24    25   ar
    15     6     1   ar
    16     6     5   ar
    17    29    28   ar
    18     1     2   ar
    19    17    25    1
    20    17    16   ar
    21    14     5    1
    22    14    15   ar
    23    25    26   ar
    24     5     4   ar
    25    28    31    1
    26    28    27   ar
    27     2     8    1
    28     2     3   ar
    29    26    27   ar
    30    26    30    1
    31     4     3   ar
    32     4    12    1
    33    27    35    1
    34     3     7    1
    35    15    16   ar
    36    15    19    1
    37    16    23    1
