@<TRIPOS>MOLECULE
mol_data/opt/cam/geoms/mol2/6ha6ha-4ha6ha.out
 47 50 0 0 0
SMALL
GASTEIGER

@<TRIPOS>ATOM
      1 C          -4.4677   -2.2460    0.1196 C.ar    1  LIG1        0.1168
      2 C          -3.0651   -2.3424    0.1242 C.ar    1  LIG1       -0.0221
      3 C          -2.3421   -1.1697    0.0869 C.ar    1  LIG1       -0.0565
      4 C          -3.0011    0.0571    0.0328 C.ar    1  LIG1       -0.0355
      5 C          -4.3958    0.0567    0.0121 C.ar    1  LIG1        0.0764
      6 N          -5.1074   -1.0805    0.0579 N.ar    1  LIG1       -0.2323
      7 H          -1.2572   -1.2011    0.1109 H       1  LIG1        0.0619
      8 H          -2.5784   -3.3102    0.1731 H       1  LIG1        0.0652
      9 N          -5.2579   -3.3679    0.2150 N.pl3   1  LIG1       -0.3431
     10 H          -6.2271   -3.2178   -0.0196 H       1  LIG1        0.1437
     11 H          -4.8671   -4.2470   -0.0828 H       1  LIG1        0.1437
     12 H          -2.4481    0.9871    0.0485 H       1  LIG1        0.0639
     13 C          -4.8190    2.4913   -0.6714 C.ar    1  LIG1        0.1261
     14 C          -5.1978    1.3049   -0.0076 C.ar    1  LIG1        0.0399
     15 C          -6.4189    1.3397    0.6575 C.ar    1  LIG1       -0.0473
     16 C          -7.1870    2.4894    0.6929 C.ar    1  LIG1       -0.0349
     17 C          -6.7253    3.6250    0.0235 C.ar    1  LIG1        0.0749
     18 N          -5.5607    3.6003   -0.6426 N.ar    1  LIG1       -0.2317
     19 H          -6.7461    0.4379    1.1623 H       1  LIG1        0.0626
     20 N          -3.6473    2.5968   -1.3984 N.pl3   1  LIG1       -0.3426
     21 H          -3.2874    1.7403   -1.7924 H       1  LIG1        0.1437
     22 H          -3.6580    3.3777   -2.0385 H       1  LIG1        0.1437
     23 H          -8.1107    2.5157    1.2553 H       1  LIG1        0.0639
     24 C          -6.9102    6.1636   -0.0742 C.ar    1  LIG1        0.0344
     25 C          -7.7340    7.2981   -0.0430 C.ar    1  LIG1       -0.0326
     26 C          -7.5107    4.8828    0.0122 C.ar    1  LIG1        0.0211
     27 C          -9.1178    7.2156    0.0575 C.ar    1  LIG1       -0.0128
     28 H          -7.2655    8.2756   -0.1173 H       1  LIG1        0.0642
     29 C          -8.9048    4.8202    0.0976 C.ar    1  LIG1       -0.0502
     30 C          -9.7080    5.9466    0.1188 C.ar    1  LIG1       -0.0532
     31 H          -9.3782    3.8449    0.1306 H       1  LIG1        0.0625
     32 N          -5.5451    6.3219   -0.1383 N.pl3   1  LIG1       -0.3574
     33 H          -5.0458    5.5208   -0.5042 H       1  LIG1        0.1423
     34 H          -5.2175    7.2283   -0.4314 H       1  LIG1        0.1423
     35 H         -10.7841    5.8488    0.1990 H       1  LIG1        0.0624
     36 C         -11.0830    8.6624   -0.6736 C.ar    1  LIG1        0.1239
     37 C          -9.9272    8.4585    0.1214 C.ar    1  LIG1        0.0217
     38 C          -9.5613    9.4988    0.9644 C.ar    1  LIG1       -0.0493
     39 C         -10.3124   10.6682    1.0229 C.ar    1  LIG1       -0.0429
     40 C         -11.4250   10.7522    0.2043 C.ar    1  LIG1        0.0297
     41 N         -11.8030    9.7853   -0.6301 N.ar    1  LIG1       -0.2401
     42 H          -8.6855    9.3761    1.5943 H       1  LIG1        0.0625
     43 H         -12.0498   11.6429    0.2084 H       1  LIG1        0.0830
     44 N         -11.5483    7.6978   -1.5390 N.pl3   1  LIG1       -0.3427
     45 H         -12.2114    8.0482   -2.2136 H       1  LIG1        0.1437
     46 H         -10.8887    7.0133   -1.8743 H       1  LIG1        0.1437
     47 H         -10.0429   11.4825    1.6847 H       1  LIG1        0.0633
@<TRIPOS>BOND
     1    45    44    1
     2    22    20    1
     3    46    44    1
     4    21    20    1
     5    44    36    1
     6    20    13    1
     7    36    41   ar
     8    36    37   ar
     9    13    18   ar
    10    13    14   ar
    11    18    17   ar
    12    41    40   ar
    13    33    32    1
    14    34    32    1
    15    32    24    1
    16    28    25    1
    17    11     9    1
    18    24    25   ar
    19    24    26   ar
    20    25    27   ar
    21    10     9    1
    22    14     5    1
    23    14    15   ar
    24     5     4   ar
    25     5     6   ar
    26    26    17    1
    27    26    29   ar
    28    17    16   ar
    29     4    12    1
    30     4     3   ar
    31    27    30   ar
    32    27    37    1
    33     6     1   ar
    34     3     7    1
    35     3     2   ar
    36    29    30   ar
    37    29    31    1
    38    30    35    1
    39     1     2   ar
    40     1     9    1
    41    37    38   ar
    42     2     8    1
    43    40    43    1
    44    40    39   ar
    45    15    16   ar
    46    15    19    1
    47    16    23    1
    48    38    39   ar
    49    38    42    1
    50    39    47    1
