@<TRIPOS>MOLECULE
mol_data/opt/cam/geoms/mol2/6hd6hd-6hd6hd-.out
 50 53 0 0 0
SMALL
GASTEIGER

@<TRIPOS>ATOM
      1 C          -4.3543   -2.1849   -0.5879 C.ar    1  LIG1        0.1169
      2 C          -3.0293   -2.3204   -0.1206 C.ar    1  LIG1       -0.0208
      3 C          -2.4209   -1.2152    0.4124 C.ar    1  LIG1       -0.0390
      4 C          -3.1073    0.0114    0.4640 C.ar    1  LIG1        0.0779
      5 C          -4.4093    0.0625   -0.0619 C.ar    1  LIG1        0.0937
      6 N          -5.0087   -1.0184   -0.5592 N.ar    1  LIG1       -0.2310
      7 H          -1.4139   -1.2773    0.8099 H       1  LIG1        0.0632
      8 H          -2.5199   -3.2758   -0.1691 H       1  LIG1        0.0652
      9 N          -5.0389   -3.2401   -1.0872 N.pl3   1  LIG1       -0.3431
     10 H          -5.9565   -3.0739   -1.4656 H       1  LIG1        0.1437
     11 H          -4.6052   -4.1366   -1.2189 H       1  LIG1        0.1437
     12 N          -1.9681    2.0449    1.5845 N.1     1  LIG1       -0.1908
     13 C          -2.4899    1.1362    1.0918 C.1     1  LIG1        0.1013
     14 C          -4.8587    2.5446   -0.5961 C.ar    1  LIG1        0.1262
     15 C          -5.2452    1.2926   -0.0474 C.ar    1  LIG1        0.0424
     16 C          -6.5188    1.2102    0.4739 C.ar    1  LIG1       -0.0298
     17 C          -7.3658    2.3235    0.5008 C.ar    1  LIG1        0.0785
     18 C          -6.8892    3.5253   -0.0536 C.ar    1  LIG1        0.0937
     19 N          -5.6711    3.6103   -0.5747 N.ar    1  LIG1       -0.2304
     20 H          -6.8596    0.2663    0.8832 H       1  LIG1        0.0639
     21 N          -3.6841    2.7392   -1.2432 N.pl3   1  LIG1       -0.3426
     22 H          -2.9120    2.1089   -1.1156 H       1  LIG1        0.1437
     23 H          -3.4650    3.6981   -1.4646 H       1  LIG1        0.1437
     24 N          -9.6823    2.1123    1.6317 N.1     1  LIG1       -0.1908
     25 C          -8.6419    2.2190    1.1349 C.1     1  LIG1        0.1013
     26 C          -8.9705    4.9460   -0.5894 C.ar    1  LIG1        0.1262
     27 C          -7.6663    4.7926   -0.0489 C.ar    1  LIG1        0.0424
     28 C          -7.0640    5.9278    0.4513 C.ar    1  LIG1       -0.0298
     29 C          -7.7311    7.1571    0.4637 C.ar    1  LIG1        0.0785
     30 C          -9.0262    7.2095   -0.0850 C.ar    1  LIG1        0.0937
     31 N          -9.6069    6.1247   -0.5841 N.ar    1  LIG1       -0.2304
     32 H          -6.0607    5.8571    0.8559 H       1  LIG1        0.0639
     33 N          -9.6369    3.9442   -1.2148 N.pl3   1  LIG1       -0.3426
     34 H         -10.6030    4.1377   -1.4291 H       1  LIG1        0.1437
     35 H          -9.3833    2.9831   -1.0677 H       1  LIG1        0.1437
     36 N          -6.5770    9.1962    1.5595 N.1     1  LIG1       -0.1908
     37 C          -7.1069    8.2865    1.0776 C.1     1  LIG1        0.1013
     38 C          -9.4553    9.6795   -0.6566 C.ar    1  LIG1        0.1255
     39 C          -9.8607    8.4396   -0.0968 C.ar    1  LIG1        0.0424
     40 C         -11.1494    8.3561    0.3980 C.ar    1  LIG1       -0.0304
     41 C         -11.9816    9.4770    0.3987 C.ar    1  LIG1        0.0706
     42 C         -11.4631   10.6613   -0.1295 C.ar    1  LIG1        0.0471
     43 N         -10.2521   10.7596   -0.6458 N.ar    1  LIG1       -0.2388
     44 H         -11.5041    7.4095    0.7889 H       1  LIG1        0.0638
     45 H         -12.0678   11.5648   -0.1334 H       1  LIG1        0.0843
     46 N          -8.2739    9.8511   -1.3077 N.pl3   1  LIG1       -0.3426
     47 H          -7.5074    9.2202   -1.1512 H       1  LIG1        0.1437
     48 H          -8.0362   10.8113   -1.5037 H       1  LIG1        0.1437
     49 N         -14.3887    9.3892    1.3409 N.1     1  LIG1       -0.1908
     50 C         -13.3107    9.4258    0.9211 C.1     1  LIG1        0.1007
@<TRIPOS>BOND
     1    48    46    1
     2    10     9    1
     3    23    21    1
     4    34    33    1
     5    46    47    1
     6    46    38    1
     7    21    22    1
     8    21    14    1
     9    11     9    1
    10    33    35    1
    11    33    26    1
    12     9     1    1
    13    38    43   ar
    14    38    39   ar
    15    43    42   ar
    16    14    19   ar
    17    14    15   ar
    18    26    31   ar
    19    26    27   ar
    20     1     6   ar
    21     1     2   ar
    22    31    30   ar
    23    19    18   ar
    24     6     5   ar
    25     8     2    1
    26    45    42    1
    27    42    41   ar
    28     2     3   ar
    29    39    30    1
    30    39    40   ar
    31    30    29   ar
    32     5    15    1
    33     5     4   ar
    34    18    27    1
    35    18    17   ar
    36    27    28   ar
    37    15    16   ar
    38    40    41   ar
    39    40    44    1
    40    41    50    1
    41     3     4   ar
    42     3     7    1
    43    28    29   ar
    44    28    32    1
    45    29    37    1
    46     4    13    1
    47    16    17   ar
    48    16    20    1
    49    17    25    1
    50    50    49    3
    51    37    36    3
    52    13    12    3
    53    25    24    3
