@<TRIPOS>MOLECULE
mol_data/opt/cam/geoms/mol2/6hd6hd.out
 26 27 0 0 0
SMALL
GASTEIGER

@<TRIPOS>ATOM
      1 C          -4.4354   -2.0560   -0.4910 C.ar    1  LIG1        0.1169
      2 C          -3.0694   -2.0917   -0.1565 C.ar    1  LIG1       -0.0208
      3 C          -2.4904   -0.9291    0.2826 C.ar    1  LIG1       -0.0390
      4 C          -3.2431    0.2533    0.3675 C.ar    1  LIG1        0.0779
      5 C          -4.5934    0.2131   -0.0245 C.ar    1  LIG1        0.0937
      6 N          -5.1573   -0.9348   -0.4213 N.ar    1  LIG1       -0.2310
      7 H          -1.4471   -0.9113    0.5778 H       1  LIG1        0.0632
      8 H          -2.5043   -3.0137   -0.2261 H       1  LIG1        0.0652
      9 N          -5.1007   -3.1800   -0.8789 N.pl3   1  LIG1       -0.3431
     10 H          -6.0044   -3.0478   -1.3042 H       1  LIG1        0.1437
     11 H          -4.5772   -3.9925   -1.1585 H       1  LIG1        0.1437
     12 N          -2.0465    2.3312    1.3375 N.1     1  LIG1       -0.1908
     13 C          -2.6075    1.4192    0.8977 C.1     1  LIG1        0.1013
     14 C          -6.8402    1.3565    0.3427 C.ar    1  LIG1        0.1255
     15 C          -5.4622    1.4150   -0.0256 C.ar    1  LIG1        0.0424
     16 C          -4.9676    2.6504   -0.4088 C.ar    1  LIG1       -0.0304
     17 C          -5.7860    3.7821   -0.3889 C.ar    1  LIG1        0.0706
     18 C          -7.1033    3.6175    0.0418 C.ar    1  LIG1        0.0471
     19 N          -7.6159    2.4516    0.3901 N.ar    1  LIG1       -0.2388
     20 H          -3.9405    2.7519   -0.7364 H       1  LIG1        0.0638
     21 H          -7.7691    4.4756    0.0910 H       1  LIG1        0.0843
     22 N          -7.4418    0.2008    0.7051 N.pl3   1  LIG1       -0.3426
     23 H          -8.4374    0.2580    0.8489 H       1  LIG1        0.1437
     24 H          -7.0206   -0.6612    0.3911 H       1  LIG1        0.1437
     25 N          -4.9320    6.1039   -1.1430 N.1     1  LIG1       -0.1908
     26 C          -5.3065    5.0634   -0.8017 C.1     1  LIG1        0.1007
@<TRIPOS>BOND
     1    10     9    1
     2    11     9    1
     3    25    26    3
     4     9     1    1
     5    26    17    1
     6    20    16    1
     7     1     6   ar
     8     1     2   ar
     9     6     5   ar
    10    16    17   ar
    11    16    15   ar
    12    17    18   ar
    13     8     2    1
    14     2     3   ar
    15    15     5    1
    16    15    14   ar
    17     5     4   ar
    18    18    21    1
    19    18    19   ar
    20     3     4   ar
    21     3     7    1
    22    14    19   ar
    23    14    22    1
    24     4    13    1
    25    24    22    1
    26    22    23    1
    27    13    12    3
