@<TRIPOS>MOLECULE
mol_data/opt/cam/geoms/mol2/6hd6hd6hd.out
 38 40 0 0 0
SMALL
GASTEIGER

@<TRIPOS>ATOM
      1 C          -4.2402   -2.0438   -0.8651 C.ar    1  LIG1        0.1169
      2 C          -2.9976   -2.1808   -0.2189 C.ar    1  LIG1       -0.0208
      3 C          -2.5624   -1.1367    0.5552 C.ar    1  LIG1       -0.0390
      4 C          -3.3310    0.0335    0.6698 C.ar    1  LIG1        0.0779
      5 C          -4.5411    0.1062   -0.0417 C.ar    1  LIG1        0.0937
      6 N          -4.9741   -0.9321   -0.7683 N.ar    1  LIG1       -0.2310
      7 H          -1.6242   -1.2051    1.0945 H       1  LIG1        0.0632
      8 H          -2.4182   -3.0912   -0.3174 H       1  LIG1        0.0652
      9 N          -4.7710   -3.0570   -1.6036 N.pl3   1  LIG1       -0.3431
     10 H          -5.5455   -2.8259   -2.2050 H       1  LIG1        0.1437
     11 H          -4.1850   -3.8251   -1.8847 H       1  LIG1        0.1437
     12 N          -2.4504    1.8654    2.2694 N.1     1  LIG1       -0.1908
     13 C          -2.8656    1.0635    1.5453 C.1     1  LIG1        0.1013
     14 C          -6.8252    1.2361   -0.0406 C.ar    1  LIG1        0.1262
     15 C          -5.4027    1.3132   -0.0372 C.ar    1  LIG1        0.0424
     16 C          -4.8639    2.5852   -0.0386 C.ar    1  LIG1       -0.0298
     17 C          -5.6709    3.7275   -0.0259 C.ar    1  LIG1        0.0785
     18 C          -7.0676    3.5556   -0.0083 C.ar    1  LIG1        0.0937
     19 N          -7.5956    2.3295    0.0013 N.ar    1  LIG1       -0.2304
     20 H          -3.7900    2.7222   -0.0493 H       1  LIG1        0.0639
     21 N          -7.4813    0.0516   -0.0483 N.pl3   1  LIG1       -0.3426
     22 H          -8.4746    0.1047   -0.2094 H       1  LIG1        0.1437
     23 H          -6.9667   -0.7459   -0.3962 H       1  LIG1        0.1437
     24 N          -4.4678    6.0166    0.0411 N.1     1  LIG1       -0.1908
     25 C          -5.0279    5.0041    0.0147 C.1     1  LIG1        0.1013
     26 C          -9.2475    4.6499    0.7218 C.ar    1  LIG1        0.1255
     27 C          -8.0211    4.6903   -0.0092 C.ar    1  LIG1        0.0424
     28 C          -7.7683    5.8358   -0.7460 C.ar    1  LIG1       -0.0304
     29 C          -8.6660    6.9055   -0.7287 C.ar    1  LIG1        0.0706
     30 C          -9.8067    6.7779    0.0657 C.ar    1  LIG1        0.0471
     31 N         -10.0926    5.6932    0.7614 N.ar    1  LIG1       -0.2388
     32 H          -6.8742    5.9127   -1.3513 H       1  LIG1        0.0638
     33 H         -10.5216    7.5950    0.1232 H       1  LIG1        0.0843
     34 N          -9.6181    3.5748    1.4520 N.pl3   1  LIG1       -0.3426
     35 H         -10.5414    3.6188    1.8525 H       1  LIG1        0.1437
     36 H          -9.2008    2.6854    1.2204 H       1  LIG1        0.1437
     37 N          -8.2787    9.0450   -2.1292 N.1     1  LIG1       -0.1908
     38 C          -8.4422    8.0873   -1.5004 C.1     1  LIG1        0.1007
@<TRIPOS>BOND
     1    10     9    1
     2    37    38    3
     3    11     9    1
     4     9     1    1
     5    38    29    1
     6    32    28    1
     7     1     6   ar
     8     1     2   ar
     9     6     5   ar
    10    28    29   ar
    11    28    27   ar
    12    29    30   ar
    13    23    21    1
    14     8     2    1
    15     2     3   ar
    16    22    21    1
    17    20    16    1
    18    21    14    1
    19     5    15    1
    20     5     4   ar
    21    14    15   ar
    22    14    19   ar
    23    16    15   ar
    24    16    17   ar
    25    17    18   ar
    26    17    25    1
    27    27    18    1
    28    27    26   ar
    29    18    19   ar
    30    25    24    3
    31    30    33    1
    32    30    31   ar
    33     3     4   ar
    34     3     7    1
    35     4    13    1
    36    26    31   ar
    37    26    34    1
    38    36    34    1
    39    34    35    1
    40    13    12    3
