@<TRIPOS>MOLECULE
mol_data/opt/cam/geoms/mol2/6hd6hd-.out
 26 27 0 0 0
SMALL
GASTEIGER

@<TRIPOS>ATOM
      1 C          -4.4518   -2.0152   -0.5296 C.ar    1  LIG1        0.1169
      2 C          -3.1349   -2.1317   -0.0371 C.ar    1  LIG1       -0.0208
      3 C          -2.5433   -1.0094    0.4799 C.ar    1  LIG1       -0.0390
      4 C          -3.2374    0.2134    0.4888 C.ar    1  LIG1        0.0779
      5 C          -4.5314    0.2450   -0.0600 C.ar    1  LIG1        0.0937
      6 N          -5.1145   -0.8542   -0.5374 N.ar    1  LIG1       -0.2310
      7 H          -1.5431   -1.0548    0.8966 H       1  LIG1        0.0632
      8 H          -2.6168   -3.0834   -0.0591 H       1  LIG1        0.0652
      9 N          -5.1107   -3.0810   -1.0468 N.pl3   1  LIG1       -0.3431
     10 H          -6.0765   -2.9531   -1.3008 H       1  LIG1        0.1437
     11 H          -4.7522   -4.0143   -0.9467 H       1  LIG1        0.1437
     12 N          -2.1159    2.2697    1.5860 N.1     1  LIG1       -0.1908
     13 C          -2.6338    1.3544    1.1013 C.1     1  LIG1        0.1013
     14 C          -4.9777    2.7058   -0.6643 C.ar    1  LIG1        0.1255
     15 C          -5.3744    1.4694   -0.0903 C.ar    1  LIG1        0.0424
     16 C          -6.6641    1.3827    0.4010 C.ar    1  LIG1       -0.0304
     17 C          -7.5060    2.4960    0.3851 C.ar    1  LIG1        0.0706
     18 C          -6.9957    3.6779   -0.1566 C.ar    1  LIG1        0.0471
     19 N          -5.7838    3.7791   -0.6698 N.ar    1  LIG1       -0.2388
     20 H          -7.0125    0.4380    0.8018 H       1  LIG1        0.0638
     21 H          -7.6077    4.5763   -0.1744 H       1  LIG1        0.0843
     22 N          -3.7954    2.8801   -1.3121 N.pl3   1  LIG1       -0.3426
     23 H          -3.0253    2.2550   -1.1509 H       1  LIG1        0.1437
     24 H          -3.5656    3.8389   -1.5235 H       1  LIG1        0.1437
     25 N          -9.9140    2.3893    1.3230 N.1     1  LIG1       -0.1908
     26 C          -8.8359    2.4369    0.9044 C.1     1  LIG1        0.1007
@<TRIPOS>BOND
     1    24    22    1
     2    22    23    1
     3    22    14    1
     4    10     9    1
     5     9    11    1
     6     9     1    1
     7    19    14   ar
     8    19    18   ar
     9    14    15   ar
    10     6     1   ar
    11     6     5   ar
    12     1     2   ar
    13    21    18    1
    14    18    17   ar
    15    15     5    1
    16    15    16   ar
    17     5     4   ar
    18     8     2    1
    19     2     3   ar
    20    17    16   ar
    21    17    26    1
    22    16    20    1
    23     3     4   ar
    24     3     7    1
    25     4    13    1
    26    26    25    3
    27    13    12    3
