@<TRIPOS>MOLECULE
mol_data/opt/cam/geoms/mol2/6hd6hd-6hd-6hd-.out
 50 53 0 0 0
SMALL
GASTEIGER

@<TRIPOS>ATOM
      1 C          -4.5391   -2.2562   -0.3812 C.ar    1  LIG1        0.1169
      2 C          -3.1453   -2.4012   -0.2092 C.ar    1  LIG1       -0.0208
      3 C          -2.4072   -1.2727    0.0296 C.ar    1  LIG1       -0.0390
      4 C          -3.0363   -0.0154    0.0759 C.ar    1  LIG1        0.0779
      5 C          -4.4232    0.0375   -0.1469 C.ar    1  LIG1        0.0937
      6 N          -5.1440   -1.0633   -0.3531 N.ar    1  LIG1       -0.2310
      7 H          -1.3377   -1.3380    0.1969 H       1  LIG1        0.0632
      8 H          -2.6810   -3.3796   -0.2525 H       1  LIG1        0.0652
      9 N          -5.3390   -3.3248   -0.6020 N.pl3   1  LIG1       -0.3431
     10 H          -6.3317   -3.1685   -0.6609 H       1  LIG1        0.1437
     11 H          -4.9910   -4.2653   -0.5419 H       1  LIG1        0.1437
     12 N          -1.6327    2.0801    0.6485 N.1     1  LIG1       -0.1908
     13 C          -2.2691    1.1443    0.4035 C.1     1  LIG1        0.1013
     14 C          -4.9161    2.4606   -0.8656 C.ar    1  LIG1        0.1262
     15 C          -5.2046    1.3012   -0.1014 C.ar    1  LIG1        0.0424
     16 C          -6.3322    1.3495    0.6901 C.ar    1  LIG1       -0.0298
     17 C          -7.1222    2.5003    0.7730 C.ar    1  LIG1        0.0785
     18 C          -6.7459    3.6155    0.0023 C.ar    1  LIG1        0.0937
     19 N          -5.6605    3.5702   -0.7729 N.ar    1  LIG1       -0.2304
     20 H          -6.6028    0.4751    1.2704 H       1  LIG1        0.0639
     21 N          -3.9228    2.5070   -1.7863 N.pl3   1  LIG1       -0.3426
     22 H          -3.1838    1.8266   -1.7893 H       1  LIG1        0.1437
     23 H          -3.7313    3.4047   -2.2006 H       1  LIG1        0.1437
     24 N          -9.1068    2.4485    2.4308 N.1     1  LIG1       -0.1908
     25 C          -8.2262    2.4972    1.6812 C.1     1  LIG1        0.1013
     26 C          -6.8825    6.1583   -0.0743 C.ar    1  LIG1        0.1262
     27 C          -7.5143    4.8833   -0.0047 C.ar    1  LIG1        0.0424
     28 C          -8.8944    4.8910    0.0481 C.ar    1  LIG1       -0.0298
     29 C          -9.6248    6.0840    0.0472 C.ar    1  LIG1        0.0785
     30 C          -8.9156    7.2984   -0.0047 C.ar    1  LIG1        0.0937
     31 N          -7.5814    7.2993   -0.0449 N.ar    1  LIG1       -0.2304
     32 H          -9.4435    3.9589    0.0918 H       1  LIG1        0.0639
     33 N          -5.5374    6.2913   -0.1340 N.pl3   1  LIG1       -0.3426
     34 H          -5.0151    5.4916   -0.4635 H       1  LIG1        0.1437
     35 H          -5.1952    7.2184   -0.3299 H       1  LIG1        0.1437
     36 N         -12.1985    5.8887    0.2202 N.1     1  LIG1       -0.1908
     37 C         -11.0489    6.0007    0.1456 C.1     1  LIG1        0.1013
     38 C          -9.0368    9.7564    0.6481 C.ar    1  LIG1        0.1255
     39 C          -9.5822    8.6222   -0.0271 C.ar    1  LIG1        0.0424
     40 C         -10.7592    8.8178   -0.7305 C.ar    1  LIG1       -0.0304
     41 C         -11.3875   10.0651   -0.7333 C.ar    1  LIG1        0.0706
     42 C         -10.7934   11.0885    0.0071 C.ar    1  LIG1        0.0471
     43 N          -9.6606   10.9458    0.6694 N.ar    1  LIG1       -0.2388
     44 H         -11.2030    8.0067   -1.2936 H       1  LIG1        0.0638
     45 H         -11.2603   12.0696    0.0478 H       1  LIG1        0.0843
     46 N          -7.8783    9.6958    1.3413 N.pl3   1  LIG1       -0.3426
     47 H          -7.2339    8.9535    1.1122 H       1  LIG1        0.1437
     48 H          -7.5407   10.5739    1.7017 H       1  LIG1        0.1437
     49 N         -13.5545   10.5081   -2.0737 N.1     1  LIG1       -0.1908
     50 C         -12.5881   10.3008   -1.4716 C.1     1  LIG1        0.1007
@<TRIPOS>BOND
     1    23    21    1
     2    49    50    3
     3    22    21    1
     4    21    14    1
     5    50    41    1
     6    44    40    1
     7    14    19   ar
     8    14    15   ar
     9    19    18   ar
    10    41    40   ar
    11    41    42   ar
    12    40    39   ar
    13    10     9    1
    14     9    11    1
    15     9     1    1
    16    34    33    1
    17     1     6   ar
    18     1     2   ar
    19     6     5   ar
    20    35    33    1
    21     8     2    1
    22     2     3   ar
    23     5    15    1
    24     5     4   ar
    25    33    26    1
    26    15    16   ar
    27    26    31   ar
    28    26    27   ar
    29    31    30   ar
    30    39    30    1
    31    39    38   ar
    32    30    29   ar
    33    27    18    1
    34    27    28   ar
    35    18    17   ar
    36    42    45    1
    37    42    43   ar
    38     3     4   ar
    39     3     7    1
    40    29    28   ar
    41    29    37    1
    42    28    32    1
    43     4    13    1
    44    37    36    3
    45    13    12    3
    46    38    43   ar
    47    38    46    1
    48    16    17   ar
    49    16    20    1
    50    17    25    1
    51    47    46    1
    52    46    48    1
    53    25    24    3
