@<TRIPOS>MOLECULE
mol_data/opt/cam/geoms/mol2/6hd6hd6hd6hd.out
 50 53 0 0 0
SMALL
GASTEIGER

@<TRIPOS>ATOM
      1 C          -3.9563   -1.9662   -1.1883 C.ar    1  LIG1        0.1169
      2 C          -2.9114   -2.2598   -0.2920 C.ar    1  LIG1       -0.0208
      3 C          -2.7033   -1.3964    0.7517 C.ar    1  LIG1       -0.0390
      4 C          -3.4995   -0.2476    0.8945 C.ar    1  LIG1        0.0779
      5 C          -4.4950   -0.0062   -0.0674 C.ar    1  LIG1        0.0937
      6 N          -4.7136   -0.8728   -1.0644 N.ar    1  LIG1       -0.2310
      7 H          -1.9277   -1.5938    1.4833 H       1  LIG1        0.0632
      8 H          -2.3075   -3.1509   -0.4169 H       1  LIG1        0.0652
      9 N          -4.2651   -2.8033   -2.2159 N.pl3   1  LIG1       -0.3431
     10 H          -4.8718   -2.4416   -2.9342 H       1  LIG1        0.1437
     11 H          -3.6149   -3.5233   -2.4828 H       1  LIG1        0.1437
     12 N          -3.0879    1.2236    2.9816 N.1     1  LIG1       -0.1908
     13 C          -3.2894    0.5840    2.0383 C.1     1  LIG1        0.1013
     14 C          -6.7316    1.1669   -0.4081 C.ar    1  LIG1        0.1262
     15 C          -5.3544    1.2028   -0.0445 C.ar    1  LIG1        0.0424
     16 C          -4.8555    2.4358    0.3262 C.ar    1  LIG1       -0.0298
     17 C          -5.6632    3.5781    0.3595 C.ar    1  LIG1        0.0785
     18 C          -7.0172    3.4440    0.0052 C.ar    1  LIG1        0.0937
     19 N          -7.5100    2.2539   -0.3463 N.ar    1  LIG1       -0.2304
     20 H          -3.8142    2.5422    0.6030 H       1  LIG1        0.0639
     21 N          -7.3414    0.0240   -0.8003 N.pl3   1  LIG1       -0.3426
     22 H          -8.2664    0.1314   -1.1853 H       1  LIG1        0.1437
     23 H          -6.7408   -0.7074   -1.1563 H       1  LIG1        0.1437
     24 N          -4.5662    5.7831    1.1503 N.1     1  LIG1       -0.1908
     25 C          -5.0767    4.8065    0.7967 C.1     1  LIG1        0.1013
     26 C          -9.3292    4.4443    0.3775 C.ar    1  LIG1        0.1262
     27 C          -7.9658    4.5829   -0.0132 C.ar    1  LIG1        0.0424
     28 C          -7.5773    5.8436   -0.4242 C.ar    1  LIG1       -0.0298
     29 C          -8.4696    6.9204   -0.4406 C.ar    1  LIG1        0.0785
     30 C          -9.7928    6.6953   -0.0177 C.ar    1  LIG1        0.0937
     31 N         -10.1731    5.4831    0.3913 N.ar    1  LIG1       -0.2304
     32 H          -6.5594    6.0233   -0.7457 H       1  LIG1        0.0639
     33 N          -9.8419    3.2631    0.7939 N.pl3   1  LIG1       -0.3426
     34 H         -10.8433    3.2344    0.9015 H       1  LIG1        0.1437
     35 H          -9.3504    2.4290    0.5033 H       1  LIG1        0.1437
     36 N          -7.5359    9.2154   -1.1844 N.1     1  LIG1       -0.1908
     37 C          -7.9737    8.1995   -0.8443 C.1     1  LIG1        0.1013
     38 C         -11.8215    7.8344    1.0161 C.ar    1  LIG1        0.1255
     39 C         -10.8288    7.7554   -0.0077 C.ar    1  LIG1        0.0424
     40 C         -10.8898    8.7046   -1.0145 C.ar    1  LIG1       -0.0304
     41 C         -11.8617    9.7073   -0.9891 C.ar    1  LIG1        0.0706
     42 C         -12.7471    9.7204    0.0900 C.ar    1  LIG1        0.0471
     43 N         -12.7343    8.8191    1.0543 N.ar    1  LIG1       -0.2388
     44 H         -10.1884    8.6761   -1.8387 H       1  LIG1        0.0638
     45 H         -13.5064   10.4956    0.1589 H       1  LIG1        0.0843
     46 N         -11.8823    6.9464    2.0328 N.pl3   1  LIG1       -0.3426
     47 H         -12.6733    7.0434    2.6490 H       1  LIG1        0.1437
     48 H         -11.4446    6.0472    1.8967 H       1  LIG1        0.1437
     49 N         -12.0649   11.4699   -2.8707 N.1     1  LIG1       -0.1908
     50 C         -11.9639   10.6819   -2.0291 C.1     1  LIG1        0.1007
@<TRIPOS>BOND
     1    10     9    1
     2    49    50    3
     3    11     9    1
     4     9     1    1
     5    50    41    1
     6    44    40    1
     7     1     6   ar
     8     1     2   ar
     9    22    21    1
    10    36    37    3
    11    23    21    1
    12     6     5   ar
    13    40    41   ar
    14    40    39   ar
    15    41    42   ar
    16    37    29    1
    17    21    14    1
    18    32    28    1
    19    29    28   ar
    20    29    30   ar
    21    28    27   ar
    22     8     2    1
    23    14    19   ar
    24    14    15   ar
    25    19    18   ar
    26     2     3   ar
    27     5    15    1
    28     5     4   ar
    29    15    16   ar
    30    30    39    1
    31    30    31   ar
    32    27    18    1
    33    27    26   ar
    34    39    38   ar
    35    18    17   ar
    36    42    45    1
    37    42    43   ar
    38    16    17   ar
    39    16    20    1
    40    17    25    1
    41    26    31   ar
    42    26    33    1
    43    35    33    1
    44     3     4   ar
    45     3     7    1
    46    33    34    1
    47    25    24    3
    48     4    13    1
    49    38    43   ar
    50    38    46    1
    51    48    46    1
    52    46    47    1
    53    13    12    3
