@<TRIPOS>MOLECULE
mol_data/opt/cam/geoms/mol2/6hd6hd6hd6hd-.out
 50 53 0 0 0
SMALL
GASTEIGER

@<TRIPOS>ATOM
      1 C          -3.9126   -1.9675   -1.0695 C.ar    1  LIG1        0.1169
      2 C          -2.9330   -2.2772   -0.1073 C.ar    1  LIG1       -0.0208
      3 C          -2.7848   -1.4203    0.9518 C.ar    1  LIG1       -0.0390
      4 C          -3.5753   -0.2628    1.0470 C.ar    1  LIG1        0.0779
      5 C          -4.5025   -0.0057    0.0226 C.ar    1  LIG1        0.0937
      6 N          -4.6638   -0.8657   -0.9911 N.ar    1  LIG1       -0.2310
      7 H          -2.0620   -1.6298    1.7324 H       1  LIG1        0.0632
      8 H          -2.3327   -3.1750   -0.1959 H       1  LIG1        0.0652
      9 N          -4.1618   -2.7967   -2.1195 N.pl3   1  LIG1       -0.3431
     10 H          -4.7166   -2.4263   -2.8743 H       1  LIG1        0.1437
     11 H          -3.5050   -3.5247   -2.3449 H       1  LIG1        0.1437
     12 N          -3.2817    1.1943    3.1637 N.1     1  LIG1       -0.1908
     13 C          -3.4303    0.5612    2.2062 C.1     1  LIG1        0.1013
     14 C          -6.6989    1.1937   -0.4603 C.ar    1  LIG1        0.1262
     15 C          -5.3493    1.2119   -0.0036 C.ar    1  LIG1        0.0424
     16 C          -4.8662    2.4368    0.4124 C.ar    1  LIG1       -0.0298
     17 C          -5.6642    3.5861    0.4052 C.ar    1  LIG1        0.0785
     18 C          -6.9945    3.4688   -0.0376 C.ar    1  LIG1        0.0937
     19 N          -7.4705    2.2872   -0.4369 N.ar    1  LIG1       -0.2304
     20 H          -3.8448    2.5309    0.7590 H       1  LIG1        0.0639
     21 N          -7.2907    0.0624   -0.9083 N.pl3   1  LIG1       -0.3426
     22 H          -8.1889    0.1814   -1.3491 H       1  LIG1        0.1437
     23 H          -6.6752   -0.6736   -1.2272 H       1  LIG1        0.1437
     24 N          -4.5926    5.7701    1.2842 N.1     1  LIG1       -0.1908
     25 C          -5.0925    4.8028    0.8918 C.1     1  LIG1        0.1013
     26 C          -9.3284    4.4704    0.1857 C.ar    1  LIG1        0.1262
     27 C          -7.9347    4.6134   -0.0966 C.ar    1  LIG1        0.0424
     28 C          -7.5095    5.8830   -0.4362 C.ar    1  LIG1       -0.0298
     29 C          -8.3974    6.9642   -0.4758 C.ar    1  LIG1        0.0785
     30 C          -9.7478    6.7261   -0.1624 C.ar    1  LIG1        0.0937
     31 N         -10.1725    5.5112    0.1641 N.ar    1  LIG1       -0.2304
     32 H          -6.4697    6.0676   -0.6729 H       1  LIG1        0.0639
     33 N          -9.8774    3.2864    0.5242 N.pl3   1  LIG1       -0.3426
     34 H         -10.8802    3.2767    0.6212 H       1  LIG1        0.1437
     35 H          -9.3726    2.4470    0.2794 H       1  LIG1        0.1437
     36 N          -7.4929    9.3125   -1.0719 N.1     1  LIG1       -0.1908
     37 C          -7.8975    8.2661   -0.7854 C.1     1  LIG1        0.1013
     38 C         -11.0901    8.6826   -1.1712 C.ar    1  LIG1        0.1255
     39 C         -10.7863    7.7894   -0.1104 C.ar    1  LIG1        0.0424
     40 C         -11.5790    7.8552    1.0219 C.ar    1  LIG1       -0.0304
     41 C         -12.5920    8.8093    1.1250 C.ar    1  LIG1        0.0706
     42 C         -12.7767    9.6680    0.0392 C.ar    1  LIG1        0.0471
     43 N         -12.0617    9.6034   -1.0683 N.ar    1  LIG1       -0.2388
     44 H         -11.4022    7.1542    1.8292 H       1  LIG1        0.0638
     45 H         -13.5445   10.4366    0.0782 H       1  LIG1        0.0843
     46 N         -10.4891    8.6283   -2.3919 N.pl3   1  LIG1       -0.3426
     47 H          -9.5672    8.2371   -2.4825 H       1  LIG1        0.1437
     48 H         -10.6874    9.4234   -2.9807 H       1  LIG1        0.1437
     49 N         -14.0832    8.9922    3.2304 N.1     1  LIG1       -0.1908
     50 C         -13.4133    8.9098    2.2902 C.1     1  LIG1        0.1007
@<TRIPOS>BOND
     1    48    46    1
     2    10     9    1
     3    47    46    1
     4    46    38    1
     5    11     9    1
     6     9     1    1
     7    22    21    1
     8    23    21    1
     9    38    43   ar
    10    38    39   ar
    11    36    37    3
    12     1     6   ar
    13     1     2   ar
    14    43    42   ar
    15     6     5   ar
    16    21    14    1
    17    37    29    1
    18    32    28    1
    19    29    28   ar
    20    29    30   ar
    21    14    19   ar
    22    14    15   ar
    23    19    18   ar
    24    28    27   ar
    25     8     2    1
    26    30    39    1
    27    30    31   ar
    28    39    40   ar
    29     2     3   ar
    30    27    18    1
    31    27    26   ar
    32    18    17   ar
    33    15     5    1
    34    15    16   ar
    35     5     4   ar
    36    42    45    1
    37    42    41   ar
    38    31    26   ar
    39    26    33    1
    40    35    33    1
    41    17    16   ar
    42    17    25    1
    43    16    20    1
    44    33    34    1
    45    25    24    3
    46     3     4   ar
    47     3     7    1
    48    40    41   ar
    49    40    44    1
    50     4    13    1
    51    41    50    1
    52    13    12    3
    53    50    49    3
