@<TRIPOS>MOLECULE
mol_data/opt/cam/geoms/mol2/6hd6hd6hd-6hd.out
 50 53 0 0 0
SMALL
GASTEIGER

@<TRIPOS>ATOM
      1 C          -4.2212   -2.1362   -0.8523 C.ar    1  LIG1        0.1169
      2 C          -3.0474   -2.3448   -0.1042 C.ar    1  LIG1       -0.0208
      3 C          -2.6333   -1.3370    0.7271 C.ar    1  LIG1       -0.0390
      4 C          -3.3538   -0.1332    0.8012 C.ar    1  LIG1        0.0779
      5 C          -4.4936    0.0101   -0.0093 C.ar    1  LIG1        0.0937
      6 N          -4.9087   -0.9923   -0.7938 N.ar    1  LIG1       -0.2310
      7 H          -1.7497   -1.4602    1.3434 H       1  LIG1        0.0632
      8 H          -2.5045   -3.2801   -0.1724 H       1  LIG1        0.0652
      9 N          -4.7310   -3.1077   -1.6571 N.pl3   1  LIG1       -0.3431
     10 H          -5.4453   -2.8335   -2.3122 H       1  LIG1        0.1437
     11 H          -4.1661   -3.9051   -1.8958 H       1  LIG1        0.1437
     12 N          -2.5256    1.6297    2.5030 N.1     1  LIG1       -0.1908
     13 C          -2.9158    0.8581    1.7335 C.1     1  LIG1        0.1013
     14 C          -6.7221    1.2398   -0.1831 C.ar    1  LIG1        0.1262
     15 C          -5.3000    1.2549   -0.0484 C.ar    1  LIG1        0.0424
     16 C          -4.7087    2.4991    0.0394 C.ar    1  LIG1       -0.0298
     17 C          -5.4721    3.6727    0.0229 C.ar    1  LIG1        0.0785
     18 C          -6.8679    3.5532   -0.0918 C.ar    1  LIG1        0.0937
     19 N          -7.4522    2.3638   -0.1809 N.ar    1  LIG1       -0.2304
     20 H          -3.6337    2.5894    0.1313 H       1  LIG1        0.0639
     21 N          -7.4221    0.0916   -0.2878 N.pl3   1  LIG1       -0.3426
     22 H          -8.4079    0.1915   -0.4705 H       1  LIG1        0.1437
     23 H          -6.9239   -0.7339   -0.5883 H       1  LIG1        0.1437
     24 N          -4.2846    5.9585    0.2512 N.1     1  LIG1       -0.1908
     25 C          -4.8190    4.9346    0.1685 C.1     1  LIG1        0.1013
     26 C          -7.7413    5.8361   -0.9283 C.ar    1  LIG1        0.1262
     27 C          -7.8029    4.7093   -0.0657 C.ar    1  LIG1        0.0424
     28 C          -8.8694    4.6556    0.8082 C.ar    1  LIG1       -0.0298
     29 C          -9.8156    5.6834    0.8652 C.ar    1  LIG1        0.0785
     30 C          -9.6702    6.7619   -0.0273 C.ar    1  LIG1        0.0937
     31 N          -8.6551    6.8151   -0.8809 N.ar    1  LIG1       -0.2304
     32 H          -8.9636    3.8023    1.4698 H       1  LIG1        0.0639
     33 N          -6.8172    5.9739   -1.9133 N.pl3   1  LIG1       -0.3426
     34 H          -5.9324    5.5000   -1.8540 H       1  LIG1        0.1437
     35 H          -6.8093    6.8808   -2.3554 H       1  LIG1        0.1437
     36 N         -11.6952    5.5537    2.6375 N.1     1  LIG1       -0.1908
     37 C         -10.8505    5.6281    1.8491 C.1     1  LIG1        0.1013
     38 C         -11.9900    7.8571   -0.2033 C.ar    1  LIG1        0.1255
     39 C         -10.5813    7.9363   -0.0486 C.ar    1  LIG1        0.0424
     40 C         -10.0173    9.1980    0.0057 C.ar    1  LIG1       -0.0304
     41 C         -10.8248   10.3363   -0.0249 C.ar    1  LIG1        0.0706
     42 C         -12.2040   10.1420   -0.1267 C.ar    1  LIG1        0.0471
     43 N         -12.7666    8.9515   -0.2216 N.ar    1  LIG1       -0.2388
     44 H          -8.9398    9.2915    0.0762 H       1  LIG1        0.0638
     45 H         -12.8740   10.9982   -0.1353 H       1  LIG1        0.0843
     46 N         -12.6506    6.6878   -0.4190 N.pl3   1  LIG1       -0.3426
     47 H         -13.6539    6.7504   -0.3389 H       1  LIG1        0.1437
     48 H         -12.2327    5.8102   -0.1637 H       1  LIG1        0.1437
     49 N          -9.8304   12.7203    0.1058 N.1     1  LIG1       -0.1908
     50 C         -10.2723   11.6521    0.0489 C.1     1  LIG1        0.1007
@<TRIPOS>BOND
     1    35    33    1
     2    10     9    1
     3    33    34    1
     4    33    26    1
     5    11     9    1
     6     9     1    1
     7    26    31   ar
     8    26    27   ar
     9    31    30   ar
    10     1     6   ar
    11     1     2   ar
    12     6     5   ar
    13    23    21    1
    14    22    21    1
    15    46    47    1
    16    46    38    1
    17    46    48    1
    18    21    14    1
    19    43    38   ar
    20    43    42   ar
    21    38    39   ar
    22    14    19   ar
    23    14    15   ar
    24    19    18   ar
    25     8     2    1
    26    45    42    1
    27    42    41   ar
    28     2     3   ar
    29    18    27    1
    30    18    17   ar
    31    27    28   ar
    32    39    30    1
    33    39    40   ar
    34    15     5    1
    35    15    16   ar
    36    30    29   ar
    37    41    40   ar
    38    41    50    1
    39     5     4   ar
    40    40    44    1
    41    17    16   ar
    42    17    25    1
    43    16    20    1
    44    50    49    3
    45    25    24    3
    46     3     4   ar
    47     3     7    1
    48     4    13    1
    49    28    29   ar
    50    28    32    1
    51    29    37    1
    52    13    12    3
    53    37    36    3
