@<TRIPOS>MOLECULE
mol_data/opt/cam/geoms/mol2/6hd6hd-6hd.out
 38 40 0 0 0
SMALL
GASTEIGER

@<TRIPOS>ATOM
      1 C          -4.4441   -2.1180   -0.4335 C.ar    1  LIG1        0.1169
      2 C          -3.0795   -2.2252   -0.0903 C.ar    1  LIG1       -0.0208
      3 C          -2.4263   -1.0873    0.3028 C.ar    1  LIG1       -0.0390
      4 C          -3.1090    0.1417    0.3364 C.ar    1  LIG1        0.0779
      5 C          -4.4563    0.1613   -0.0628 C.ar    1  LIG1        0.0937
      6 N          -5.0965   -0.9506   -0.4230 N.ar    1  LIG1       -0.2310
      7 H          -1.3850   -1.1244    0.6033 H       1  LIG1        0.0632
      8 H          -2.5738   -3.1832   -0.1216 H       1  LIG1        0.0652
      9 N          -5.1724   -3.2049   -0.7838 N.pl3   1  LIG1       -0.3431
     10 H          -6.1148   -3.0558   -1.1046 H       1  LIG1        0.1437
     11 H          -4.7412   -4.1007   -0.9287 H       1  LIG1        0.1437
     12 N          -1.8683    2.2405    1.1992 N.1     1  LIG1       -0.1908
     13 C          -2.4359    1.3041    0.8225 C.1     1  LIG1        0.1013
     14 C          -4.9666    2.6024   -0.7206 C.ar    1  LIG1        0.1262
     15 C          -5.2921    1.3910   -0.0543 C.ar    1  LIG1        0.0424
     16 C          -6.5125    1.3452    0.5864 C.ar    1  LIG1       -0.0298
     17 C          -7.3611    2.4565    0.6141 C.ar    1  LIG1        0.0785
     18 C          -6.9469    3.6182   -0.0644 C.ar    1  LIG1        0.0937
     19 N          -5.7817    3.6655   -0.6990 N.ar    1  LIG1       -0.2304
     20 H          -6.8080    0.4316    1.0893 H       1  LIG1        0.0639
     21 N          -3.8576    2.7547   -1.4857 N.pl3   1  LIG1       -0.3426
     22 H          -3.0679    2.1425   -1.3803 H       1  LIG1        0.1437
     23 H          -3.6710    3.6978   -1.7897 H       1  LIG1        0.1437
     24 N          -9.5601    2.3104    1.9683 N.1     1  LIG1       -0.1908
     25 C          -8.5727    2.3917    1.3691 C.1     1  LIG1        0.1013
     26 C          -9.0804    4.9858   -0.4999 C.ar    1  LIG1        0.1255
     27 C          -7.7296    4.8819   -0.0766 C.ar    1  LIG1        0.0424
     28 C          -7.0802    6.0523    0.2717 C.ar    1  LIG1       -0.0304
     29 C          -7.7631    7.2697    0.2646 C.ar    1  LIG1        0.0706
     30 C          -9.1057    7.2502   -0.1194 C.ar    1  LIG1        0.0471
     31 N          -9.7394    6.1550   -0.4959 N.ar    1  LIG1       -0.2388
     32 H          -6.0346    6.0117    0.5540 H       1  LIG1        0.0638
     33 H          -9.6833    8.1712   -0.1225 H       1  LIG1        0.0843
     34 N          -9.7834    3.9387   -1.0084 N.pl3   1  LIG1       -0.3426
     35 H         -10.7730    4.1042   -1.1091 H       1  LIG1        0.1437
     36 H          -9.5014    2.9929   -0.8187 H       1  LIG1        0.1437
     37 N          -6.6101    9.4850    0.9377 N.1     1  LIG1       -0.1908
     38 C          -7.1238    8.4920    0.6382 C.1     1  LIG1        0.1007
@<TRIPOS>BOND
     1    23    21    1
     2    21    22    1
     3    21    14    1
     4    35    34    1
     5    10     9    1
     6    34    36    1
     7    34    26    1
     8    11     9    1
     9     9     1    1
    10    14    19   ar
    11    14    15   ar
    12    19    18   ar
    13    26    31   ar
    14    26    27   ar
    15    31    30   ar
    16     1     6   ar
    17     1     2   ar
    18     6     5   ar
    19    33    30    1
    20     8     2    1
    21    30    29   ar
    22     2     3   ar
    23    27    18    1
    24    27    28   ar
    25    18    17   ar
    26     5    15    1
    27     5     4   ar
    28    15    16   ar
    29    29    28   ar
    30    29    38    1
    31    28    32    1
    32     3     4   ar
    33     3     7    1
    34     4    13    1
    35    16    17   ar
    36    16    20    1
    37    17    25    1
    38    38    37    3
    39    13    12    3
    40    25    24    3
