@<TRIPOS>MOLECULE
mol_data/opt/cam/geoms/mol2/6hd6hd-4hd6hd.out
 51 54 0 0 0
SMALL
GASTEIGER

@<TRIPOS>ATOM
      1 C          -4.4955   -2.2518   -0.1058 C.ar    1  LIG1        0.1169
      2 C          -3.0894   -2.3669   -0.0608 C.ar    1  LIG1       -0.0208
      3 C          -2.3533   -1.2136    0.0011 C.ar    1  LIG1       -0.0390
      4 C          -2.9987    0.0361   -0.0034 C.ar    1  LIG1        0.0779
      5 C          -4.4017    0.0553   -0.0915 C.ar    1  LIG1        0.0937
      6 N          -5.1173   -1.0678   -0.1252 N.ar    1  LIG1       -0.2310
      7 H          -1.2715   -1.2523    0.0666 H       1  LIG1        0.0632
      8 H          -2.6130   -3.3403   -0.0625 H       1  LIG1        0.0652
      9 N          -5.2931   -3.3448   -0.1527 N.pl3   1  LIG1       -0.3431
     10 H          -6.2887   -3.2021   -0.1073 H       1  LIG1        0.1437
     11 H          -4.9241   -4.2691   -0.0148 H       1  LIG1        0.1437
     12 N          -1.5816    2.1865    0.2339 N.1     1  LIG1       -0.1908
     13 C          -2.2237    1.2274    0.1402 C.1     1  LIG1        0.1013
     14 C          -5.0078    2.4025   -0.9625 C.ar    1  LIG1        0.1262
     15 C          -5.1998    1.3091   -0.0804 C.ar    1  LIG1        0.0424
     16 C          -6.2498    1.4114    0.8080 C.ar    1  LIG1       -0.0298
     17 C          -7.0504    2.5555    0.8689 C.ar    1  LIG1        0.0785
     18 C          -6.7693    3.6065   -0.0235 C.ar    1  LIG1        0.0922
     19 N          -5.7618    3.5073   -0.8928 N.ar    1  LIG1       -0.2304
     20 H          -6.4474    0.5863    1.4823 H       1  LIG1        0.0639
     21 N          -4.1082    2.3829   -1.9779 N.pl3   1  LIG1       -0.3426
     22 H          -3.3483    1.7258   -1.9838 H       1  LIG1        0.1437
     23 H          -3.9718    3.2511   -2.4699 H       1  LIG1        0.1437
     24 N          -8.8715    2.6184    2.7048 N.1     1  LIG1       -0.1908
     25 C          -8.0662    2.6176    1.8735 C.1     1  LIG1        0.1013
     26 C          -6.9394    6.1291   -0.2243 C.ar    1  LIG1        0.0345
     27 C          -7.7464    7.2800   -0.2111 C.ar    1  LIG1       -0.0313
     28 C          -7.5596    4.8627   -0.0569 C.ar    1  LIG1        0.0235
     29 C          -9.1221    7.2270   -0.0808 C.ar    1  LIG1        0.0046
     30 H          -7.2700    8.2476   -0.3337 H       1  LIG1        0.0643
     31 C          -8.9428    4.8150    0.0628 C.ar    1  LIG1       -0.0328
     32 C          -9.7345    5.9632    0.0498 C.ar    1  LIG1        0.0603
     33 H          -9.4371    3.8577    0.1706 H       1  LIG1        0.0638
     34 N          -5.5887    6.2564   -0.3509 N.pl3   1  LIG1       -0.3574
     35 H          -5.0931    5.4465   -0.6954 H       1  LIG1        0.1423
     36 H          -5.2259    7.1609   -0.6035 H       1  LIG1        0.1423
     37 N         -12.3032    5.7218    0.2673 N.1     1  LIG1       -0.1908
     38 C         -11.1536    5.8336    0.1882 C.1     1  LIG1        0.0998
     39 C         -10.8438    8.8323   -1.0665 C.ar    1  LIG1        0.1240
     40 C          -9.8980    8.4952   -0.0615 C.ar    1  LIG1        0.0242
     41 C          -9.6728    9.4252    0.9337 C.ar    1  LIG1       -0.0318
     42 C         -10.3755   10.6356    0.9439 C.ar    1  LIG1        0.0705
     43 C         -11.2958   10.8532   -0.0811 C.ar    1  LIG1        0.0471
     44 N         -11.5223    9.9869   -1.0544 N.ar    1  LIG1       -0.2388
     45 H          -8.9548    9.2086    1.7174 H       1  LIG1        0.0638
     46 H         -11.8717   11.7747   -0.1074 H       1  LIG1        0.0843
     47 N         -11.0759    8.0290   -2.1403 N.pl3   1  LIG1       -0.3427
     48 H         -11.8935    8.2695   -2.6794 H       1  LIG1        0.1437
     49 H         -10.8395    7.0523   -2.0907 H       1  LIG1        0.1437
     50 N          -9.9873   12.4127    2.7824 N.1     1  LIG1       -0.1908
     51 C         -10.1633   11.6151    1.9623 C.1     1  LIG1        0.1007
@<TRIPOS>BOND
     1    48    47    1
     2    23    21    1
     3    47    49    1
     4    47    39    1
     5    22    21    1
     6    21    14    1
     7    39    44   ar
     8    39    40   ar
     9    44    43   ar
    10    14    19   ar
    11    14    15   ar
    12    19    18   ar
    13    35    34    1
    14    36    34    1
    15    34    26    1
    16    30    27    1
    17    26    27   ar
    18    26    28   ar
    19    27    29   ar
    20     9    10    1
    21     9     1    1
    22     9    11    1
    23     6     1   ar
    24     6     5   ar
    25    46    43    1
    26     1     2   ar
    27     5    15    1
    28     5     4   ar
    29    43    42   ar
    30    29    40    1
    31    29    32   ar
    32    15    16   ar
    33     8     2    1
    34    40    41   ar
    35     2     3   ar
    36    28    18    1
    37    28    31   ar
    38    18    17   ar
    39     4     3   ar
    40     4    13    1
    41     3     7    1
    42    32    31   ar
    43    32    38    1
    44    31    33    1
    45    13    12    3
    46    38    37    3
    47    16    17   ar
    48    16    20    1
    49    17    25    1
    50    41    42   ar
    51    41    45    1
    52    42    51    1
    53    25    24    3
    54    51    50    3
