@<TRIPOS>MOLECULE
mol_data/opt/cam/geoms/mol2/6hd6hd-6hd-6hd.out
 50 53 0 0 0
SMALL
GASTEIGER

@<TRIPOS>ATOM
      1 C          -4.4842   -2.2460   -0.2233 C.ar    1  LIG1        0.1169
      2 C          -3.0843   -2.3640   -0.0845 C.ar    1  LIG1       -0.0208
      3 C          -2.3574   -1.2160    0.0861 C.ar    1  LIG1       -0.0390
      4 C          -3.0044    0.0330    0.0974 C.ar    1  LIG1        0.0779
      5 C          -4.3974    0.0572   -0.0885 C.ar    1  LIG1        0.0937
      6 N          -5.1063   -1.0619   -0.2281 N.ar    1  LIG1       -0.2310
      7 H          -1.2829   -1.2587    0.2259 H       1  LIG1        0.0632
      8 H          -2.6064   -3.3366   -0.1002 H       1  LIG1        0.0652
      9 N          -5.2732   -3.3347   -0.3791 N.pl3   1  LIG1       -0.3431
     10 H          -6.2698   -3.1946   -0.4058 H       1  LIG1        0.1437
     11 H          -4.9109   -4.2658   -0.2736 H       1  LIG1        0.1437
     12 N          -1.6160    2.1698    0.5397 N.1     1  LIG1       -0.1908
     13 C          -2.2455    1.2158    0.3537 C.1     1  LIG1        0.1013
     14 C          -4.9495    2.4429   -0.8886 C.ar    1  LIG1        0.1262
     15 C          -5.1981    1.3095   -0.0733 C.ar    1  LIG1        0.0424
     16 C          -6.3074    1.3701    0.7431 C.ar    1  LIG1       -0.0298
     17 C          -7.1166    2.5088    0.8003 C.ar    1  LIG1        0.0785
     18 C          -6.7802    3.5998   -0.0231 C.ar    1  LIG1        0.0937
     19 N          -5.7129    3.5415   -0.8218 N.ar    1  LIG1       -0.2304
     20 H          -6.5480    0.5147    1.3636 H       1  LIG1        0.0639
     21 N          -3.9795    2.4718   -1.8351 N.pl3   1  LIG1       -0.3426
     22 H          -3.2220    1.8121   -1.8220 H       1  LIG1        0.1437
     23 H          -3.8148    3.3581   -2.2841 H       1  LIG1        0.1437
     24 N          -9.0627    2.4791    2.5036 N.1     1  LIG1       -0.1908
     25 C          -8.1989    2.5183    1.7341 C.1     1  LIG1        0.1013
     26 C          -6.9604    6.1371   -0.2141 C.ar    1  LIG1        0.1262
     27 C          -7.5698    4.8542   -0.0602 C.ar    1  LIG1        0.0424
     28 C          -8.9462    4.8416    0.0472 C.ar    1  LIG1       -0.0298
     29 C          -9.6907    6.0270    0.0258 C.ar    1  LIG1        0.0785
     30 C          -8.9976    7.2429   -0.1143 C.ar    1  LIG1        0.0937
     31 N          -7.6741    7.2714   -0.2182 N.ar    1  LIG1       -0.2304
     32 H          -9.4785    3.9054    0.1571 H       1  LIG1        0.0639
     33 N          -5.6262    6.2901   -0.3307 N.pl3   1  LIG1       -0.3426
     34 H          -5.0820    5.4896   -0.6165 H       1  LIG1        0.1437
     35 H          -5.3017    7.2255   -0.5168 H       1  LIG1        0.1437
     36 N         -12.2598    5.9003    0.2938 N.1     1  LIG1       -0.1908
     37 C         -11.1081    5.9634    0.1918 C.1     1  LIG1        0.1013
     38 C         -10.7156    8.9639   -0.9652 C.ar    1  LIG1        0.1255
     39 C          -9.6574    8.5754   -0.1021 C.ar    1  LIG1        0.0424
     40 C          -9.1466    9.5382    0.7501 C.ar    1  LIG1       -0.0304
     41 C          -9.7038   10.8170    0.7912 C.ar    1  LIG1        0.0706
     42 C         -10.7720   11.0789   -0.0696 C.ar    1  LIG1        0.0471
     43 N         -11.2544   10.1927   -0.9205 N.ar    1  LIG1       -0.2388
     44 H          -8.3070    9.2852    1.3870 H       1  LIG1        0.0638
     45 H         -11.2481   12.0562   -0.0633 H       1  LIG1        0.0843
     46 N         -11.2099    8.1642   -1.9494 N.pl3   1  LIG1       -0.3426
     47 H         -12.0620    8.5052   -2.3684 H       1  LIG1        0.1437
     48 H         -11.1219    7.1650   -1.8811 H       1  LIG1        0.1437
     49 N          -8.8078   12.6436    2.3882 N.1     1  LIG1       -0.1908
     50 C          -9.2080   11.8241    1.6756 C.1     1  LIG1        0.1007
@<TRIPOS>BOND
     1    47    46    1
     2    23    21    1
     3    46    48    1
     4    46    38    1
     5    21    22    1
     6    21    14    1
     7    38    43   ar
     8    38    39   ar
     9    43    42   ar
    10    14    19   ar
    11    14    15   ar
    12    19    18   ar
    13    34    33    1
    14    35    33    1
    15    10     9    1
    16     9    11    1
    17     9     1    1
    18    33    26    1
    19     6     1   ar
    20     6     5   ar
    21     1     2   ar
    22    31    26   ar
    23    31    30   ar
    24    26    27   ar
    25    30    39    1
    26    30    29   ar
    27    39    40   ar
    28     8     2    1
    29     5    15    1
    30     5     4   ar
    31     2     3   ar
    32    15    16   ar
    33    42    45    1
    34    42    41   ar
    35    27    18    1
    36    27    28   ar
    37    18    17   ar
    38    29    28   ar
    39    29    37    1
    40    28    32    1
    41     3     4   ar
    42     3     7    1
    43     4    13    1
    44    37    36    3
    45    13    12    3
    46    16    17   ar
    47    16    20    1
    48    40    41   ar
    49    40    44    1
    50    41    50    1
    51    17    25    1
    52    50    49    3
    53    25    24    3
