@<TRIPOS>MOLECULE
mol_data/opt/cam/geoms/mol2/6hd6hd6hd-6hd-.out
 50 53 0 0 0
SMALL
GASTEIGER

@<TRIPOS>ATOM
      1 C          -4.2971   -2.1654   -0.8359 C.ar    1  LIG1        0.1169
      2 C          -3.1267   -2.3984   -0.0896 C.ar    1  LIG1       -0.0208
      3 C          -2.6889   -1.3983    0.7386 C.ar    1  LIG1       -0.0390
      4 C          -3.3822   -0.1784    0.8115 C.ar    1  LIG1        0.0779
      5 C          -4.5203   -0.0111    0.0027 C.ar    1  LIG1        0.0937
      6 N          -4.9585   -1.0061   -0.7788 N.ar    1  LIG1       -0.2310
      7 H          -1.8072   -1.5398    1.3537 H       1  LIG1        0.0632
      8 H          -2.6051   -3.3458   -0.1565 H       1  LIG1        0.0652
      9 N          -4.8299   -3.1267   -1.6374 N.pl3   1  LIG1       -0.3431
     10 H          -5.5414   -2.8399   -2.2902 H       1  LIG1        0.1437
     11 H          -4.2859   -3.9394   -1.8728 H       1  LIG1        0.1437
     12 N          -2.5077    1.5674    2.5077 N.1     1  LIG1       -0.1908
     13 C          -2.9190    0.8038    1.7410 C.1     1  LIG1        0.1013
     14 C          -6.7217    1.2665   -0.1830 C.ar    1  LIG1        0.1262
     15 C          -5.2998    1.2507   -0.0378 C.ar    1  LIG1        0.0424
     16 C          -4.6840    2.4821    0.0602 C.ar    1  LIG1       -0.0298
     17 C          -5.4222    3.6720    0.0444 C.ar    1  LIG1        0.0785
     18 C          -6.8197    3.5829   -0.0835 C.ar    1  LIG1        0.0937
     19 N          -7.4269    2.4063   -0.1830 N.ar    1  LIG1       -0.2304
     20 H          -3.6083    2.5498    0.1609 H       1  LIG1        0.0639
     21 N          -7.4459    0.1358   -0.2971 N.pl3   1  LIG1       -0.3426
     22 H          -8.4298    0.2562   -0.4779 H       1  LIG1        0.1437
     23 H          -6.9646   -0.7030   -0.5879 H       1  LIG1        0.1437
     24 N          -4.1905    5.9316    0.2951 N.1     1  LIG1       -0.1908
     25 C          -4.7431    4.9179    0.2043 C.1     1  LIG1        0.1013
     26 C          -7.6294    5.8991   -0.8921 C.ar    1  LIG1        0.1262
     27 C          -7.7328    4.7557   -0.0598 C.ar    1  LIG1        0.0424
     28 C          -8.8253    4.7050    0.7825 C.ar    1  LIG1       -0.0298
     29 C          -9.7573    5.7437    0.8418 C.ar    1  LIG1        0.0785
     30 C          -9.5701    6.8491   -0.0101 C.ar    1  LIG1        0.0937
     31 N          -8.5173    6.9000   -0.8276 N.ar    1  LIG1       -0.2304
     32 H          -8.9549    3.8368    1.4180 H       1  LIG1        0.0639
     33 N          -6.6892    6.0308   -1.8649 N.pl3   1  LIG1       -0.3426
     34 H          -5.8161    5.5367   -1.7998 H       1  LIG1        0.1437
     35 H          -6.6555    6.9345   -2.3102 H       1  LIG1        0.1437
     36 N         -11.6479    5.5254    2.5937 N.1     1  LIG1       -0.1908
     37 C         -10.8131    5.6484    1.8014 C.1     1  LIG1        0.1013
     38 C         -10.0604    9.3392   -0.2315 C.ar    1  LIG1        0.1255
     39 C         -10.5092    7.9953   -0.0549 C.ar    1  LIG1        0.0424
     40 C         -11.8758    7.7994    0.0526 C.ar    1  LIG1       -0.0304
     41 C         -12.7545    8.8848    0.0254 C.ar    1  LIG1        0.0706
     42 C         -12.2003   10.1600   -0.0980 C.ar    1  LIG1        0.0471
     43 N         -10.9056   10.3831   -0.2259 N.ar    1  LIG1       -0.2388
     44 H         -12.2804    6.7999    0.1510 H       1  LIG1        0.0638
     45 H         -12.8472   11.0339   -0.1041 H       1  LIG1        0.0843
     46 N          -8.7535    9.6494   -0.3755 N.pl3   1  LIG1       -0.3426
     47 H          -8.1279    8.9200   -0.6828 H       1  LIG1        0.1437
     48 H          -8.5529   10.6151   -0.5800 H       1  LIG1        0.1437
     49 N         -15.3184    8.5761    0.1664 N.1     1  LIG1       -0.1908
     50 C         -14.1699    8.7079    0.1093 C.1     1  LIG1        0.1007
@<TRIPOS>BOND
     1    35    33    1
     2    10     9    1
     3    11     9    1
     4    33    34    1
     5    33    26    1
     6     9     1    1
     7    26    31   ar
     8    26    27   ar
     9     1     6   ar
    10     1     2   ar
    11    31    30   ar
    12     6     5   ar
    13    47    46    1
    14    23    21    1
    15    48    46    1
    16    22    21    1
    17    46    38    1
    18    21    14    1
    19    38    43   ar
    20    38    39   ar
    21    43    42   ar
    22    19    14   ar
    23    19    18   ar
    24    14    15   ar
    25     8     2    1
    26    45    42    1
    27    42    41   ar
    28     2     3   ar
    29    18    27    1
    30    18    17   ar
    31    27    28   ar
    32    39    30    1
    33    39    40   ar
    34    15     5    1
    35    15    16   ar
    36    30    29   ar
    37     5     4   ar
    38    41    40   ar
    39    41    50    1
    40    17    16   ar
    41    17    25    1
    42    40    44    1
    43    16    20    1
    44    50    49    3
    45    25    24    3
    46     3     4   ar
    47     3     7    1
    48    28    29   ar
    49    28    32    1
    50     4    13    1
    51    29    37    1
    52    13    12    3
    53    37    36    3
