@<TRIPOS>MOLECULE
mol_data/opt/cam/geoms/mol2/6he13de13ll12de-.out
 52 55 0 0 0
SMALL
GASTEIGER

@<TRIPOS>ATOM
      1 C          -4.6045   -2.0671   -0.3630 C.ar    1  LIG1        0.1169
      2 C          -3.2326   -2.2219   -0.6401 C.ar    1  LIG1       -0.0209
      3 C          -2.4571   -1.0927   -0.6980 C.ar    1  LIG1       -0.0410
      4 C          -3.0081    0.1792   -0.4519 C.ar    1  LIG1        0.0522
      5 C          -4.3663    0.2198   -0.1099 C.ar    1  LIG1        0.1058
      6 N          -5.1421   -0.8785   -0.1075 N.ar    1  LIG1       -0.2297
      7 H          -1.4045   -1.1610   -0.9488 H       1  LIG1        0.0631
      8 H          -2.8123   -3.2053   -0.8176 H       1  LIG1        0.0652
      9 N          -5.4413   -3.1483   -0.3066 N.pl3   1  LIG1       -0.3431
     10 H          -6.4274   -2.9465   -0.2718 H       1  LIG1        0.1437
     11 H          -5.1680   -4.0019   -0.7635 H       1  LIG1        0.1437
     12 C          -2.1960    1.3350   -0.6424 C.1     1  LIG1       -0.0675
     13 C          -1.4744    2.2756   -0.8493 C.1     1  LIG1       -0.1138
     14 H          -0.8559    3.1337   -0.9797 H       1  LIG1        0.1232
     15 C          -5.1112    1.4456    0.2082 C.ar    1  LIG1        0.0855
     16 C          -4.8260    2.6702    0.7998 C.ar    1  LIG1        0.0945
     17 C          -6.0433    3.4276    0.8457 C.ar    1  LIG1        0.0695
     18 C          -7.0339    2.6353    0.2843 C.ar    1  LIG1        0.0840
     19 N          -6.4455    1.4550   -0.0751 N.ar    1  LIG1       -0.3497
     20 H          -6.8910    0.6606   -0.5101 H       1  LIG1        0.1661
     21 N          -2.6855    3.4998    1.9691 N.1     1  LIG1       -0.1908
     22 C          -3.6238    3.1072    1.4175 C.1     1  LIG1        0.1026
     23 C          -6.2021    4.7180    1.4114 C.1     1  LIG1       -0.0662
     24 C          -6.3247    5.8135    1.8935 C.1     1  LIG1       -0.1138
     25 H          -6.4349    6.7818    2.3242 H       1  LIG1        0.1232
     26 C          -8.4513    2.8557    0.0957 C.ar    1  LIG1        0.1106
     27 C          -9.1766    3.9774   -0.2753 C.ar    1  LIG1        0.1891
     28 C         -10.5466    3.6064   -0.3260 C.ar    1  LIG1        0.1907
     29 C         -10.6305    2.2698    0.0205 C.ar    1  LIG1        0.1298
     30 N          -9.3442    1.8160    0.2238 N.ar    1  LIG1       -0.3446
     31 H          -9.1409    0.9525    0.7016 H       1  LIG1        0.1663
     32 O          -8.7257    5.2249   -0.5664 O.3     1  LIG1       -0.4895
     33 C          -7.8780    5.3249   -1.7051 C.3     1  LIG1        0.0791
     34 H          -7.6919    6.3882   -1.8557 H       1  LIG1        0.0660
     35 H          -6.9241    4.8164   -1.5391 H       1  LIG1        0.0660
     36 H          -8.3670    4.9089   -2.5924 H       1  LIG1        0.0660
     37 O         -11.5899    4.3469   -0.7509 O.3     1  LIG1       -0.4894
     38 C         -11.7979    5.5878   -0.0727 C.3     1  LIG1        0.0791
     39 H         -12.6568    6.0517   -0.5549 H       1  LIG1        0.0660
     40 H         -12.0363    5.4108    0.9802 H       1  LIG1        0.0660
     41 H         -10.9171    6.2274   -0.1580 H       1  LIG1        0.0660
     42 C         -11.7550    1.3908    0.1538 C.ar    1  LIG1        0.1731
     43 C         -13.1123    1.5548    0.2804 C.ar    1  LIG1        0.1143
     44 C         -13.6748    0.2255    0.4026 C.ar    1  LIG1        0.0804
     45 C         -12.6213   -0.6254    0.3526 C.ar    1  LIG1        0.1093
     46 O         -11.4599    0.0639    0.2016 O.2     1  LIG1       -0.4587
     47 H         -12.5436   -1.6985    0.4071 H       1  LIG1        0.1042
     48 N         -14.4935    3.7194    0.4708 N.1     1  LIG1       -0.1907
     49 C         -13.8521    2.7619    0.3647 C.1     1  LIG1        0.1043
     50 C         -15.0460   -0.1093    0.5550 C.1     1  LIG1       -0.0652
     51 C         -16.2098   -0.3827    0.6843 C.1     1  LIG1       -0.1138
     52 H         -17.2434   -0.6166    0.7989 H       1  LIG1        0.1232
@<TRIPOS>BOND
     1    36    33    1
     2    34    33    1
     3    33    35    1
     4    33    32    1
     5    14    13    1
     6     7     3    1
     7    13    12    3
     8     8     2    1
     9    11     9    1
    10    37    28    1
    11    37    38    1
    12     3     2   ar
    13     3     4   ar
    14    12     4    1
    15     2     1   ar
    16    32    27    1
    17    39    38    1
    18    20    19    1
    19     4     5   ar
    20     1     9    1
    21     1     6   ar
    22    28    27   ar
    23    28    29   ar
    24     9    10    1
    25    27    26   ar
    26    41    38    1
    27     5     6   ar
    28     5    15    1
    29    19    15   ar
    30    19    18   ar
    31    38    40    1
    32    29    42    1
    33    29    30   ar
    34    26    30   ar
    35    26    18    1
    36    42    46   ar
    37    42    43   ar
    38    46    45   ar
    39    15    16   ar
    40    30    31    1
    41    43    49    1
    42    43    44   ar
    43    18    17   ar
    44    45    44   ar
    45    45    47    1
    46    49    48    3
    47    44    50    1
    48    50    51    3
    49    51    52    1
    50    16    17   ar
    51    16    22    1
    52    17    23    1
    53    23    24    3
    54    22    21    3
    55    24    25    1
