@<TRIPOS>MOLECULE
mol_data/opt/cam/geoms/mol2/6he13da-12hh12fl.out
 47 50 0 0 0
SMALL
GASTEIGER

@<TRIPOS>ATOM
      1 C          -4.7397   -2.0142    0.2249 C.ar    1  LIG1        0.1169
      2 C          -3.3984   -2.2283   -0.1420 C.ar    1  LIG1       -0.0209
      3 C          -2.6439   -1.1323   -0.4779 C.ar    1  LIG1       -0.0410
      4 C          -3.1838    0.1651   -0.4223 C.ar    1  LIG1        0.0522
      5 C          -4.5086    0.2801    0.0278 C.ar    1  LIG1        0.1058
      6 N          -5.2648   -0.7964    0.3035 N.ar    1  LIG1       -0.2297
      7 H          -1.6175   -1.2519   -0.8066 H       1  LIG1        0.0631
      8 H          -2.9849   -3.2301   -0.1709 H       1  LIG1        0.0652
      9 N          -5.5606   -3.0597    0.5610 N.pl3   1  LIG1       -0.3431
     10 H          -6.5398   -2.8346    0.6387 H       1  LIG1        0.1437
     11 H          -5.3362   -3.9783    0.2166 H       1  LIG1        0.1437
     12 C          -2.4039    1.2600   -0.8971 C.1     1  LIG1       -0.0675
     13 C          -1.7120    2.1397   -1.3401 C.1     1  LIG1       -0.1138
     14 H          -1.1164    2.9551   -1.6800 H       1  LIG1        0.1232
     15 C          -5.2326    1.5460    0.1808 C.ar    1  LIG1        0.0843
     16 C          -4.9052    2.8574    0.5267 C.ar    1  LIG1        0.0792
     17 C          -6.1103    3.6103    0.5616 C.ar    1  LIG1       -0.0152
     18 C          -7.1400    2.7480    0.2454 C.ar    1  LIG1        0.0858
     19 N          -6.5881    1.5188    0.0257 N.ar    1  LIG1       -0.3495
     20 H          -7.0935    0.6616   -0.1433 H       1  LIG1        0.1661
     21 N          -2.6758    3.8856    1.3121 N.1     1  LIG1       -0.1908
     22 C          -3.6521    3.3904    0.9355 C.1     1  LIG1        0.1014
     23 H          -6.2047    4.6480    0.8404 H       1  LIG1        0.0653
     24 C          -8.5537    2.9697    0.1309 C.ar    1  LIG1        0.1743
     25 C          -9.3230    4.0986    0.1445 C.ar    1  LIG1        0.0942
     26 C         -10.6788    3.6662   -0.0211 C.ar    1  LIG1        0.0959
     27 C         -10.6369    2.3005   -0.1101 C.ar    1  LIG1        0.1968
     28 O          -9.3510    1.8641   -0.0198 O.2     1  LIG1       -0.4463
     29 N          -8.9250    5.4178    0.3199 N.pl3   1  LIG1       -0.3535
     30 H          -8.1576    5.7152   -0.2676 H       1  LIG1        0.1425
     31 H          -9.7097    6.0550    0.2780 H       1  LIG1        0.1425
     32 N         -11.7674    4.5592   -0.0618 N.pl3   1  LIG1       -0.3535
     33 H         -11.8801    4.9736   -0.9816 H       1  LIG1        0.1425
     34 H         -12.6385    4.1126    0.2050 H       1  LIG1        0.1425
     35 C         -11.6670    1.3067   -0.2520 C.ar    1  LIG1        0.2165
     36 C         -13.0115    1.3293   -0.0267 C.ar    1  LIG1        0.2085
     37 C         -13.5085    0.0395   -0.3744 C.ar    1  LIG1        0.2002
     38 C         -12.4404   -0.6952   -0.7801 C.ar    1  LIG1        0.1381
     39 O         -11.3153    0.0707   -0.7147 O.2     1  LIG1       -0.4522
     40 H         -12.3153   -1.7081   -1.1221 H       1  LIG1        0.1069
     41 O         -13.7582    2.3590    0.4552 O.3     1  LIG1       -0.5007
     42 H         -14.6646    2.0417    0.5653 H       1  LIG1        0.2924
     43 O         -14.8249   -0.2444   -0.2465 O.3     1  LIG1       -0.4888
     44 C         -15.1865   -1.5730   -0.5755 C.3     1  LIG1        0.0791
     45 H         -16.2612   -1.6569   -0.4202 H       1  LIG1        0.0660
     46 H         -14.9491   -1.7919   -1.6231 H       1  LIG1        0.0660
     47 H         -14.6643   -2.2888    0.0699 H       1  LIG1        0.0660
@<TRIPOS>BOND
     1    14    13    1
     2    46    44    1
     3    13    12    3
     4    40    38    1
     5    33    32    1
     6    12     4    1
     7     7     3    1
     8    38    39   ar
     9    38    37   ar
    10    39    35   ar
    11    44    45    1
    12    44    43    1
    13    44    47    1
    14     3     4   ar
    15     3     2   ar
    16     4     5   ar
    17    37    43    1
    18    37    36   ar
    19    30    29    1
    20    35    27    1
    21    35    36   ar
    22     8     2    1
    23    20    19    1
    24     2     1   ar
    25    27    26   ar
    26    27    28   ar
    27    32    26    1
    28    32    34    1
    29    36    41    1
    30    26    25   ar
    31    28    24   ar
    32    19    15   ar
    33    19    18   ar
    34     5    15    1
    35     5     6   ar
    36    24    25   ar
    37    24    18    1
    38    25    29    1
    39    15    16   ar
    40    11     9    1
    41     1     6   ar
    42     1     9    1
    43    18    17   ar
    44    31    29    1
    45    41    42    1
    46    16    17   ar
    47    16    22    1
    48     9    10    1
    49    17    23    1
    50    22    21    3
