@<TRIPOS>MOLECULE
mol_data/opt/cam/geoms/mol2/6he4fh-13ii-6ha-.out
 53 56 0 0 0
SMALL
GASTEIGER

@<TRIPOS>ATOM
      1 C          -3.6216   -1.7018   -1.1726 C.ar    1  LIG1        0.1169
      2 C          -2.8516   -2.1013   -0.0692 C.ar    1  LIG1       -0.0209
      3 C          -2.8899   -1.3164    1.0595 C.ar    1  LIG1       -0.0410
      4 C          -3.6641   -0.1472    1.0907 C.ar    1  LIG1        0.0509
      5 C          -4.3698    0.1857   -0.0780 C.ar    1  LIG1        0.0919
      6 N          -4.3526   -0.5872   -1.1670 N.ar    1  LIG1       -0.2311
      7 H          -2.3299   -1.5990    1.9443 H       1  LIG1        0.0631
      8 H          -2.2623   -3.0109   -0.1040 H       1  LIG1        0.0652
      9 N          -3.6913   -2.4657   -2.3137 N.pl3   1  LIG1       -0.3431
     10 H          -4.0732   -1.9841   -3.1134 H       1  LIG1        0.1437
     11 H          -2.9276   -3.0935   -2.5063 H       1  LIG1        0.1437
     12 C          -3.7516    0.6077    2.3006 C.1     1  LIG1       -0.0675
     13 C          -3.8162    1.1883    3.3537 C.1     1  LIG1       -0.1138
     14 H          -3.8824    1.7132    4.2782 H       1  LIG1        0.1232
     15 C          -4.7524    2.6796    0.0844 C.ar    1  LIG1        0.1268
     16 C          -5.6151    3.7652   -0.0031 C.ar    1  LIG1       -0.0086
     17 C          -5.2337    1.3928   -0.1691 C.ar    1  LIG1        0.0448
     18 C          -6.9536    3.6110   -0.3613 C.ar    1  LIG1        0.0227
     19 H          -5.2482    4.7625    0.2239 H       1  LIG1        0.0661
     20 C          -6.5579    1.2456   -0.5750 C.ar    1  LIG1       -0.0277
     21 C          -7.4274    2.3251   -0.6792 C.ar    1  LIG1        0.0346
     22 H          -6.9045    0.2477   -0.8256 H       1  LIG1        0.0644
     23 O          -3.4295    2.8284    0.3785 O.3     1  LIG1       -0.5061
     24 H          -3.2728    3.7242    0.6973 H       1  LIG1        0.2922
     25 N          -8.7721    2.1393   -1.0711 N.pl3   1  LIG1       -0.3574
     26 H          -9.0857    2.8745   -1.6943 H       1  LIG1        0.1423
     27 H          -8.9194    1.2366   -1.5042 H       1  LIG1        0.1423
     28 C          -7.8564    4.7714   -0.4136 C.ar    1  LIG1        0.0520
     29 C          -7.7803    5.9747   -1.0900 C.ar    1  LIG1       -0.0216
     30 C          -8.9692    6.7057   -0.7972 C.ar    1  LIG1       -0.0216
     31 C          -9.7347    5.9293    0.0597 C.ar    1  LIG1        0.0534
     32 N          -9.0465    4.7582    0.2665 N.ar    1  LIG1       -0.3536
     33 H          -9.3447    4.0196    0.8862 H       1  LIG1        0.1659
     34 C          -6.6850    6.4147   -2.0106 C.3     1  LIG1       -0.0374
     35 H          -7.0780    6.7151   -2.9878 H       1  LIG1        0.0278
     36 H          -5.9647    5.6111   -2.1769 H       1  LIG1        0.0278
     37 H          -6.1368    7.2757   -1.6124 H       1  LIG1        0.0278
     38 C          -9.3179    8.0414   -1.3784 C.3     1  LIG1       -0.0374
     39 H          -8.8793    8.8725   -0.8129 H       1  LIG1        0.0278
     40 H         -10.3985    8.1990   -1.4069 H       1  LIG1        0.0278
     41 H          -8.9452    8.1273   -2.4033 H       1  LIG1        0.0278
     42 C         -11.9626    5.1565    0.9796 C.ar    1  LIG1        0.1253
     43 C         -11.0257    6.1871    0.7045 C.ar    1  LIG1        0.0381
     44 C         -11.3900    7.4709    1.0978 C.ar    1  LIG1       -0.0479
     45 C         -12.6158    7.7088    1.7096 C.ar    1  LIG1       -0.0428
     46 C         -13.4472    6.6249    1.9262 C.ar    1  LIG1        0.0297
     47 N         -13.1343    5.3788    1.5709 N.ar    1  LIG1       -0.2401
     48 H         -10.6919    8.2856    0.9442 H       1  LIG1        0.0626
     49 H         -14.4149    6.7521    2.4059 H       1  LIG1        0.0830
     50 N         -11.6883    3.8262    0.6993 N.pl3   1  LIG1       -0.3426
     51 H         -12.5067    3.2435    0.8070 H       1  LIG1        0.1437
     52 H         -11.1397    3.6237   -0.1245 H       1  LIG1        0.1437
     53 H         -12.9061    8.7053    2.0206 H       1  LIG1        0.0633
@<TRIPOS>BOND
     1    10     9    1
     2    35    34    1
     3    11     9    1
     4    41    38    1
     5     9     1    1
     6    36    34    1
     7    34    37    1
     8    34    29    1
     9    26    25    1
    10    27    25    1
    11    40    38    1
    12    38    39    1
    13    38    30    1
    14     1     6   ar
    15     1     2   ar
    16     6     5   ar
    17    29    30   ar
    18    29    28   ar
    19    25    21    1
    20    22    20    1
    21    30    31   ar
    22    21    20   ar
    23    21    18   ar
    24    20    17   ar
    25    28    18    1
    26    28    32   ar
    27    18    16   ar
    28    17     5    1
    29    17    15   ar
    30    52    50    1
    31     8     2    1
    32     5     4   ar
    33     2     3   ar
    34    16    15   ar
    35    16    19    1
    36    31    32   ar
    37    31    43    1
    38    15    23    1
    39    32    33    1
    40    23    24    1
    41    50    51    1
    42    50    42    1
    43    43    42   ar
    44    43    44   ar
    45    48    44    1
    46    42    47   ar
    47     3     4   ar
    48     3     7    1
    49     4    12    1
    50    44    45   ar
    51    47    46   ar
    52    45    46   ar
    53    45    53    1
    54    46    49    1
    55    12    13    3
    56    13    14    1
