@<TRIPOS>MOLECULE
mol_data/opt/cam/geoms/mol2/6he6he.out
 28 29 0 0 0
SMALL
GASTEIGER

@<TRIPOS>ATOM
      1 C          -4.4574   -2.0295   -0.5811 C.ar    1  LIG1        0.1169
      2 C          -3.0789   -2.0712   -0.3198 C.ar    1  LIG1       -0.0209
      3 C          -2.4773   -0.9151    0.1131 C.ar    1  LIG1       -0.0410
      4 C          -3.2139    0.2707    0.2683 C.ar    1  LIG1        0.0508
      5 C          -4.5843    0.2284   -0.0533 C.ar    1  LIG1        0.0917
      6 N          -5.1699   -0.9120   -0.4492 N.ar    1  LIG1       -0.2311
      7 H          -1.4194   -0.9046    0.3514 H       1  LIG1        0.0631
      8 H          -2.5181   -2.9915   -0.4371 H       1  LIG1        0.0652
      9 N          -5.1502   -3.1537   -0.9537 N.pl3   1  LIG1       -0.3431
     10 H          -6.0557   -2.9850   -1.3639 H       1  LIG1        0.1437
     11 H          -4.6296   -3.9223   -1.3440 H       1  LIG1        0.1437
     12 C          -2.5437    1.4231    0.7847 C.1     1  LIG1       -0.0675
     13 C          -1.9225    2.3524    1.2330 C.1     1  LIG1       -0.1138
     14 H          -1.3966    3.1892    1.6315 H       1  LIG1        0.1232
     15 C          -6.8077    1.3525    0.4737 C.ar    1  LIG1        0.1255
     16 C          -5.4611    1.4239    0.0159 C.ar    1  LIG1        0.0423
     17 C          -5.0029    2.6656   -0.3927 C.ar    1  LIG1       -0.0324
     18 C          -5.8199    3.7981   -0.3183 C.ar    1  LIG1        0.0435
     19 C          -7.1064    3.6109    0.1894 C.ar    1  LIG1        0.0451
     20 N          -7.5894    2.4374    0.5654 N.ar    1  LIG1       -0.2388
     21 H          -3.9974    2.7686   -0.7795 H       1  LIG1        0.0638
     22 H          -7.7778    4.4616    0.2805 H       1  LIG1        0.0843
     23 N          -7.3703    0.1847    0.8878 N.pl3   1  LIG1       -0.3426
     24 H          -8.3632    0.2362    1.0530 H       1  LIG1        0.1437
     25 H          -6.9799   -0.6624    0.5003 H       1  LIG1        0.1437
     26 C          -5.3682    5.0853   -0.7407 C.1     1  LIG1       -0.0681
     27 C          -4.9918    6.1729   -1.0963 C.1     1  LIG1       -0.1139
     28 H          -4.6602    7.1348   -1.4115 H       1  LIG1        0.1232
@<TRIPOS>BOND
     1    28    27    1
     2    10     9    1
     3    11     9    1
     4    27    26    3
     5     9     1    1
     6    21    17    1
     7    26    18    1
     8     1     6   ar
     9     1     2   ar
    10     6     5   ar
    11     8     2    1
    12    17    18   ar
    13    17    16   ar
    14     2     3   ar
    15    18    19   ar
    16     5    16    1
    17     5     4   ar
    18    16    15   ar
    19     3     4   ar
    20     3     7    1
    21    19    22    1
    22    19    20   ar
    23     4    12    1
    24    15    20   ar
    25    15    23    1
    26    25    23    1
    27    12    13    3
    28    23    24    1
    29    13    14    1
