@<TRIPOS>MOLECULE
mol_data/opt/cam/geoms/mol2/6he6he6he6he.out
 54 57 0 0 0
SMALL
GASTEIGER

@<TRIPOS>ATOM
      1 C          -4.0076   -1.8753   -1.4787 C.ar    1  LIG1        0.1169
      2 C          -2.9110   -2.1887   -0.6597 C.ar    1  LIG1       -0.0209
      3 C          -2.6325   -1.3426    0.3850 C.ar    1  LIG1       -0.0410
      4 C          -3.4064   -0.1920    0.6123 C.ar    1  LIG1        0.0508
      5 C          -4.4622    0.0631   -0.2829 C.ar    1  LIG1        0.0917
      6 N          -4.7461   -0.7838   -1.2844 N.ar    1  LIG1       -0.2311
      7 H          -1.8108   -1.5573    1.0593 H       1  LIG1        0.0631
      8 H          -2.3210   -3.0804   -0.8382 H       1  LIG1        0.0652
      9 N          -4.3956   -2.7002   -2.5026 N.pl3   1  LIG1       -0.3431
     10 H          -5.0111   -2.2854   -3.1848 H       1  LIG1        0.1437
     11 H          -3.7260   -3.3620   -2.8598 H       1  LIG1        0.1437
     12 C          -3.1068    0.6124    1.7554 C.1     1  LIG1       -0.0675
     13 C          -2.8104    1.2402    2.7395 C.1     1  LIG1       -0.1138
     14 H          -2.5698    1.8108    3.6070 H       1  LIG1        0.1232
     15 C          -6.7169    1.2364   -0.4615 C.ar    1  LIG1        0.1262
     16 C          -5.3221    1.2688   -0.1887 C.ar    1  LIG1        0.0423
     17 C          -4.8014    2.4997    0.1613 C.ar    1  LIG1       -0.0317
     18 C          -5.5950    3.6494    0.2638 C.ar    1  LIG1        0.0515
     19 C          -6.9676    3.5122   -0.0135 C.ar    1  LIG1        0.0918
     20 N          -7.4835    2.3242   -0.3505 N.ar    1  LIG1       -0.2304
     21 H          -3.7445    2.5936    0.3730 H       1  LIG1        0.0638
     22 N          -7.3590    0.0876   -0.8106 N.pl3   1  LIG1       -0.3426
     23 H          -8.2934    0.2180   -1.1654 H       1  LIG1        0.1437
     24 H          -6.7793   -0.6216   -1.2396 H       1  LIG1        0.1437
     25 C          -4.9716    4.8628    0.6918 C.1     1  LIG1       -0.0675
     26 C          -4.3909    5.8498    1.0654 C.1     1  LIG1       -0.1138
     27 H          -3.9005    6.7358    1.3971 H       1  LIG1        0.1232
     28 C          -9.2569    4.5046    0.4991 C.ar    1  LIG1        0.1262
     29 C          -7.9210    4.6476    0.0327 C.ar    1  LIG1        0.0423
     30 C          -7.5605    5.9121   -0.3924 C.ar    1  LIG1       -0.0317
     31 C          -8.4442    6.9979   -0.3522 C.ar    1  LIG1        0.0515
     32 C          -9.7412    6.7578    0.1390 C.ar    1  LIG1        0.0918
     33 N         -10.1005    5.5386    0.5562 N.ar    1  LIG1       -0.2304
     34 H          -6.5608    6.0860   -0.7674 H       1  LIG1        0.0638
     35 N          -9.7404    3.3160    0.9532 N.pl3   1  LIG1       -0.3426
     36 H         -10.7406    3.2863    1.0738 H       1  LIG1        0.1437
     37 H          -9.2741    2.4923    0.5958 H       1  LIG1        0.1437
     38 C          -7.9575    8.2789   -0.7605 C.1     1  LIG1       -0.0675
     39 C          -7.4855    9.3311   -1.1085 C.1     1  LIG1       -0.1138
     40 H          -7.0904   10.2738   -1.4089 H       1  LIG1        0.1232
     41 C         -11.7114    7.8829    1.2943 C.ar    1  LIG1        0.1255
     42 C         -10.7842    7.8108    0.2150 C.ar    1  LIG1        0.0423
     43 C         -10.9152    8.7581   -0.7870 C.ar    1  LIG1       -0.0324
     44 C         -11.8900    9.7585   -0.7136 C.ar    1  LIG1        0.0435
     45 C         -12.7113    9.7529    0.4146 C.ar    1  LIG1        0.0451
     46 N         -12.6354    8.8506    1.3799 N.ar    1  LIG1       -0.2388
     47 H         -10.2574    8.7287   -1.6457 H       1  LIG1        0.0638
     48 H         -13.4769   10.5172    0.5264 H       1  LIG1        0.0843
     49 N         -11.6881    6.9981    2.3270 N.pl3   1  LIG1       -0.3426
     50 H         -12.4763    7.0641    2.9515 H       1  LIG1        0.1437
     51 H         -11.2884    6.0912    2.1290 H       1  LIG1        0.1437
     52 C         -12.0450   10.7399   -1.7394 C.1     1  LIG1       -0.0681
     53 C         -12.1799   11.5696   -2.6024 C.1     1  LIG1       -0.1139
     54 H         -12.2999   12.3028   -3.3656 H       1  LIG1        0.1232
@<TRIPOS>BOND
     1    54    53    1
     2    10     9    1
     3    11     9    1
     4    53    52    3
     5     9     1    1
     6    52    44    1
     7    47    43    1
     8     1     6   ar
     9     1     2   ar
    10    40    39    1
    11     6     5   ar
    12    24    22    1
    13    23    22    1
    14    39    38    3
    15     8     2    1
    16    22    15    1
    17    43    44   ar
    18    43    42   ar
    19    34    30    1
    20    38    31    1
    21    44    45   ar
    22     2     3   ar
    23    15    20   ar
    24    15    16   ar
    25    30    31   ar
    26    30    29   ar
    27    31    32   ar
    28    20    19   ar
    29     5    16    1
    30     5     4   ar
    31    16    17   ar
    32    19    29    1
    33    19    18   ar
    34    29    28   ar
    35    32    42    1
    36    32    33   ar
    37    17    18   ar
    38    17    21    1
    39    42    41   ar
    40    18    25    1
    41     3     4   ar
    42     3     7    1
    43    45    48    1
    44    45    46   ar
    45    28    33   ar
    46    28    35    1
    47    37    35    1
    48     4    12    1
    49    25    26    3
    50    35    36    1
    51    26    27    1
    52    41    46   ar
    53    41    49    1
    54    12    13    3
    55    51    49    1
    56    49    50    1
    57    13    14    1
