@<TRIPOS>MOLECULE
mol_data/opt/cam/geoms/mol2/6he6he-6he.out
 41 43 0 0 0
SMALL
GASTEIGER

@<TRIPOS>ATOM
      1 C          -4.4928   -2.0842    0.4930 C.ar    1  LIG1        0.1169
      2 C          -3.1241   -2.2177    0.1940 C.ar    1  LIG1       -0.0209
      3 C          -2.4446   -1.0956   -0.2079 C.ar    1  LIG1       -0.0410
      4 C          -3.0994    0.1455   -0.2929 C.ar    1  LIG1        0.0508
      5 C          -4.4578    0.1864    0.0674 C.ar    1  LIG1        0.0917
      6 N          -5.1263   -0.9131    0.4273 N.ar    1  LIG1       -0.2311
      7 H          -1.3951   -1.1544   -0.4754 H       1  LIG1        0.0631
      8 H          -2.6299   -3.1795    0.2734 H       1  LIG1        0.0652
      9 N          -5.2392   -3.1519    0.9047 N.pl3   1  LIG1       -0.3431
     10 H          -6.2353   -3.0039    0.9412 H       1  LIG1        0.1437
     11 H          -4.9177   -4.0849    0.7102 H       1  LIG1        0.1437
     12 C          -2.3874    1.2830   -0.7821 C.1     1  LIG1       -0.0675
     13 C          -1.7577    2.2283   -1.1852 C.1     1  LIG1       -0.1138
     14 H          -1.2178    3.0669   -1.5608 H       1  LIG1        0.1232
     15 C          -4.9830    2.6313    0.6910 C.ar    1  LIG1        0.1262
     16 C          -5.2857    1.4218    0.0176 C.ar    1  LIG1        0.0423
     17 C          -6.4913    1.3754   -0.6540 C.ar    1  LIG1       -0.0317
     18 C          -7.3565    2.4744   -0.6964 C.ar    1  LIG1        0.0515
     19 C          -6.9697    3.6245    0.0154 C.ar    1  LIG1        0.0918
     20 N          -5.8113    3.6799    0.6693 N.ar    1  LIG1       -0.2304
     21 H          -6.7690    0.4621   -1.1673 H       1  LIG1        0.0638
     22 N          -3.8760    2.7888    1.4780 N.pl3   1  LIG1       -0.3426
     23 H          -3.0349    2.2930    1.2304 H       1  LIG1        0.1437
     24 H          -3.7440    3.7397    1.7897 H       1  LIG1        0.1437
     25 C          -8.5490    2.4031   -1.4802 C.1     1  LIG1       -0.0675
     26 C          -9.5553    2.3131   -2.1371 C.1     1  LIG1       -0.1138
     27 H         -10.4374    2.2541   -2.7320 H       1  LIG1        0.1232
     28 C          -9.1147    4.9622    0.4830 C.ar    1  LIG1        0.1255
     29 C          -7.7681    4.8802    0.0510 C.ar    1  LIG1        0.0423
     30 C          -7.1305    6.0674   -0.2652 C.ar    1  LIG1       -0.0324
     31 C          -7.8081    7.2883   -0.2052 C.ar    1  LIG1        0.0435
     32 C          -9.1407    7.2426    0.2082 C.ar    1  LIG1        0.0451
     33 N          -9.7715    6.1283    0.5441 N.ar    1  LIG1       -0.2388
     34 H          -6.0873    6.0399   -0.5579 H       1  LIG1        0.0638
     35 H          -9.7180    8.1621    0.2681 H       1  LIG1        0.0843
     36 N          -9.8151    3.8794    0.9464 N.pl3   1  LIG1       -0.3426
     37 H         -10.7970    4.0751    1.0735 H       1  LIG1        0.1437
     38 H          -9.6081    2.9755    0.5528 H       1  LIG1        0.1437
     39 C          -7.1784    8.5240   -0.5464 C.1     1  LIG1       -0.0681
     40 C          -6.6516    9.5685   -0.8332 C.1     1  LIG1       -0.1139
     41 H          -6.1868   10.4929   -1.0867 H       1  LIG1        0.1232
@<TRIPOS>BOND
     1    27    26    1
     2    26    25    3
     3    14    13    1
     4    25    18    1
     5    13    12    3
     6    21    17    1
     7    41    40    1
     8    40    39    3
     9    12     4    1
    10    18    17   ar
    11    18    19   ar
    12    17    16   ar
    13    34    30    1
    14    39    31    1
    15     7     3    1
    16     4     3   ar
    17     4     5   ar
    18    30    31   ar
    19    30    29   ar
    20     3     2   ar
    21    31    32   ar
    22    19    29    1
    23    19    20   ar
    24    16     5    1
    25    16    15   ar
    26    29    28   ar
    27     5     6   ar
    28     2     8    1
    29     2     1   ar
    30    32    35    1
    31    32    33   ar
    32     6     1   ar
    33    28    33   ar
    34    28    36    1
    35     1     9    1
    36    38    36    1
    37    20    15   ar
    38    15    22    1
    39    11     9    1
    40     9    10    1
    41    36    37    1
    42    23    22    1
    43    22    24    1
