@<TRIPOS>MOLECULE
mol_data/opt/cam/geoms/mol2/6he6he6he6he-.out
 54 57 0 0 0
SMALL
GASTEIGER

@<TRIPOS>ATOM
      1 C          -3.7875   -1.8397   -1.2462 C.ar    1  LIG1        0.1169
      2 C          -2.7851   -2.1284   -0.3062 C.ar    1  LIG1       -0.0209
      3 C          -2.6420   -1.2720    0.7571 C.ar    1  LIG1       -0.0410
      4 C          -3.4573   -0.1351    0.8872 C.ar    1  LIG1        0.0508
      5 C          -4.4095    0.0957   -0.1234 C.ar    1  LIG1        0.0917
      6 N          -4.5628   -0.7612   -1.1446 N.ar    1  LIG1       -0.2311
      7 H          -1.8982   -1.4679    1.5216 H       1  LIG1        0.0631
      8 H          -2.1628   -3.0099   -0.4104 H       1  LIG1        0.0652
      9 N          -4.0422   -2.6772   -2.3012 N.pl3   1  LIG1       -0.3431
     10 H          -4.5849   -2.2780   -3.0513 H       1  LIG1        0.1437
     11 H          -3.3244   -3.3275   -2.5761 H       1  LIG1        0.1437
     12 C          -3.3041    0.6802    2.0514 C.1     1  LIG1       -0.0675
     13 C          -3.1330    1.3182    3.0584 C.1     1  LIG1       -0.1138
     14 H          -3.0034    1.8971    3.9439 H       1  LIG1        0.1232
     15 C          -6.6518    1.2245   -0.5591 C.ar    1  LIG1        0.1262
     16 C          -5.2964    1.2852   -0.1345 C.ar    1  LIG1        0.0423
     17 C          -4.8408    2.5277    0.2621 C.ar    1  LIG1       -0.0317
     18 C          -5.6625    3.6620    0.2688 C.ar    1  LIG1        0.0515
     19 C          -6.9943    3.4963   -0.1551 C.ar    1  LIG1        0.0918
     20 N          -7.4469    2.2973   -0.5390 N.ar    1  LIG1       -0.2304
     21 H          -3.8155    2.6432    0.5881 H       1  LIG1        0.0638
     22 N          -7.2294    0.0624   -0.9704 N.pl3   1  LIG1       -0.3426
     23 H          -8.1229    0.1725   -1.4236 H       1  LIG1        0.1437
     24 H          -6.5937   -0.6380   -1.3281 H       1  LIG1        0.1437
     25 C          -5.1115    4.8892    0.7532 C.1     1  LIG1       -0.0675
     26 C          -4.5915    5.8884    1.1801 C.1     1  LIG1       -0.1138
     27 H          -4.1542    6.7833    1.5587 H       1  LIG1        0.1232
     28 C          -9.3477    4.4411    0.1040 C.ar    1  LIG1        0.1262
     29 C          -7.9700    4.6119   -0.2181 C.ar    1  LIG1        0.0423
     30 C          -7.5897    5.8806   -0.6101 C.ar    1  LIG1       -0.0317
     31 C          -8.5008    6.9434   -0.6648 C.ar    1  LIG1        0.0515
     32 C          -9.8354    6.6699   -0.3175 C.ar    1  LIG1        0.0918
     33 N         -10.2207    5.4530    0.0609 N.ar    1  LIG1       -0.2304
     34 H          -6.5590    6.0752   -0.8752 H       1  LIG1        0.0638
     35 N          -9.8505    3.2482    0.5122 N.pl3   1  LIG1       -0.3426
     36 H         -10.8557    3.2135    0.5764 H       1  LIG1        0.1437
     37 H          -9.3412    2.4243    0.2237 H       1  LIG1        0.1437
     38 C          -8.0341    8.2469   -1.0166 C.1     1  LIG1       -0.0675
     39 C          -7.6186    9.3337   -1.3316 C.1     1  LIG1       -0.1138
     40 H          -7.2588   10.3039   -1.5859 H       1  LIG1        0.1232
     41 C         -11.2766    8.5125   -1.3887 C.ar    1  LIG1        0.1255
     42 C         -10.9107    7.6990   -0.2883 C.ar    1  LIG1        0.0423
     43 C         -11.6778    7.8030    0.8596 C.ar    1  LIG1       -0.0324
     44 C         -12.7372    8.7111    0.9390 C.ar    1  LIG1        0.0435
     45 C         -12.9886    9.4782   -0.1998 C.ar    1  LIG1        0.0451
     46 N         -12.2928    9.3831   -1.3220 N.ar    1  LIG1       -0.2388
     47 H         -11.4488    7.1609    1.7022 H       1  LIG1        0.0638
     48 H         -13.7989   10.2033   -0.1929 H       1  LIG1        0.0843
     49 N         -10.6815    8.4117   -2.6206 N.pl3   1  LIG1       -0.3426
     50 H          -9.7003    8.1832   -2.6508 H       1  LIG1        0.1437
     51 H         -10.9599    9.1558   -3.2436 H       1  LIG1        0.1437
     52 C         -13.5294    8.8530    2.1190 C.1     1  LIG1       -0.0681
     53 C         -14.2001    8.9765    3.1118 C.1     1  LIG1       -0.1139
     54 H         -14.7927    9.0850    3.9902 H       1  LIG1        0.1232
@<TRIPOS>BOND
     1    51    49    1
     2    10     9    1
     3    50    49    1
     4    49    41    1
     5    11     9    1
     6     9     1    1
     7    40    39    1
     8    23    22    1
     9    41    46   ar
    10    41    42   ar
    11    39    38    3
    12    24    22    1
    13    46    45   ar
    14     1     6   ar
    15     1     2   ar
    16     6     5   ar
    17    38    31    1
    18    22    15    1
    19    34    30    1
    20    31    30   ar
    21    31    32   ar
    22    30    29   ar
    23    15    20   ar
    24    15    16   ar
    25    20    19   ar
    26     8     2    1
    27    32    42    1
    28    32    33   ar
    29     2     3   ar
    30    42    43   ar
    31    29    19    1
    32    29    28   ar
    33    45    48    1
    34    45    44   ar
    35    19    18   ar
    36    16     5    1
    37    16    17   ar
    38     5     4   ar
    39    33    28   ar
    40    28    35    1
    41    37    35    1
    42    17    18   ar
    43    17    21    1
    44    18    25    1
    45    35    36    1
    46    25    26    3
    47     3     4   ar
    48     3     7    1
    49    43    44   ar
    50    43    47    1
    51     4    12    1
    52    44    52    1
    53    26    27    1
    54    12    13    3
    55    52    53    3
    56    13    14    1
    57    53    54    1
