@<TRIPOS>MOLECULE
mol_data/opt/cam/geoms/mol2/6he6he-6he-6he-.out
 54 57 0 0 0
SMALL
GASTEIGER

@<TRIPOS>ATOM
      1 C          -4.6738   -2.1871   -0.6813 C.ar    1  LIG1        0.1169
      2 C          -3.2901   -2.4082   -0.5490 C.ar    1  LIG1       -0.0209
      3 C          -2.4965   -1.3322   -0.2417 C.ar    1  LIG1       -0.0410
      4 C          -3.0563   -0.0523   -0.0822 C.ar    1  LIG1        0.0508
      5 C          -4.4425    0.0759   -0.2769 C.ar    1  LIG1        0.0917
      6 N          -5.2174   -0.9763   -0.5542 N.ar    1  LIG1       -0.2311
      7 H          -1.4281   -1.4584   -0.1039 H       1  LIG1        0.0631
      8 H          -2.8729   -3.4018   -0.6677 H       1  LIG1        0.0652
      9 N          -5.5408   -3.2151   -0.9199 N.pl3   1  LIG1       -0.3431
     10 H          -6.4761   -2.9476   -1.1836 H       1  LIG1        0.1437
     11 H          -5.1889   -4.0814   -1.2912 H       1  LIG1        0.1437
     12 C          -2.2186    1.0357    0.3106 C.1     1  LIG1       -0.0675
     13 C          -1.4848    1.9378    0.6278 C.1     1  LIG1       -0.1138
     14 H          -0.8488    2.7355    0.9363 H       1  LIG1        0.1232
     15 C          -4.8848    2.5498   -0.8444 C.ar    1  LIG1        0.1262
     16 C          -5.1811    1.3602   -0.1386 C.ar    1  LIG1        0.0423
     17 C          -6.3054    1.3855    0.6630 C.ar    1  LIG1       -0.0317
     18 C          -7.1042    2.5266    0.7966 C.ar    1  LIG1        0.0515
     19 C          -6.7390    3.6571    0.0415 C.ar    1  LIG1        0.0918
     20 N          -5.6457    3.6418   -0.7300 N.ar    1  LIG1       -0.2304
     21 H          -6.5771    0.4884    1.2068 H       1  LIG1        0.0638
     22 N          -3.8631    2.6395   -1.7524 N.pl3   1  LIG1       -0.3426
     23 H          -3.0203    2.1172   -1.5721 H       1  LIG1        0.1437
     24 H          -3.7195    3.5723   -2.1086 H       1  LIG1        0.1437
     25 C          -8.1979    2.4866    1.7168 C.1     1  LIG1       -0.0675
     26 C          -9.0962    2.3955    2.5137 C.1     1  LIG1       -0.1138
     27 H          -9.8950    2.3396    3.2169 H       1  LIG1        0.1232
     28 C          -6.9169    6.1991   -0.0180 C.ar    1  LIG1        0.1262
     29 C          -7.5246    4.9160    0.0437 C.ar    1  LIG1        0.0423
     30 C          -8.9056    4.9027    0.0926 C.ar    1  LIG1       -0.0317
     31 C          -9.6675    6.0778    0.1025 C.ar    1  LIG1        0.0515
     32 C          -8.9715    7.3000    0.0544 C.ar    1  LIG1        0.0918
     33 N          -7.6346    7.3246    0.0082 N.ar    1  LIG1       -0.2304
     34 H          -9.4308    3.9576    0.1304 H       1  LIG1        0.0638
     35 N          -5.5639    6.3559   -0.0665 N.pl3   1  LIG1       -0.3426
     36 H          -5.0564    5.5694   -0.4504 H       1  LIG1        0.1437
     37 H          -5.2605    7.2849   -0.3140 H       1  LIG1        0.1437
     38 C         -11.0883    5.9596    0.2126 C.1     1  LIG1       -0.0675
     39 C         -12.2770    5.7939    0.3154 C.1     1  LIG1       -0.1138
     40 H         -13.3315    5.6732    0.4083 H       1  LIG1        0.1232
     41 C          -9.1300    9.7498    0.7284 C.ar    1  LIG1        0.1255
     42 C          -9.6525    8.6185    0.0380 C.ar    1  LIG1        0.0423
     43 C         -10.8216    8.8084   -0.6802 C.ar    1  LIG1       -0.0324
     44 C         -11.4718   10.0467   -0.6888 C.ar    1  LIG1        0.0435
     45 C         -10.8874   11.0679    0.0615 C.ar    1  LIG1        0.0451
     46 N          -9.7586   10.9339    0.7395 N.ar    1  LIG1       -0.2388
     47 H         -11.2437    7.9901   -1.2487 H       1  LIG1        0.0638
     48 H         -11.3604   12.0465    0.0986 H       1  LIG1        0.0843
     49 N          -7.9819    9.6860    1.4551 N.pl3   1  LIG1       -0.3426
     50 H          -7.3197    8.9732    1.1821 H       1  LIG1        0.1437
     51 H          -7.6414   10.5782    1.7769 H       1  LIG1        0.1437
     52 C         -12.6742   10.2643   -1.4281 C.1     1  LIG1       -0.0681
     53 C         -13.6883   10.4530   -2.0504 C.1     1  LIG1       -0.1139
     54 H         -14.5845   10.6203   -2.6012 H       1  LIG1        0.1232
@<TRIPOS>BOND
     1    54    53    1
     2    24    22    1
     3    53    52    3
     4    22    23    1
     5    22    15    1
     6    52    44    1
     7    11     9    1
     8    47    43    1
     9    10     9    1
    10     9     1    1
    11    15    20   ar
    12    15    16   ar
    13    20    19   ar
    14    44    43   ar
    15    44    45   ar
    16     1     6   ar
    17     1     2   ar
    18    43    42   ar
    19     8     2    1
    20     6     5   ar
    21     2     3   ar
    22    36    35    1
    23    37    35    1
    24     5    16    1
    25     5     4   ar
    26     3     7    1
    27     3     4   ar
    28    16    17   ar
    29     4    12    1
    30    35    28    1
    31    28    33   ar
    32    28    29   ar
    33    33    32   ar
    34    42    32    1
    35    42    41   ar
    36    19    29    1
    37    19    18   ar
    38    29    30   ar
    39    32    31   ar
    40    45    48    1
    41    45    46   ar
    42    30    31   ar
    43    30    34    1
    44    31    38    1
    45    38    39    3
    46    12    13    3
    47    39    40    1
    48    13    14    1
    49    17    18   ar
    50    17    21    1
    51    41    46   ar
    52    41    49    1
    53    18    25    1
    54    50    49    1
    55    49    51    1
    56    25    26    3
    57    26    27    1
