@<TRIPOS>MOLECULE
mol_data/opt/cam/geoms/mol2/6he6he6he-6he-.out
 54 57 0 0 0
SMALL
GASTEIGER

@<TRIPOS>ATOM
      1 C          -4.3184   -2.0764   -1.0865 C.ar    1  LIG1        0.1169
      2 C          -3.1450   -2.3395   -0.3617 C.ar    1  LIG1       -0.0209
      3 C          -2.6973   -1.3695    0.5004 C.ar    1  LIG1       -0.0410
      4 C          -3.3789   -0.1481    0.6351 C.ar    1  LIG1        0.0508
      5 C          -4.5244    0.0436   -0.1606 C.ar    1  LIG1        0.0917
      6 N          -4.9720   -0.9205   -0.9792 N.ar    1  LIG1       -0.2311
      7 H          -1.8097   -1.5376    1.1003 H       1  LIG1        0.0631
      8 H          -2.6267   -3.2858   -0.4671 H       1  LIG1        0.0652
      9 N          -4.8718   -3.0145   -1.9185 N.pl3   1  LIG1       -0.3431
     10 H          -5.5491   -2.6648   -2.5784 H       1  LIG1        0.1437
     11 H          -4.2872   -3.7668   -2.2442 H       1  LIG1        0.1437
     12 C          -2.8986    0.7926    1.5985 C.1     1  LIG1       -0.0675
     13 C          -2.4488    1.5349    2.4336 C.1     1  LIG1       -0.1138
     14 H          -2.0722    2.2055    3.1713 H       1  LIG1        0.1232
     15 C          -6.7268    1.3257   -0.2622 C.ar    1  LIG1        0.1262
     16 C          -5.3059    1.3052   -0.1557 C.ar    1  LIG1        0.0423
     17 C          -4.6849    2.5346   -0.0590 C.ar    1  LIG1       -0.0317
     18 C          -5.4113    3.7328   -0.0429 C.ar    1  LIG1        0.0515
     19 C          -6.8099    3.6418   -0.1477 C.ar    1  LIG1        0.0918
     20 N          -7.4258    2.4652   -0.2428 N.ar    1  LIG1       -0.2304
     21 H          -3.6070    2.5881    0.0191 H       1  LIG1        0.0638
     22 N          -7.4605    0.1874   -0.3516 N.pl3   1  LIG1       -0.3426
     23 H          -8.4367    0.3285   -0.5586 H       1  LIG1        0.1437
     24 H          -6.9874   -0.6259   -0.7194 H       1  LIG1        0.1437
     25 C          -4.7158    4.9683    0.1297 C.1     1  LIG1       -0.0675
     26 C          -4.1045    5.9992    0.2601 C.1     1  LIG1       -0.1138
     27 H          -3.5751    6.9127    0.4045 H       1  LIG1        0.1232
     28 C          -7.6524    5.9309   -0.9796 C.ar    1  LIG1        0.1262
     29 C          -7.7252    4.8142   -0.1144 C.ar    1  LIG1        0.0423
     30 C          -8.7962    4.7821    0.7573 C.ar    1  LIG1       -0.0317
     31 C          -9.7505    5.8037    0.8080 C.ar    1  LIG1        0.0515
     32 C          -9.6037    6.8663   -0.1043 C.ar    1  LIG1        0.0918
     33 N          -8.5642    6.9066   -0.9457 N.ar    1  LIG1       -0.2304
     34 H          -8.8985    3.9340    1.4243 H       1  LIG1        0.0638
     35 N          -6.7066    6.0465   -1.9647 N.pl3   1  LIG1       -0.3426
     36 H          -5.7837    5.6866   -1.7774 H       1  LIG1        0.1437
     37 H          -6.7275    6.9374   -2.4377 H       1  LIG1        0.1437
     38 C         -10.7744    5.7282    1.8034 C.1     1  LIG1       -0.0675
     39 C         -11.6036    5.6130    2.6693 C.1     1  LIG1       -0.1138
     40 H         -12.3451    5.5339    3.4303 H       1  LIG1        0.1232
     41 C         -10.1676    9.3271   -0.4514 C.ar    1  LIG1        0.1255
     42 C         -10.5739    7.9862   -0.1973 C.ar    1  LIG1        0.0423
     43 C         -11.9341    7.7595   -0.0660 C.ar    1  LIG1       -0.0324
     44 C         -12.8532    8.8112   -0.1405 C.ar    1  LIG1        0.0435
     45 C         -12.3306   10.0881   -0.3485 C.ar    1  LIG1        0.0451
     46 N         -11.0411   10.3420   -0.5060 N.ar    1  LIG1       -0.2388
     47 H         -12.2999    6.7538    0.0947 H       1  LIG1        0.0638
     48 H         -13.0018   10.9422   -0.4016 H       1  LIG1        0.0843
     49 N          -8.8588    9.6662   -0.6138 N.pl3   1  LIG1       -0.3426
     50 H          -8.2537    8.9301   -0.9501 H       1  LIG1        0.1437
     51 H          -8.7134   10.6082   -0.9414 H       1  LIG1        0.1437
     52 C         -14.2594    8.5967   -0.0126 C.1     1  LIG1       -0.0681
     53 C         -15.4462    8.4208    0.0946 C.1     1  LIG1       -0.1139
     54 H         -16.4958    8.2653    0.1885 H       1  LIG1        0.1232
@<TRIPOS>BOND
     1    10     9    1
     2    37    35    1
     3    11     9    1
     4    35    36    1
     5    35    28    1
     6     9     1    1
     7     1     6   ar
     8     1     2   ar
     9    28    33   ar
    10    28    29   ar
    11     6     5   ar
    12    50    49    1
    13    33    32   ar
    14    51    49    1
    15    24    22    1
    16    49    41    1
    17    23    22    1
    18    46    41   ar
    19    46    45   ar
    20     8     2    1
    21    41    42   ar
    22    48    45    1
    23     2     3   ar
    24    22    15    1
    25    45    44   ar
    26    15    20   ar
    27    15    16   ar
    28    20    19   ar
    29    42    32    1
    30    42    43   ar
    31     5    16    1
    32     5     4   ar
    33    16    17   ar
    34    19    29    1
    35    19    18   ar
    36    44    43   ar
    37    44    52    1
    38    29    30   ar
    39    32    31   ar
    40    43    47    1
    41    17    18   ar
    42    17    21    1
    43    18    25    1
    44    52    53    3
    45    53    54    1
    46    25    26    3
    47    26    27    1
    48     3     4   ar
    49     3     7    1
    50     4    12    1
    51    30    31   ar
    52    30    34    1
    53    31    38    1
    54    12    13    3
    55    38    39    3
    56    13    14    1
    57    39    40    1
