@<TRIPOS>MOLECULE
mol_data/opt/cam/geoms/mol2/6he6he-6he-6he.out
 54 57 0 0 0
SMALL
GASTEIGER

@<TRIPOS>ATOM
      1 C          -4.1832   -1.9863    1.0390 C.ar    1  LIG1        0.1169
      2 C          -3.0469   -2.2935    0.2667 C.ar    1  LIG1       -0.0209
      3 C          -2.6182   -1.3595   -0.6422 C.ar    1  LIG1       -0.0410
      4 C          -3.2873   -0.1298   -0.7742 C.ar    1  LIG1        0.0508
      5 C          -4.3877    0.1001    0.0702 C.ar    1  LIG1        0.0917
      6 N          -4.8233   -0.8214    0.9333 N.ar    1  LIG1       -0.2311
      7 H          -1.7635   -1.5628   -1.2782 H       1  LIG1        0.0631
      8 H          -2.5356   -3.2421    0.3854 H       1  LIG1        0.0652
      9 N          -4.6694   -2.8596    1.9689 N.pl3   1  LIG1       -0.3431
     10 H          -5.5684   -2.6310    2.3626 H       1  LIG1        0.1437
     11 H          -4.4199   -3.8324    1.9158 H       1  LIG1        0.1437
     12 C          -2.8656    0.7984   -1.7749 C.1     1  LIG1       -0.0675
     13 C          -2.4801    1.5667   -2.6196 C.1     1  LIG1       -0.1138
     14 H          -2.1614    2.2448   -3.3776 H       1  LIG1        0.1232
     15 C          -4.6810    2.6512    0.2054 C.ar    1  LIG1        0.1262
     16 C          -5.1985    1.3469    0.0322 C.ar    1  LIG1        0.0423
     17 C          -6.5718    1.2401   -0.0667 C.ar    1  LIG1       -0.0317
     18 C          -7.4095    2.3606   -0.0754 C.ar    1  LIG1        0.0515
     19 C          -6.7944    3.6228    0.0339 C.ar    1  LIG1        0.0918
     20 N          -5.4707    3.7276    0.1964 N.ar    1  LIG1       -0.2304
     21 H          -7.0133    0.2524   -0.1296 H       1  LIG1        0.0638
     22 N          -3.3595    2.8975    0.4706 N.pl3   1  LIG1       -0.3426
     23 H          -2.6812    2.2392    0.1220 H       1  LIG1        0.1437
     24 H          -3.0992    3.8655    0.3554 H       1  LIG1        0.1437
     25 C          -8.8228    2.1534   -0.1408 C.1     1  LIG1       -0.0675
     26 C         -10.0019    1.9119   -0.1877 C.1     1  LIG1       -0.1138
     27 H         -11.0491    1.7184   -0.2239 H       1  LIG1        0.1232
     28 C          -7.2123    6.0302    0.7702 C.ar    1  LIG1        0.1262
     29 C          -7.5553    4.8940   -0.0191 C.ar    1  LIG1        0.0423
     30 C          -8.6251    5.0519   -0.8787 C.ar    1  LIG1       -0.0317
     31 C          -9.3662    6.2394   -0.9286 C.ar    1  LIG1        0.0515
     32 C          -8.9990    7.2677   -0.0416 C.ar    1  LIG1        0.0918
     33 N          -7.9384    7.1531    0.7546 N.ar    1  LIG1       -0.2304
     34 H          -8.8997    4.2471   -1.5483 H       1  LIG1        0.0638
     35 N          -6.1551    6.0252    1.6180 N.pl3   1  LIG1       -0.3426
     36 H          -5.4240    5.3527    1.4346 H       1  LIG1        0.1437
     37 H          -5.9398    6.9109    2.0467 H       1  LIG1        0.1437
     38 C         -10.4104    6.3750   -1.8939 C.1     1  LIG1       -0.0675
     39 C         -11.2955    6.4597   -2.7077 C.1     1  LIG1       -0.1138
     40 H         -12.0651    6.5556   -3.4383 H       1  LIG1        0.1232
     41 C         -11.0873    8.7361    0.2628 C.ar    1  LIG1        0.1255
     42 C          -9.6977    8.5791    0.0344 C.ar    1  LIG1        0.0423
     43 C          -8.9316    9.7307   -0.0248 C.ar    1  LIG1       -0.0324
     44 C          -9.5182   10.9942    0.0863 C.ar    1  LIG1        0.0435
     45 C         -10.9003   11.0255    0.2810 C.ar    1  LIG1        0.0451
     46 N         -11.6577    9.9438    0.3714 N.ar    1  LIG1       -0.2388
     47 H          -7.8596    9.6388   -0.1547 H       1  LIG1        0.0638
     48 H         -11.4105   11.9819    0.3683 H       1  LIG1        0.0843
     49 N         -11.9323    7.6783    0.4728 N.pl3   1  LIG1       -0.3426
     50 H         -12.9045    7.9495    0.4711 H       1  LIG1        0.1437
     51 H         -11.7308    6.8085    0.0062 H       1  LIG1        0.1437
     52 C          -8.7524   12.1972    0.0061 C.1     1  LIG1       -0.0681
     53 C          -8.1108   13.2144   -0.0613 C.1     1  LIG1       -0.1139
     54 H          -7.5438   14.1141   -0.1206 H       1  LIG1        0.1232
@<TRIPOS>BOND
     1    40    39    1
     2    14    13    1
     3    39    38    3
     4    13    12    3
     5    38    31    1
     6    12     4    1
     7    34    30    1
     8     7     3    1
     9    31    30   ar
    10    31    32   ar
    11    30    29   ar
    12     4     3   ar
    13     4     5   ar
    14     3     2   ar
    15    27    26    1
    16    26    25    3
    17    47    43    1
    18    25    18    1
    19    21    17    1
    20    54    53    1
    21    18    17   ar
    22    18    19   ar
    23    17    16   ar
    24    53    52    3
    25    32    42    1
    26    32    33   ar
    27    43    42   ar
    28    43    44   ar
    29    29    19    1
    30    29    28   ar
    31    52    44    1
    32    51    49    1
    33    16     5    1
    34    16    15   ar
    35    19    20   ar
    36    42    41   ar
    37     5     6   ar
    38    44    45   ar
    39    23    22    1
    40    20    15   ar
    41    15    22    1
    42    41    46   ar
    43    41    49    1
    44     2     8    1
    45     2     1   ar
    46    45    48    1
    47    45    46   ar
    48    24    22    1
    49    50    49    1
    50    33    28   ar
    51    28    35    1
    52     6     1   ar
    53     1     9    1
    54    36    35    1
    55    35    37    1
    56    11     9    1
    57     9    10    1
