@<TRIPOS>MOLECULE
mol_data/opt/cam/geoms/mol2/6he6he-6he6he-.out
 54 57 0 0 0
SMALL
GASTEIGER

@<TRIPOS>ATOM
      1 C          -4.4005   -2.1181   -0.8366 C.ar    1  LIG1        0.1169
      2 C          -3.0631   -2.2924   -0.4352 C.ar    1  LIG1       -0.0209
      3 C          -2.4165   -1.2179    0.1216 C.ar    1  LIG1       -0.0410
      4 C          -3.0742    0.0161    0.2667 C.ar    1  LIG1        0.0508
      5 C          -4.3962    0.1036   -0.2031 C.ar    1  LIG1        0.0917
      6 N          -5.0319   -0.9493   -0.7246 N.ar    1  LIG1       -0.2311
      7 H          -1.3935   -1.3114    0.4694 H       1  LIG1        0.0631
      8 H          -2.5704   -3.2517   -0.5470 H       1  LIG1        0.0652
      9 N          -5.1356   -3.1555   -1.3383 N.pl3   1  LIG1       -0.3431
     10 H          -6.0067   -2.9000   -1.7764 H       1  LIG1        0.1437
     11 H          -4.6586   -3.9609   -1.7074 H       1  LIG1        0.1437
     12 C          -2.4031    1.0973    0.9155 C.1     1  LIG1       -0.0675
     13 C          -1.8072    1.9958    1.4541 C.1     1  LIG1       -0.1138
     14 H          -1.2982    2.7903    1.9499 H       1  LIG1        0.1232
     15 C          -4.8616    2.5999   -0.6479 C.ar    1  LIG1        0.1262
     16 C          -5.2231    1.3378   -0.1146 C.ar    1  LIG1        0.0423
     17 C          -6.4838    1.2405    0.4403 C.ar    1  LIG1       -0.0317
     18 C          -7.3506    2.3377    0.5013 C.ar    1  LIG1        0.0515
     19 C          -6.9041    3.5413   -0.0726 C.ar    1  LIG1        0.0918
     20 N          -5.6908    3.6474   -0.6113 N.ar    1  LIG1       -0.2304
     21 H          -6.8055    0.2874    0.8438 H       1  LIG1        0.0638
     22 N          -3.6861    2.8187   -1.3122 N.pl3   1  LIG1       -0.3426
     23 H          -2.8691    2.3056   -1.0221 H       1  LIG1        0.1437
     24 H          -3.5308    3.7924   -1.5283 H       1  LIG1        0.1437
     25 C          -8.6066    2.2075    1.1696 C.1     1  LIG1       -0.0675
     26 C          -9.6660    2.0688    1.7272 C.1     1  LIG1       -0.1138
     27 H         -10.5956    1.9629    2.2375 H       1  LIG1        0.1232
     28 C          -9.0044    4.9330   -0.6121 C.ar    1  LIG1        0.1262
     29 C          -7.6985    4.7993   -0.0781 C.ar    1  LIG1        0.0423
     30 C          -7.1005    5.9545    0.3842 C.ar    1  LIG1       -0.0317
     31 C          -7.7596    7.1891    0.3584 C.ar    1  LIG1        0.0515
     32 C          -9.0489    7.2175   -0.2029 C.ar    1  LIG1        0.0918
     33 N          -9.6347    6.1108   -0.6555 N.ar    1  LIG1       -0.2304
     34 H          -6.0946    5.8983    0.7841 H       1  LIG1        0.0638
     35 N          -9.6786    3.8973   -1.1963 N.pl3   1  LIG1       -0.3426
     36 H         -10.6378    4.1215   -1.4156 H       1  LIG1        0.1437
     37 H          -9.5177    2.9636   -0.8542 H       1  LIG1        0.1437
     38 C          -7.1304    8.3362    0.9327 C.1     1  LIG1       -0.0675
     39 C          -6.5727    9.2915    1.4110 C.1     1  LIG1       -0.1138
     40 H          -6.0997   10.1390    1.8507 H       1  LIG1        0.1232
     41 C          -9.4890    9.6472   -0.9191 C.ar    1  LIG1        0.1255
     42 C          -9.8865    8.4454   -0.2830 C.ar    1  LIG1        0.0423
     43 C         -11.1785    8.3870    0.2102 C.ar    1  LIG1       -0.0324
     44 C         -12.0338    9.4891    0.1247 C.ar    1  LIG1        0.0435
     45 C         -11.5226   10.6288   -0.4985 C.ar    1  LIG1        0.0451
     46 N         -10.3025   10.7082   -1.0057 N.ar    1  LIG1       -0.2388
     47 H         -11.5245    7.4654    0.6638 H       1  LIG1        0.0638
     48 H         -12.1424   11.5178   -0.5877 H       1  LIG1        0.0843
     49 N          -8.2866    9.7870   -1.5613 N.pl3   1  LIG1       -0.3426
     50 H          -7.4941    9.2789   -1.2027 H       1  LIG1        0.1437
     51 H          -8.0963   10.7410   -1.8300 H       1  LIG1        0.1437
     52 C         -13.3636    9.4606    0.6452 C.1     1  LIG1       -0.0681
     53 C         -14.4856    9.4414    1.0829 C.1     1  LIG1       -0.1139
     54 H         -15.4780    9.4252    1.4696 H       1  LIG1        0.1232
@<TRIPOS>BOND
     1    51    49    1
     2    10     9    1
     3    11     9    1
     4    49    50    1
     5    49    41    1
     6    24    22    1
     7    36    35    1
     8     9     1    1
     9    22    23    1
    10    22    15    1
    11    35    37    1
    12    35    28    1
    13    46    41   ar
    14    46    45   ar
    15    41    42   ar
    16     1     6   ar
    17     1     2   ar
    18     6     5   ar
    19    33    28   ar
    20    33    32   ar
    21    15    20   ar
    22    15    16   ar
    23    28    29   ar
    24    20    19   ar
    25    48    45    1
    26     8     2    1
    27    45    44   ar
    28     2     3   ar
    29    42    32    1
    30    42    43   ar
    31     5    16    1
    32     5     4   ar
    33    32    31   ar
    34    16    17   ar
    35    29    19    1
    36    29    30   ar
    37    19    18   ar
    38     3     4   ar
    39     3     7    1
    40    44    43   ar
    41    44    52    1
    42    43    47    1
    43     4    12    1
    44    31    30   ar
    45    31    38    1
    46    30    34    1
    47    17    18   ar
    48    17    21    1
    49    18    25    1
    50    52    53    3
    51    12    13    3
    52    38    39    3
    53    53    54    1
    54    25    26    3
    55    39    40    1
    56    13    14    1
    57    26    27    1
