@<TRIPOS>MOLECULE
mol_data/opt/cam/geoms/mol2/6he6he6he.out
 41 43 0 0 0
SMALL
GASTEIGER

@<TRIPOS>ATOM
      1 C          -4.2794   -1.9815   -1.0656 C.ar    1  LIG1        0.1169
      2 C          -3.0058   -2.1358   -0.4955 C.ar    1  LIG1       -0.0209
      3 C          -2.5239   -1.1077    0.2765 C.ar    1  LIG1       -0.0410
      4 C          -3.2719    0.0657    0.4702 C.ar    1  LIG1        0.0508
      5 C          -4.5219    0.1486   -0.1722 C.ar    1  LIG1        0.0917
      6 N          -4.9984   -0.8723   -0.9014 N.ar    1  LIG1       -0.2311
      7 H          -1.5560   -1.1918    0.7582 H       1  LIG1        0.0631
      8 H          -2.4361   -3.0458   -0.6455 H       1  LIG1        0.0652
      9 N          -4.8640   -2.9851   -1.7946 N.pl3   1  LIG1       -0.3431
     10 H          -5.6422   -2.7046   -2.3710 H       1  LIG1        0.1437
     11 H          -4.2689   -3.7004   -2.1796 H       1  LIG1        0.1437
     12 C          -2.7446    1.0711    1.3389 C.1     1  LIG1       -0.0675
     13 C          -2.2505    1.8731    2.0894 C.1     1  LIG1       -0.1138
     14 H          -1.8369    2.5975    2.7526 H       1  LIG1        0.1232
     15 C          -6.8032    1.2705   -0.0068 C.ar    1  LIG1        0.1262
     16 C          -5.3869    1.3514   -0.0944 C.ar    1  LIG1        0.0423
     17 C          -4.8529    2.6257   -0.1158 C.ar    1  LIG1       -0.0317
     18 C          -5.6496    3.7746   -0.0361 C.ar    1  LIG1        0.0515
     19 C          -7.0416    3.5899    0.0625 C.ar    1  LIG1        0.0918
     20 N          -7.5690    2.3605    0.0863 N.ar    1  LIG1       -0.2304
     21 H          -3.7814    2.7560   -0.1907 H       1  LIG1        0.0638
     22 N          -7.4589    0.0772    0.0297 N.pl3   1  LIG1       -0.3426
     23 H          -8.4560    0.1418   -0.1028 H       1  LIG1        0.1437
     24 H          -6.9702   -0.7010   -0.3925 H       1  LIG1        0.1437
     25 C          -4.9972    5.0467   -0.0073 C.1     1  LIG1       -0.0675
     26 C          -4.3878    6.0853    0.0215 C.1     1  LIG1       -0.1138
     27 H          -3.8718    7.0170    0.0512 H       1  LIG1        0.1232
     28 C          -9.1718    4.6691    0.9453 C.ar    1  LIG1        0.1255
     29 C          -8.0032    4.7179    0.1317 C.ar    1  LIG1        0.0423
     30 C          -7.8126    5.8642   -0.6223 C.ar    1  LIG1       -0.0324
     31 C          -8.7104    6.9341   -0.5512 C.ar    1  LIG1        0.0435
     32 C          -9.7943    6.7873    0.3155 C.ar    1  LIG1        0.0451
     33 N         -10.0256    5.6991    1.0324 N.ar    1  LIG1       -0.2388
     34 H          -6.9581    5.9393   -1.2819 H       1  LIG1        0.0638
     35 H         -10.5148    7.5956    0.4176 H       1  LIG1        0.0843
     36 N          -9.4705    3.5903    1.7175 N.pl3   1  LIG1       -0.3426
     37 H         -10.3873    3.6162    2.1352 H       1  LIG1        0.1437
     38 H          -9.0892    2.7047    1.4155 H       1  LIG1        0.1437
     39 C          -8.5348    8.1211   -1.3257 C.1     1  LIG1       -0.0681
     40 C          -8.3913    9.1241   -1.9773 C.1     1  LIG1       -0.1139
     41 H          -8.2651   10.0108   -2.5537 H       1  LIG1        0.1232
@<TRIPOS>BOND
     1    41    40    1
     2    10     9    1
     3    11     9    1
     4    40    39    3
     5     9     1    1
     6    39    31    1
     7    34    30    1
     8     1     6   ar
     9     1     2   ar
    10     6     5   ar
    11     8     2    1
    12    30    31   ar
    13    30    29   ar
    14    31    32   ar
    15     2     3   ar
    16    24    22    1
    17    21    17    1
    18     5    16    1
    19     5     4   ar
    20    17    16   ar
    21    17    18   ar
    22    23    22    1
    23    16    15   ar
    24    18    25    1
    25    18    19   ar
    26    25    26    3
    27    15    22    1
    28    15    20   ar
    29    26    27    1
    30    19    20   ar
    31    19    29    1
    32    29    28   ar
    33     3     4   ar
    34     3     7    1
    35    32    35    1
    36    32    33   ar
    37     4    12    1
    38    28    33   ar
    39    28    36    1
    40    12    13    3
    41    38    36    1
    42    36    37    1
    43    13    14    1
