@<TRIPOS>MOLECULE
mol_data/opt/cam/geoms/mol2/6he6al-12he-6hf.out
 51 54 0 0 0
SMALL
GASTEIGER

@<TRIPOS>ATOM
      1 C          -4.3871   -2.0567    0.7054 C.ar    1  LIG1        0.1169
      2 C          -3.1209   -2.2562    0.1265 C.ar    1  LIG1       -0.0209
      3 C          -2.5519   -1.1997   -0.5392 C.ar    1  LIG1       -0.0410
      4 C          -3.2066    0.0418   -0.6206 C.ar    1  LIG1        0.0508
      5 C          -4.4563    0.1529    0.0199 C.ar    1  LIG1        0.0900
      6 N          -5.0181   -0.8864    0.6472 N.ar    1  LIG1       -0.2312
      7 H          -1.5866   -1.3114   -1.0210 H       1  LIG1        0.0631
      8 H          -2.6179   -3.2135    0.2035 H       1  LIG1        0.0652
      9 N          -5.0194   -3.0526    1.3984 N.pl3   1  LIG1       -0.3431
     10 H          -5.9861   -2.8788    1.6246 H       1  LIG1        0.1437
     11 H          -4.7555   -4.0087    1.2295 H       1  LIG1        0.1437
     12 C          -2.5885    1.0778   -1.3876 C.1     1  LIG1       -0.0675
     13 C          -2.0099    1.8965   -2.0573 C.1     1  LIG1       -0.1138
     14 H          -1.5124    2.6158   -2.6660 H       1  LIG1        0.1232
     15 C          -6.6580    1.3074    0.0567 C.ar    1  LIG1        0.0378
     16 C          -5.2669    1.3935    0.0405 C.ar    1  LIG1        0.0232
     17 C          -4.7124    2.6742    0.0701 C.ar    1  LIG1       -0.0070
     18 C          -5.5428    3.7798    0.1092 C.ar    1  LIG1        0.1497
     19 C          -6.9405    3.5953    0.1597 C.ar    1  LIG1        0.1493
     20 N          -7.4614    2.3604    0.1119 N.ar    1  LIG1       -0.2475
     21 H          -3.6396    2.7952    0.0511 H       1  LIG1        0.0662
     22 H          -7.1312    0.3318    0.0274 H       1  LIG1        0.0836
     23 O          -5.0772    5.0648    0.0737 O.3     1  LIG1       -0.4928
     24 C          -3.6947    5.2651   -0.1574 C.3     1  LIG1        0.0789
     25 H          -3.5587    6.3407   -0.2699 H       1  LIG1        0.0660
     26 H          -3.0893    4.9113    0.6843 H       1  LIG1        0.0660
     27 H          -3.3704    4.7586   -1.0723 H       1  LIG1        0.0660
     28 C          -7.9008    4.6817    0.2346 C.ar    1  LIG1        0.1791
     29 C          -7.9472    5.9754    0.7013 C.ar    1  LIG1        0.0889
     30 C          -9.3106    6.4150    0.5490 C.ar    1  LIG1        0.0918
     31 C         -10.0110    5.3537    0.0162 C.ar    1  LIG1        0.1563
     32 O          -9.1706    4.3275   -0.1711 O.2     1  LIG1       -0.4499
     33 N          -6.9811    6.7360    1.3085 N.pl3   1  LIG1       -0.3540
     34 H          -6.0337    6.4864    1.0649 H       1  LIG1        0.1425
     35 H          -7.1828    7.7249    1.3289 H       1  LIG1        0.1425
     36 C          -9.7635    7.7017    0.9327 C.1     1  LIG1       -0.0640
     37 C         -10.0801    8.8156    1.2696 C.1     1  LIG1       -0.1137
     38 H         -10.3881    9.7885    1.5760 H       1  LIG1        0.1232
     39 C         -11.9622    3.8508   -0.5432 C.ar    1  LIG1        0.1271
     40 C         -11.3999    5.1496   -0.3610 C.ar    1  LIG1        0.0615
     41 C         -12.2328    6.2503   -0.5477 C.ar    1  LIG1       -0.0047
     42 C         -13.5612    6.0694   -0.8952 C.ar    1  LIG1        0.1357
     43 C         -14.0125    4.7677   -1.0580 C.ar    1  LIG1        0.0711
     44 N         -13.2441    3.6982   -0.8916 N.ar    1  LIG1       -0.2364
     45 H         -11.8507    7.2563   -0.4250 H       1  LIG1        0.0663
     46 H         -15.0490    4.5780   -1.3414 H       1  LIG1        0.0867
     47 N         -11.2728    2.6915   -0.3389 N.pl3   1  LIG1       -0.3426
     48 H         -11.7659    1.8553   -0.6033 H       1  LIG1        0.1437
     49 H         -10.2664    2.6769   -0.2875 H       1  LIG1        0.1437
     50 O         -14.3518    7.1712   -1.0718 O.3     1  LIG1       -0.5052
     51 H         -15.2399    6.8843   -1.3138 H       1  LIG1        0.2922
@<TRIPOS>BOND
     1    14    13    1
     2    13    12    3
     3    12     4    1
     4    46    43    1
     5    51    50    1
     6    27    24    1
     7    50    42    1
     8    43    42   ar
     9    43    44   ar
    10     7     3    1
    11    42    41   ar
    12    44    39   ar
    13     4     3   ar
    14     4     5   ar
    15    48    47    1
    16    41    45    1
    17    41    40   ar
    18    39    40   ar
    19    39    47    1
    20     3     2   ar
    21    40    31    1
    22    47    49    1
    23    25    24    1
    24    32    31   ar
    25    32    28   ar
    26    24    23    1
    27    24    26    1
    28    31    30   ar
    29     5    16    1
    30     5     6   ar
    31    22    15    1
    32    16    15   ar
    33    16    17   ar
    34    21    17    1
    35    15    20   ar
    36    17    18   ar
    37    23    18    1
    38    18    19   ar
    39    20    19   ar
    40     2     8    1
    41     2     1   ar
    42    19    28    1
    43    28    29   ar
    44    30    29   ar
    45    30    36    1
    46     6     1   ar
    47    29    33    1
    48     1     9    1
    49    36    37    3
    50    34    33    1
    51    11     9    1
    52    37    38    1
    53    33    35    1
    54     9    10    1
