@<TRIPOS>MOLECULE
mol_data/opt/cam/geoms/mol2/6he6he-4he6he.out
 55 58 0 0 0
SMALL
GASTEIGER

@<TRIPOS>ATOM
      1 C          -4.6931   -2.2364   -0.2309 C.ar    1  LIG1        0.1169
      2 C          -3.3020   -2.4458   -0.1943 C.ar    1  LIG1       -0.0209
      3 C          -2.4917   -1.3436   -0.0894 C.ar    1  LIG1       -0.0410
      4 C          -3.0439   -0.0518   -0.0374 C.ar    1  LIG1        0.0508
      5 C          -4.4428    0.0582   -0.1249 C.ar    1  LIG1        0.0917
      6 N          -5.2315   -1.0171   -0.2045 N.ar    1  LIG1       -0.2311
      7 H          -1.4146   -1.4565   -0.0311 H       1  LIG1        0.0631
      8 H          -2.8902   -3.4482   -0.2282 H       1  LIG1        0.0652
      9 N          -5.5714   -3.2825   -0.2661 N.pl3   1  LIG1       -0.3431
     10 H          -6.5269   -3.0437   -0.4800 H       1  LIG1        0.1437
     11 H          -5.2475   -4.1873   -0.5640 H       1  LIG1        0.1437
     12 C          -2.1821    1.0721    0.1469 C.1     1  LIG1       -0.0675
     13 C          -1.4291    2.0027    0.2881 C.1     1  LIG1       -0.1138
     14 H          -0.7743    2.8295    0.4421 H       1  LIG1        0.1232
     15 C          -4.9490    2.4460   -0.9485 C.ar    1  LIG1        0.1262
     16 C          -5.1748    1.3527   -0.0803 C.ar    1  LIG1        0.0423
     17 C          -6.2264    1.4797    0.8067 C.ar    1  LIG1       -0.0317
     18 C          -7.0183    2.6312    0.8674 C.ar    1  LIG1        0.0514
     19 C          -6.7287    3.6593   -0.0497 C.ar    1  LIG1        0.0902
     20 N          -5.7060    3.5458   -0.9051 N.ar    1  LIG1       -0.2305
     21 H          -6.4438    0.6569    1.4777 H       1  LIG1        0.0638
     22 N          -4.0087    2.4216   -1.9459 N.pl3   1  LIG1       -0.3426
     23 H          -3.1457    1.9314   -1.7700 H       1  LIG1        0.1437
     24 H          -3.9060    3.3062   -2.4202 H       1  LIG1        0.1437
     25 C          -8.0303    2.7106    1.8747 C.1     1  LIG1       -0.0675
     26 C          -8.8572    2.7221    2.7501 C.1     1  LIG1       -0.1138
     27 H          -9.5943    2.7574    3.5186 H       1  LIG1        0.1232
     28 C          -6.9155    6.1739   -0.3405 C.ar    1  LIG1        0.0345
     29 C          -7.7315    7.3128   -0.3873 C.ar    1  LIG1       -0.0314
     30 C          -7.5245    4.9118   -0.1336 C.ar    1  LIG1        0.0234
     31 C          -9.1115    7.2533   -0.2738 C.ar    1  LIG1        0.0026
     32 H          -7.2627    8.2800   -0.5422 H       1  LIG1        0.0643
     33 C          -8.9099    4.8587   -0.0337 C.ar    1  LIG1       -0.0348
     34 C          -9.7211    5.9936   -0.0988 C.ar    1  LIG1        0.0332
     35 H          -9.3908    3.8994    0.1059 H       1  LIG1        0.0637
     36 N          -5.5520    6.3092   -0.4476 N.pl3   1  LIG1       -0.3574
     37 H          -5.0827    5.4884   -0.8078 H       1  LIG1        0.1423
     38 H          -5.2263    7.1920   -0.8091 H       1  LIG1        0.1423
     39 C         -11.1386    5.8491    0.0368 C.1     1  LIG1       -0.0690
     40 C         -12.3316    5.7096    0.1351 C.1     1  LIG1       -0.1139
     41 H         -13.3859    5.5962    0.2378 H       1  LIG1        0.1232
     42 C         -10.8172    8.8173   -1.3477 C.ar    1  LIG1        0.1240
     43 C          -9.8876    8.5214   -0.3188 C.ar    1  LIG1        0.0240
     44 C          -9.6686    9.4988    0.6337 C.ar    1  LIG1       -0.0338
     45 C         -10.3539   10.7200    0.5840 C.ar    1  LIG1        0.0435
     46 C         -11.2514   10.8910   -0.4692 C.ar    1  LIG1        0.0451
     47 N         -11.4790    9.9776   -1.4032 N.ar    1  LIG1       -0.2389
     48 H          -8.9610    9.3120    1.4346 H       1  LIG1        0.0637
     49 H         -11.8133   11.8181   -0.5527 H       1  LIG1        0.0843
     50 N         -11.0440    7.9555   -2.3884 N.pl3   1  LIG1       -0.3427
     51 H         -11.8545    8.1979   -2.9383 H       1  LIG1        0.1437
     52 H         -10.9176    6.9706   -2.2167 H       1  LIG1        0.1437
     53 C         -10.1506   11.7418    1.5608 C.1     1  LIG1       -0.0681
     54 C          -9.9794   12.6055    2.3828 C.1     1  LIG1       -0.1139
     55 H          -9.8303   13.3689    3.1105 H       1  LIG1        0.1232
@<TRIPOS>BOND
     1    51    50    1
     2    24    22    1
     3    50    52    1
     4    50    42    1
     5    22    23    1
     6    22    15    1
     7    47    42   ar
     8    47    46   ar
     9    42    43   ar
    10    15    20   ar
    11    15    16   ar
    12    20    19   ar
    13    38    36    1
    14    37    36    1
    15    11     9    1
    16    49    46    1
    17    32    29    1
    18    10     9    1
    19    46    45   ar
    20    36    28    1
    21    29    28   ar
    22    29    31   ar
    23    28    30   ar
    24    43    31    1
    25    43    44   ar
    26    31    34   ar
    27     9     1    1
    28     1     6   ar
    29     1     2   ar
    30     8     2    1
    31     6     5   ar
    32     2     3   ar
    33    30    19    1
    34    30    33   ar
    35     5    16    1
    36     5     4   ar
    37    34    33   ar
    38    34    39    1
    39     3     4   ar
    40     3     7    1
    41    16    17   ar
    42    19    18   ar
    43     4    12    1
    44    33    35    1
    45    39    40    3
    46    40    41    1
    47    12    13    3
    48    13    14    1
    49    45    44   ar
    50    45    53    1
    51    44    48    1
    52    17    18   ar
    53    17    21    1
    54    18    25    1
    55    53    54    3
    56    25    26    3
    57    54    55    1
    58    26    27    1
