@<TRIPOS>MOLECULE
mol_data/opt/cam/geoms/mol2/6he6he6he-6he.out
 54 57 0 0 0
SMALL
GASTEIGER

@<TRIPOS>ATOM
      1 C          -4.4033   -2.2461   -0.2829 C.ar    1  LIG1        0.1169
      2 C          -3.0395   -2.3021    0.0458 C.ar    1  LIG1       -0.0209
      3 C          -2.4193   -1.1284    0.3958 C.ar    1  LIG1       -0.0410
      4 C          -3.1219    0.0881    0.4043 C.ar    1  LIG1        0.0508
      5 C          -4.4774    0.0550    0.0243 C.ar    1  LIG1        0.0917
      6 N          -5.0831   -1.1004   -0.2898 N.ar    1  LIG1       -0.2311
      7 H          -1.3732   -1.1261    0.6815 H       1  LIG1        0.0631
      8 H          -2.5050   -3.2452    0.0416 H       1  LIG1        0.0652
      9 N          -5.1147   -3.3794   -0.5809 N.pl3   1  LIG1       -0.3431
     10 H          -5.9968   -3.2294   -1.0454 H       1  LIG1        0.1437
     11 H          -4.6047   -4.2012   -0.8608 H       1  LIG1        0.1437
     12 C          -2.4350    1.2629    0.8423 C.1     1  LIG1       -0.0675
     13 C          -1.7987    2.2086    1.2317 C.1     1  LIG1       -0.1138
     14 H          -1.2545    3.0568    1.5782 H       1  LIG1        0.1232
     15 C          -6.6942    1.2882    0.3030 C.ar    1  LIG1        0.1262
     16 C          -5.3153    1.2761   -0.0577 C.ar    1  LIG1        0.0423
     17 C          -4.8012    2.4669   -0.5329 C.ar    1  LIG1       -0.0317
     18 C          -5.5728    3.6343   -0.5965 C.ar    1  LIG1        0.0515
     19 C          -6.8959    3.5596   -0.1257 C.ar    1  LIG1        0.0918
     20 N          -7.4251    2.4077    0.2813 N.ar    1  LIG1       -0.2304
     21 H          -3.7779    2.5093   -0.8825 H       1  LIG1        0.0638
     22 N          -7.3370    0.1746    0.7325 N.pl3   1  LIG1       -0.3426
     23 H          -8.3316    0.2721    0.8586 H       1  LIG1        0.1437
     24 H          -6.9412   -0.7147    0.4627 H       1  LIG1        0.1437
     25 C          -5.0128    4.8144   -1.1744 C.1     1  LIG1       -0.0675
     26 C          -4.5134    5.8012   -1.6536 C.1     1  LIG1       -0.1138
     27 H          -4.0906    6.6725   -2.0984 H       1  LIG1        0.1232
     28 C          -7.5782    5.9617    0.5121 C.ar    1  LIG1        0.1262
     29 C          -7.8343    4.7133   -0.1085 C.ar    1  LIG1        0.0423
     30 C          -9.0915    4.5426   -0.6536 C.ar    1  LIG1       -0.0317
     31 C         -10.0530    5.5590   -0.6268 C.ar    1  LIG1        0.0515
     32 C          -9.7037    6.7568    0.0230 C.ar    1  LIG1        0.0918
     33 N          -8.4968    6.9319    0.5567 N.ar    1  LIG1       -0.2304
     34 H          -9.3330    3.5949   -1.1205 H       1  LIG1        0.0638
     35 N          -6.4190    6.2367    1.1817 N.pl3   1  LIG1       -0.3426
     36 H          -5.5653    5.8067    0.8641 H       1  LIG1        0.1437
     37 H          -6.3425    7.2032    1.4619 H       1  LIG1        0.1437
     38 C         -11.3054    5.3630   -1.2860 C.1     1  LIG1       -0.0675
     39 C         -12.3589    5.1680   -1.8377 C.1     1  LIG1       -0.1138
     40 H         -13.2865    5.0165   -2.3398 H       1  LIG1        0.1232
     41 C         -11.9056    7.9101    0.6784 C.ar    1  LIG1        0.1255
     42 C         -10.6058    7.9371    0.1157 C.ar    1  LIG1        0.0423
     43 C         -10.1145    9.1672   -0.2855 C.ar    1  LIG1       -0.0324
     44 C         -10.8933   10.3234   -0.1828 C.ar    1  LIG1        0.0435
     45 C         -12.1696   10.1696    0.3611 C.ar    1  LIG1        0.0451
     46 N         -12.6590    9.0133    0.7807 N.ar    1  LIG1       -0.2388
     47 H          -9.1067    9.2250   -0.6802 H       1  LIG1        0.0638
     48 H         -12.8212   11.0346    0.4591 H       1  LIG1        0.0843
     49 N         -12.4536    6.7826    1.2316 N.pl3   1  LIG1       -0.3426
     50 H         -13.4329    6.8908    1.4502 H       1  LIG1        0.1437
     51 H         -12.1994    5.8894    0.8415 H       1  LIG1        0.1437
     52 C         -10.4169   11.6004   -0.6097 C.1     1  LIG1       -0.0681
     53 C         -10.0194   12.6792   -0.9688 C.1     1  LIG1       -0.1139
     54 H          -9.6683   13.6336   -1.2859 H       1  LIG1        0.1232
@<TRIPOS>BOND
     1    40    39    1
     2    27    26    1
     3    39    38    3
     4    26    25    3
     5    38    31    1
     6    54    53    1
     7    25    18    1
     8    34    30    1
     9    10     9    1
    10    53    52    3
    11    21    17    1
    12    11     9    1
    13    47    43    1
    14    30    31   ar
    15    30    29   ar
    16    31    32   ar
    17    52    44    1
    18    18    17   ar
    19    18    19   ar
    20     9     1    1
    21    17    16   ar
    22     6     1   ar
    23     6     5   ar
    24    43    44   ar
    25    43    42   ar
    26     1     2   ar
    27    44    45   ar
    28    19    29    1
    29    19    20   ar
    30    29    28   ar
    31    16     5    1
    32    16    15   ar
    33    32    42    1
    34    32    33   ar
    35     5     4   ar
    36     8     2    1
    37     2     3   ar
    38    42    41   ar
    39    20    15   ar
    40    15    22    1
    41    45    48    1
    42    45    46   ar
    43     3     4   ar
    44     3     7    1
    45     4    12    1
    46    24    22    1
    47    28    33   ar
    48    28    35    1
    49    41    46   ar
    50    41    49    1
    51    22    23    1
    52    51    49    1
    53    12    13    3
    54    36    35    1
    55    35    37    1
    56    49    50    1
    57    13    14    1
