@<TRIPOS>MOLECULE
mol_data/opt/cam/geoms/mol2/6he6he-.out
 28 29 0 0 0
SMALL
GASTEIGER

@<TRIPOS>ATOM
      1 C          -4.4649   -2.0121   -0.5555 C.ar    1  LIG1        0.1169
      2 C          -3.1399   -2.1134   -0.0940 C.ar    1  LIG1       -0.0209
      3 C          -2.5368   -0.9728    0.3738 C.ar    1  LIG1       -0.0410
      4 C          -3.2249    0.2526    0.3721 C.ar    1  LIG1        0.0508
      5 C          -4.5312    0.2615   -0.1487 C.ar    1  LIG1        0.0917
      6 N          -5.1243   -0.8540   -0.5834 N.ar    1  LIG1       -0.2311
      7 H          -1.5252   -1.0060    0.7638 H       1  LIG1        0.0631
      8 H          -2.6238   -3.0669   -0.0917 H       1  LIG1        0.0652
      9 N          -5.1612   -3.1124   -0.9746 N.pl3   1  LIG1       -0.3431
     10 H          -6.0197   -2.9193   -1.4664 H       1  LIG1        0.1437
     11 H          -4.6529   -3.9349   -1.2534 H       1  LIG1        0.1437
     12 C          -2.6001    1.4095    0.9302 C.1     1  LIG1       -0.0675
     13 C          -2.0423    2.3717    1.3945 C.1     1  LIG1       -0.1138
     14 H          -1.5698    3.2255    1.8229 H       1  LIG1        0.1232
     15 C          -5.0222    2.6835   -0.8617 C.ar    1  LIG1        0.1255
     16 C          -5.3851    1.4792   -0.2105 C.ar    1  LIG1        0.0423
     17 C          -6.6650    1.4019    0.3126 C.ar    1  LIG1       -0.0324
     18 C          -7.5410    2.4880    0.2388 C.ar    1  LIG1        0.0435
     19 C          -7.0651    3.6307   -0.4068 C.ar    1  LIG1        0.0451
     20 N          -5.8577    3.7277   -0.9405 N.ar    1  LIG1       -0.2388
     21 H          -6.9854    0.4775    0.7790 H       1  LIG1        0.0638
     22 H          -7.7034    4.5069   -0.4916 H       1  LIG1        0.0843
     23 N          -3.8342    2.8427   -1.5294 N.pl3   1  LIG1       -0.3426
     24 H          -3.0204    2.3770   -1.1603 H       1  LIG1        0.1437
     25 H          -3.6792    3.7988   -1.8144 H       1  LIG1        0.1437
     26 C          -8.8581    2.4402    0.7892 C.1     1  LIG1       -0.0681
     27 C          -9.9695    2.4046    1.2519 C.1     1  LIG1       -0.1139
     28 H         -10.9525    2.3731    1.6613 H       1  LIG1        0.1232
@<TRIPOS>BOND
     1    25    23    1
     2    23    24    1
     3    23    15    1
     4    10     9    1
     5    11     9    1
     6     9     1    1
     7    20    15   ar
     8    20    19   ar
     9    15    16   ar
    10     6     1   ar
    11     6     5   ar
    12     1     2   ar
    13    22    19    1
    14    19    18   ar
    15    16     5    1
    16    16    17   ar
    17     5     4   ar
    18     2     8    1
    19     2     3   ar
    20    18    17   ar
    21    18    26    1
    22    17    21    1
    23     4     3   ar
    24     4    12    1
    25     3     7    1
    26    26    27    3
    27    12    13    3
    28    27    28    1
    29    13    14    1
