@<TRIPOS>MOLECULE
mol_data/opt/cam/geoms/mol2/6hf12ei13ea-13ef-.out
 47 50 0 0 0
SMALL
GASTEIGER

@<TRIPOS>ATOM
      1 C          -4.6596   -1.9035   -1.2077 C.ar    1  LIG1        0.1172
      2 C          -3.4061   -2.2250   -0.6550 C.ar    1  LIG1       -0.0186
      3 C          -2.7709   -1.2754    0.1074 C.ar    1  LIG1       -0.0147
      4 C          -3.3655   -0.0287    0.3332 C.ar    1  LIG1        0.1459
      5 C          -4.6134    0.2026   -0.2555 C.ar    1  LIG1        0.1505
      6 N          -5.2282   -0.7271   -1.0123 N.ar    1  LIG1       -0.2256
      7 H          -1.8067   -1.4666    0.5652 H       1  LIG1        0.0656
      8 H          -2.9605   -3.1996   -0.8229 H       1  LIG1        0.0653
      9 N          -5.3763   -2.8328   -1.9463 N.pl3   1  LIG1       -0.3431
     10 H          -6.1279   -2.4166   -2.4772 H       1  LIG1        0.1437
     11 H          -4.8307   -3.5000   -2.4704 H       1  LIG1        0.1437
     12 O          -2.7038    0.8108    1.1688 O.3     1  LIG1       -0.5045
     13 H          -2.8868    1.7426    0.9730 H       1  LIG1        0.2922
     14 C          -5.3859    1.4358   -0.0736 C.ar    1  LIG1        0.1731
     15 C          -5.0958    2.7663    0.1132 C.ar    1  LIG1        0.0756
     16 C          -6.3459    3.4730    0.2319 C.ar    1  LIG1        0.0129
     17 C          -7.3086    2.5216    0.0727 C.ar    1  LIG1        0.1571
     18 O          -6.7290    1.2923   -0.1042 O.2     1  LIG1       -0.4501
     19 C          -3.8117    3.3687    0.1517 C.1     1  LIG1       -0.0655
     20 C          -2.7193    3.8786    0.1975 C.1     1  LIG1       -0.1138
     21 H          -1.7552    4.3337    0.2135 H       1  LIG1        0.1232
     22 C          -6.4824    4.9327    0.5106 C.3     1  LIG1       -0.0349
     23 H          -7.4200    5.1525    1.0200 H       1  LIG1        0.0279
     24 H          -6.4701    5.5216   -0.4109 H       1  LIG1        0.0279
     25 H          -5.6525    5.2730    1.1347 H       1  LIG1        0.0279
     26 C          -8.7531    2.4749    0.0954 C.ar    1  LIG1        0.0984
     27 C          -9.7629    3.4002   -0.1546 C.ar    1  LIG1        0.0536
     28 C         -11.0033    2.7188    0.0001 C.ar    1  LIG1       -0.0188
     29 C         -10.7303    1.4104    0.3200 C.ar    1  LIG1        0.0659
     30 N          -9.3623    1.2819    0.3865 N.ar    1  LIG1       -0.3496
     31 H          -8.8501    0.4136    0.4231 H       1  LIG1        0.1661
     32 C          -9.6282    4.7571   -0.5559 C.1     1  LIG1       -0.0674
     33 C          -9.5636    5.9055   -0.9141 C.1     1  LIG1       -0.1138
     34 H          -9.5026    6.9188   -1.2371 H       1  LIG1        0.1232
     35 H         -11.9854    3.1491   -0.1138 H       1  LIG1        0.0652
     36 C         -11.6093    0.2940    0.5910 C.ar    1  LIG1        0.0821
     37 C         -12.9044    0.0400    0.1557 C.ar    1  LIG1        0.0927
     38 C         -13.2903   -1.2078    0.7327 C.ar    1  LIG1        0.1500
     39 C         -12.2477   -1.6751    1.4865 C.ar    1  LIG1        0.0454
     40 N         -11.2203   -0.7566    1.3738 N.ar    1  LIG1       -0.3555
     41 H         -10.4123   -0.7396    1.9736 H       1  LIG1        0.1655
     42 H         -12.1437   -2.5736    2.0740 H       1  LIG1        0.0845
     43 C         -13.6865    0.8392   -0.7163 C.1     1  LIG1       -0.0638
     44 C         -14.3564    1.5191   -1.4513 C.1     1  LIG1       -0.1137
     45 H         -14.9510    2.1103   -2.1081 H       1  LIG1        0.1232
     46 O         -14.5034   -1.7676    0.5000 O.3     1  LIG1       -0.5040
     47 H         -14.5620   -2.6064    0.9705 H       1  LIG1        0.2923
@<TRIPOS>BOND
     1    10     9    1
     2    11     9    1
     3    45    44    1
     4     9     1    1
     5    44    43    3
     6    34    33    1
     7     1     6   ar
     8     1     2   ar
     9     6     5   ar
    10    33    32    3
    11     8     2    1
    12    43    37    1
    13     2     3   ar
    14    32    27    1
    15    24    22    1
    16     5    14    1
    17     5     4   ar
    18    27    28   ar
    19    27    26   ar
    20    35    28    1
    21    18    14   ar
    22    18    17   ar
    23    14    15   ar
    24    28    29   ar
    25    17    26    1
    26    17    16   ar
    27    26    30   ar
    28     3     4   ar
    29     3     7    1
    30    15    19    1
    31    15    16   ar
    32    19    20    3
    33    37    36   ar
    34    37    38   ar
    35    20    21    1
    36    16    22    1
    37    29    30   ar
    38    29    36    1
    39     4    12    1
    40    30    31    1
    41    46    38    1
    42    46    47    1
    43    22    23    1
    44    22    25    1
    45    36    40   ar
    46    38    39   ar
    47    13    12    1
    48    40    39   ar
    49    40    41    1
    50    39    42    1
