@<TRIPOS>MOLECULE
mol_data/opt/cam/geoms/mol2/6hf12ie-13hh6li-12hh-12ia-4fa-13ea-.out
 96 103 0 0 0
SMALL
GASTEIGER

@<TRIPOS>ATOM
      1 C          -3.9544   -0.9547   -1.4042 C.ar    1  LIG1        0.1172
      2 C          -2.8501   -0.6642   -2.2249 C.ar    1  LIG1       -0.0186
      3 C          -2.6003    0.6496   -2.5522 C.ar    1  LIG1       -0.0147
      4 C          -3.4246    1.6526   -2.0431 C.ar    1  LIG1        0.1459
      5 C          -4.4691    1.2784   -1.1978 C.ar    1  LIG1        0.1495
      6 N          -4.7366   -0.0059   -0.9115 N.ar    1  LIG1       -0.2257
      7 H          -1.7814    0.9269   -3.2068 H       1  LIG1        0.0656
      8 H          -2.2146   -1.4618   -2.5943 H       1  LIG1        0.0653
      9 N          -4.2409   -2.2599   -1.0285 N.pl3   1  LIG1       -0.3431
     10 H          -5.1582   -2.3544   -0.6170 H       1  LIG1        0.1437
     11 H          -4.0222   -2.9746   -1.7059 H       1  LIG1        0.1437
     12 O          -3.1763    2.9405   -2.4127 O.3     1  LIG1       -0.5045
     13 H          -3.9339    3.4827   -2.1510 H       1  LIG1        0.2922
     14 C          -5.3631    2.2882   -0.6190 C.ar    1  LIG1        0.1616
     15 C          -5.1609    3.4803    0.0103 C.ar    1  LIG1        0.0130
     16 C          -6.4706    3.9622    0.3794 C.ar    1  LIG1        0.0754
     17 C          -7.3724    3.0197   -0.0602 C.ar    1  LIG1        0.1692
     18 O          -6.7018    2.0076   -0.6619 O.2     1  LIG1       -0.4501
     19 C          -3.8713    4.1434    0.3767 C.3     1  LIG1       -0.0349
     20 H          -3.8713    4.3906    1.4415 H       1  LIG1        0.0279
     21 H          -3.7291    5.0839   -0.1654 H       1  LIG1        0.0279
     22 H          -3.0156    3.5004    0.1706 H       1  LIG1        0.0279
     23 C          -6.7105    5.1327    1.1439 C.1     1  LIG1       -0.0655
     24 C          -6.8506    6.1296    1.8086 C.1     1  LIG1       -0.1138
     25 H          -6.9740    7.0020    2.4082 H       1  LIG1        0.1232
     26 C          -8.7994    2.8614   -0.0115 C.ar    1  LIG1        0.1065
     27 C          -9.8528    3.7626    0.1339 C.ar    1  LIG1        0.0749
     28 C         -11.0504    3.0178    0.0677 C.ar    1  LIG1        0.0720
     29 C         -10.7147    1.6763   -0.1213 C.ar    1  LIG1        0.0749
     30 N          -9.3446    1.6224   -0.1770 N.ar    1  LIG1       -0.3486
     31 H          -8.8329    0.7687   -0.3417 H       1  LIG1        0.1661
     32 N          -9.8545    5.1757    0.2734 N.pl3   1  LIG1       -0.3548
     33 H          -9.1922    5.4846    0.9764 H       1  LIG1        0.1424
     34 H          -9.5956    5.6324   -0.5962 H       1  LIG1        0.1424
     35 N         -12.3230    3.5932    0.2111 N.pl3   1  LIG1       -0.3549
     36 H         -12.2023    4.5944    0.3392 H       1  LIG1        0.1424
     37 H         -12.9228    3.4261   -0.5896 H       1  LIG1        0.1424
     38 C         -11.0862   -0.7884   -0.5806 C.ar    1  LIG1        0.2245
     39 C         -11.5589    0.4936   -0.2091 C.ar    1  LIG1        0.0619
     40 C         -12.9153    0.5428    0.1034 C.ar    1  LIG1       -0.0424
     41 C         -13.7451   -0.5767    0.0220 C.ar    1  LIG1       -0.0205
     42 C         -13.1578   -1.7652   -0.4197 C.ar    1  LIG1        0.1146
     43 N         -11.8419   -1.8499   -0.6920 N.ar    1  LIG1       -0.2089
     44 H         -13.3259    1.4791    0.4649 H       1  LIG1        0.0629
     45 O          -9.7566   -0.9198   -0.8432 O.3     1  LIG1       -0.4792
     46 C          -9.2965   -2.2137   -1.2133 C.3     1  LIG1        0.0804
     47 H          -8.2220   -2.1052   -1.3642 H       1  LIG1        0.0660
     48 H          -9.5054   -2.9432   -0.4280 H       1  LIG1        0.0660
     49 H          -9.7788   -2.5518   -2.1329 H       1  LIG1        0.0660
     50 C         -15.1822   -0.4921    0.4568 C.3     1  LIG1       -0.0376
     51 H         -15.3971   -1.2370    1.2287 H       1  LIG1        0.0278
     52 H         -15.8711   -0.6936   -0.3679 H       1  LIG1        0.0278
     53 H         -15.3986    0.4956    0.8693 H       1  LIG1        0.0278
     54 C         -13.9150   -3.0088   -0.5927 C.ar    1  LIG1        0.1767
     55 C         -15.0729   -3.3214   -1.2525 C.ar    1  LIG1        0.0943
     56 C         -15.2324   -4.7395   -1.1424 C.ar    1  LIG1        0.0958
     57 C         -14.1714   -5.1900   -0.4091 C.ar    1  LIG1        0.1933
     58 O         -13.3562   -4.1457   -0.0875 O.2     1  LIG1       -0.4463
     59 N         -15.9463   -2.4646   -1.9354 N.pl3   1  LIG1       -0.3535
     60 H         -15.5139   -1.9261   -2.6743 H       1  LIG1        0.1425
     61 H         -16.7783   -2.9365   -2.2620 H       1  LIG1        0.1425
     62 N         -16.3006   -5.4535   -1.7101 N.pl3   1  LIG1       -0.3535
     63 H         -16.3768   -5.2716   -2.7062 H       1  LIG1        0.1425
     64 H         -16.1956   -6.4519   -1.5757 H       1  LIG1        0.1425
     65 C         -13.8243   -6.5083    0.0627 C.ar    1  LIG1        0.1754
     66 C         -14.5689   -7.5327    0.5795 C.ar    1  LIG1       -0.0010
     67 C         -13.6495   -8.6004    0.8123 C.ar    1  LIG1       -0.0121
     68 C         -12.4132   -8.1547    0.4469 C.ar    1  LIG1        0.1396
     69 O         -12.5137   -6.8782   -0.0206 O.2     1  LIG1       -0.4513
     70 C         -16.0282   -7.5286    0.9112 C.3     1  LIG1       -0.0360
     71 H         -16.1896   -7.8787    1.9347 H       1  LIG1        0.0279
     72 H         -16.6005   -8.1939    0.2551 H       1  LIG1        0.0279
     73 H         -16.4539   -6.5267    0.8286 H       1  LIG1        0.0279
     74 H         -13.8696   -9.5709    1.2245 H       1  LIG1        0.0658
     75 C         -10.8191  -10.0437    0.8566 C.ar    1  LIG1        0.1281
     76 C          -9.5276  -10.5498    0.8782 C.ar    1  LIG1       -0.0103
     77 C         -11.0711   -8.7172    0.4685 C.ar    1  LIG1        0.0587
     78 C          -8.4387   -9.7616    0.5031 C.ar    1  LIG1        0.0030
     79 H          -9.3629  -11.5751    1.1929 H       1  LIG1        0.0661
     80 C          -9.9716   -7.9392    0.0924 C.ar    1  LIG1       -0.0469
     81 C          -8.6832   -8.4430    0.1027 C.ar    1  LIG1       -0.0517
     82 H         -10.1517   -6.9180   -0.2212 H       1  LIG1        0.0626
     83 O         -11.8784  -10.8158    1.2248 O.3     1  LIG1       -0.5060
     84 H         -11.5603  -11.6980    1.4500 H       1  LIG1        0.2922
     85 H          -7.8668   -7.8146   -0.2380 H       1  LIG1        0.0624
     86 C          -7.0784  -10.2965    0.5476 C.ar    1  LIG1        0.0622
     87 C          -6.5768  -11.5871    0.4077 C.ar    1  LIG1        0.0499
     88 C          -5.1569  -11.5091    0.5322 C.ar    1  LIG1       -0.0284
     89 C          -4.8358  -10.1984    0.7455 C.ar    1  LIG1        0.0034
     90 N          -5.9991   -9.4759    0.7432 N.ar    1  LIG1       -0.3597
     91 H          -6.0755   -8.4974    0.9664 H       1  LIG1        0.1654
     92 H          -3.8810   -9.7216    0.9031 H       1  LIG1        0.0807
     93 C          -7.3148  -12.7742    0.1483 C.1     1  LIG1       -0.0675
     94 C          -7.9126  -13.7987   -0.0665 C.1     1  LIG1       -0.1138
     95 H          -8.4342  -14.7040   -0.2744 H       1  LIG1        0.1232
     96 H          -4.4710  -12.3394    0.4622 H       1  LIG1        0.0645
@<TRIPOS>BOND
     1     7     3    1
     2    63    62    1
     3    60    59    1
     4     8     2    1
     5     3     2   ar
     6     3     4   ar
     7    12    13    1
     8    12     4    1
     9    61    59    1
    10     2     1   ar
    11    49    46    1
    12     4     5   ar
    13    59    55    1
    14    62    64    1
    15    62    56    1
    16    11     9    1
    17     1     9    1
    18     1     6   ar
    19    47    46    1
    20    55    56   ar
    21    55    54   ar
    22    46    45    1
    23    46    48    1
    24     5     6   ar
    25     5    14    1
    26    56    57   ar
    27     9    10    1
    28    45    38    1
    29    43    38   ar
    30    43    42   ar
    31    18    14   ar
    32    18    17   ar
    33    14    15   ar
    34    34    32    1
    35    54    42    1
    36    54    58   ar
    37    37    35    1
    38    38    39   ar
    39    42    41   ar
    40    57    58   ar
    41    57    65    1
    42    52    50    1
    43    31    30    1
    44    95    94    1
    45    85    81    1
    46    82    80    1
    47    39    29    1
    48    39    40   ar
    49    30    29   ar
    50    30    26   ar
    51    21    19    1
    52    29    28   ar
    53    94    93    3
    54    17    26    1
    55    17    16   ar
    56    69    65   ar
    57    69    68   ar
    58    26    27   ar
    59    15    19    1
    60    15    16   ar
    61    41    40   ar
    62    41    50    1
    63    65    66   ar
    64    28    27   ar
    65    28    35    1
    66    80    81   ar
    67    80    77   ar
    68    81    78   ar
    69    40    44    1
    70    27    32    1
    71    93    87    1
    72    22    19    1
    73    35    36    1
    74    72    70    1
    75    32    33    1
    76    19    20    1
    77    16    23    1
    78    87    88   ar
    79    87    86   ar
    80    68    77    1
    81    68    67   ar
    82    50    53    1
    83    50    51    1
    84    96    88    1
    85    77    75   ar
    86    78    86    1
    87    78    76   ar
    88    88    89   ar
    89    86    90   ar
    90    66    67   ar
    91    66    70    1
    92    90    89   ar
    93    90    91    1
    94    89    92    1
    95    67    74    1
    96    73    70    1
    97    75    76   ar
    98    75    83    1
    99    76    79    1
   100    70    71    1
   101    23    24    3
   102    83    84    1
   103    24    25    1
