@<TRIPOS>MOLECULE
mol_data/opt/cam/geoms/mol2/6hf12al-12ad-4eh.out
 47 50 0 0 0
SMALL
GASTEIGER

@<TRIPOS>ATOM
      1 C          -4.0530   -2.0071    0.9841 C.ar    1  LIG1        0.1172
      2 C          -2.7019   -1.9806    0.5913 C.ar    1  LIG1       -0.0186
      3 C          -2.2153   -0.8442   -0.0153 C.ar    1  LIG1       -0.0147
      4 C          -3.0551    0.2531   -0.1965 C.ar    1  LIG1        0.1459
      5 C          -4.3712    0.1518    0.2574 C.ar    1  LIG1        0.1494
      6 N          -4.8567   -0.9674    0.8132 N.ar    1  LIG1       -0.2257
      7 H          -1.1898   -0.7788   -0.3615 H       1  LIG1        0.0656
      8 H          -2.0624   -2.8400    0.7609 H       1  LIG1        0.0653
      9 N          -4.5912   -3.1109    1.6208 N.pl3   1  LIG1       -0.3431
     10 H          -5.5999   -3.0966    1.6613 H       1  LIG1        0.1437
     11 H          -4.1962   -4.0081    1.3859 H       1  LIG1        0.1437
     12 O          -2.5476    1.3640   -0.8080 O.3     1  LIG1       -0.5045
     13 H          -3.2803    1.8702   -1.1857 H       1  LIG1        0.2922
     14 C          -5.2949    1.2785    0.1220 C.ar    1  LIG1        0.1612
     15 C          -5.1010    2.6373    0.0995 C.ar    1  LIG1        0.0284
     16 C          -6.3974    3.2131   -0.0228 C.ar    1  LIG1        0.1694
     17 C          -7.2874    2.1733   -0.0737 C.ar    1  LIG1        0.2120
     18 O          -6.6107    0.9959    0.0126 O.2     1  LIG1       -0.4462
     19 H          -4.1619    3.1491    0.2424 H       1  LIG1        0.0693
     20 O          -6.7703    4.5084   -0.0845 O.3     1  LIG1       -0.4912
     21 C          -5.7334    5.4644    0.0419 C.3     1  LIG1        0.0790
     22 H          -6.2077    6.4428   -0.0221 H       1  LIG1        0.0660
     23 H          -5.2233    5.3715    1.0070 H       1  LIG1        0.0660
     24 H          -5.0006    5.3649   -0.7668 H       1  LIG1        0.0660
     25 C          -8.7157    2.1581   -0.2060 C.ar    1  LIG1        0.1755
     26 C          -9.6287    3.1563   -0.3445 C.ar    1  LIG1        0.0054
     27 C         -10.9039    2.5104   -0.4183 C.ar    1  LIG1        0.0981
     28 C         -10.6788    1.1599   -0.3121 C.ar    1  LIG1        0.1543
     29 O          -9.3425    0.9508   -0.1909 O.2     1  LIG1       -0.4502
     30 H          -9.4249    4.2134   -0.3964 H       1  LIG1        0.0670
     31 N         -13.1016    3.7648   -0.9117 N.1     1  LIG1       -0.1907
     32 C         -12.1349    3.1757   -0.6732 C.1     1  LIG1        0.1030
     33 C         -12.7494   -0.1493    0.2763 C.ar    1  LIG1        0.0355
     34 C         -13.4722   -1.3402    0.1278 C.ar    1  LIG1       -0.0439
     35 C         -11.5078   -0.0439   -0.3812 C.ar    1  LIG1        0.0356
     36 C         -12.9907   -2.3959   -0.6194 C.ar    1  LIG1       -0.0399
     37 H         -14.4295   -1.4275    0.6290 H       1  LIG1        0.0630
     38 C         -11.0180   -1.1209   -1.1187 C.ar    1  LIG1       -0.0292
     39 C         -11.7431   -2.3050   -1.2502 C.ar    1  LIG1        0.0253
     40 H         -10.0514   -1.0273   -1.6023 H       1  LIG1        0.0643
     41 H         -13.5738   -3.3074   -0.7094 H       1  LIG1        0.0636
     42 C         -13.2680    0.8735    1.1284 C.1     1  LIG1       -0.0690
     43 C         -13.7337    1.6996    1.8700 C.1     1  LIG1       -0.1139
     44 H         -14.1406    2.4587    2.4973 H       1  LIG1        0.1232
     45 N         -11.2245   -3.3798   -1.9544 N.pl3   1  LIG1       -0.3579
     46 H         -11.8964   -4.0463   -2.3028 H       1  LIG1        0.1423
     47 H         -10.5012   -3.1635   -2.6231 H       1  LIG1        0.1423
@<TRIPOS>BOND
     1    47    45    1
     2    46    45    1
     3    45    39    1
     4    40    38    1
     5    39    38   ar
     6    39    36   ar
     7    13    12    1
     8    38    35   ar
     9    31    32    3
    10    12     4    1
    11    24    21    1
    12    41    36    1
    13    32    27    1
    14    36    34   ar
    15    27    26   ar
    16    27    28   ar
    17    30    26    1
    18    35    28    1
    19    35    33   ar
    20     7     3    1
    21    26    25   ar
    22    28    29   ar
    23    25    29   ar
    24    25    17    1
    25     4     3   ar
    26     4     5   ar
    27    20    16    1
    28    20    21    1
    29    17    16   ar
    30    17    18   ar
    31    16    15   ar
    32    22    21    1
    33     3     2   ar
    34    18    14   ar
    35    21    23    1
    36    15    14   ar
    37    15    19    1
    38    14     5    1
    39    34    33   ar
    40    34    37    1
    41     5     6   ar
    42    33    42    1
    43     2     8    1
    44     2     1   ar
    45     6     1   ar
    46     1     9    1
    47    42    43    3
    48    11     9    1
    49     9    10    1
    50    43    44    1
