@<TRIPOS>MOLECULE
mol_data/opt/cam/geoms/mol2/6hf4dl-12li4fi.out
 57 60 0 0 0
SMALL
GASTEIGER

@<TRIPOS>ATOM
      1 C          -4.3492   -2.2528    0.5890 C.ar    1  LIG1        0.1170
      2 C          -3.0659   -2.3851    0.0323 C.ar    1  LIG1       -0.0186
      3 C          -2.4915   -1.2708   -0.5352 C.ar    1  LIG1       -0.0148
      4 C          -3.1647   -0.0478   -0.5262 C.ar    1  LIG1        0.1429
      5 C          -4.4276   -0.0029    0.0671 C.ar    1  LIG1        0.1157
      6 N          -5.0029   -1.0977    0.5900 N.ar    1  LIG1       -0.2287
      7 H          -1.5157   -1.3164   -1.0069 H       1  LIG1        0.0656
      8 H          -2.5510   -3.3397    0.0481 H       1  LIG1        0.0653
      9 N          -4.9777   -3.3191    1.2011 N.pl3   1  LIG1       -0.3431
     10 H          -5.9619   -3.1711    1.3674 H       1  LIG1        0.1437
     11 H          -4.7359   -4.2425    0.8782 H       1  LIG1        0.1437
     12 O          -2.6159    1.0234   -1.1877 O.3     1  LIG1       -0.5046
     13 H          -2.1406    1.5864   -0.5581 H       1  LIG1        0.2922
     14 C          -4.8263    2.4975    0.4712 C.ar    1  LIG1        0.0619
     15 C          -5.6940    3.5875    0.4983 C.ar    1  LIG1       -0.0294
     16 C          -5.2774    1.2182    0.1022 C.ar    1  LIG1        0.0248
     17 C          -7.0418    3.4649    0.1507 C.ar    1  LIG1        0.0638
     18 H          -5.3221    4.5528    0.8169 H       1  LIG1        0.0639
     19 C          -6.6269    1.0949   -0.2081 C.ar    1  LIG1       -0.0087
     20 C          -7.4961    2.1763   -0.1975 C.ar    1  LIG1        0.1315
     21 H          -7.0266    0.1194   -0.4558 H       1  LIG1        0.0661
     22 N          -2.3706    2.8784    1.2030 N.1     1  LIG1       -0.1908
     23 C          -3.4734    2.7135    0.8888 C.1     1  LIG1        0.0998
     24 O          -8.8080    1.9281   -0.4933 O.3     1  LIG1       -0.4944
     25 C          -9.1748    2.1697   -1.8444 C.3     1  LIG1        0.0788
     26 H         -10.2318    1.9164   -1.9283 H       1  LIG1        0.0660
     27 H          -9.0392    3.2213   -2.1137 H       1  LIG1        0.0660
     28 H          -8.5926    1.5382   -2.5256 H       1  LIG1        0.0660
     29 C          -7.8916    4.6480    0.1976 C.ar    1  LIG1        0.1809
     30 C          -7.6246    5.9751    0.4096 C.ar    1  LIG1        0.1692
     31 C          -8.8587    6.6955    0.3847 C.ar    1  LIG1        0.0378
     32 C          -9.8136    5.7501    0.1352 C.ar    1  LIG1        0.1457
     33 O          -9.2356    4.5189    0.0300 O.2     1  LIG1       -0.4505
     34 O          -6.4024    6.5245    0.6679 O.3     1  LIG1       -0.4910
     35 C          -5.8482    7.2497   -0.4253 C.3     1  LIG1        0.0790
     36 H          -4.8941    7.6505   -0.0821 H       1  LIG1        0.0660
     37 H          -5.6818    6.5926   -1.2858 H       1  LIG1        0.0660
     38 H          -6.5013    8.0750   -0.7267 H       1  LIG1        0.0660
     39 C          -8.9962    8.1515    0.6896 C.3     1  LIG1       -0.0326
     40 H          -9.9213    8.3567    1.2303 H       1  LIG1        0.0280
     41 H          -9.0148    8.7597   -0.2184 H       1  LIG1        0.0280
     42 H          -8.1543    8.4735    1.3076 H       1  LIG1        0.0280
     43 C         -11.9966    6.7947   -0.5394 C.ar    1  LIG1        0.1275
     44 C         -13.3851    6.7315   -0.5989 C.ar    1  LIG1       -0.0192
     45 C         -11.2733    5.7453    0.0423 C.ar    1  LIG1        0.0593
     46 C         -14.0615    5.6251   -0.1083 C.ar    1  LIG1       -0.0554
     47 H         -13.9371    7.5508   -1.0534 H       1  LIG1        0.0654
     48 C         -11.9835    4.6354    0.5134 C.ar    1  LIG1       -0.0446
     49 C         -13.3696    4.5522    0.4528 C.ar    1  LIG1       -0.0496
     50 H         -11.4141    3.8139    0.9356 H       1  LIG1        0.0628
     51 H         -15.1454    5.5944   -0.1710 H       1  LIG1        0.0621
     52 O         -11.3063    7.8465   -1.0651 O.3     1  LIG1       -0.5061
     53 H         -11.9317    8.4715   -1.4498 H       1  LIG1        0.2922
     54 C         -14.1015    3.3562    1.0037 C.3     1  LIG1       -0.0397
     55 H         -13.4565    2.4752    1.0316 H       1  LIG1        0.0278
     56 H         -14.9793    3.1124    0.3994 H       1  LIG1        0.0278
     57 H         -14.4506    3.5384    2.0258 H       1  LIG1        0.0278
@<TRIPOS>BOND
     1    28    25    1
     2    27    25    1
     3    26    25    1
     4    25    24    1
     5    53    52    1
     6    37    35    1
     7    12    13    1
     8    12     4    1
     9    52    43    1
    10    47    44    1
    11     7     3    1
    12    38    35    1
    13    44    43   ar
    14    44    46   ar
    15    43    45   ar
    16     3     4   ar
    17     3     2   ar
    18     4     5   ar
    19    24    20    1
    20    21    19    1
    21    35    36    1
    22    35    34    1
    23    41    39    1
    24    19    20   ar
    25    19    16   ar
    26    20    17   ar
    27    51    46    1
    28    46    49   ar
    29    33    32   ar
    30    33    29   ar
    31     2     8    1
    32     2     1   ar
    33    45    32    1
    34    45    48   ar
    35     5    16    1
    36     5     6   ar
    37    16    14   ar
    38    32    31   ar
    39    17    29    1
    40    17    15   ar
    41    29    30   ar
    42    31    30   ar
    43    31    39    1
    44    56    54    1
    45    30    34    1
    46    49    48   ar
    47    49    54    1
    48    14    15   ar
    49    14    23    1
    50    15    18    1
    51    48    50    1
    52     1     6   ar
    53     1     9    1
    54    39    40    1
    55    39    42    1
    56    11     9    1
    57    23    22    3
    58    54    55    1
    59    54    57    1
    60     9    10    1
