@<TRIPOS>MOLECULE
mol_data/opt/cam/geoms/mol2/6hf6hf-6hf6hf-.out
 50 53 0 0 0
SMALL
GASTEIGER

@<TRIPOS>ATOM
      1 C          -4.0058   -2.0456   -0.7478 C.ar    1  LIG1        0.1170
      2 C          -3.1968   -2.4036    0.3447 C.ar    1  LIG1       -0.0186
      3 C          -3.0435   -1.4940    1.3627 C.ar    1  LIG1       -0.0148
      4 C          -3.6908   -0.2518    1.3156 C.ar    1  LIG1        0.1429
      5 C          -4.4752    0.0219    0.1872 C.ar    1  LIG1        0.1177
      6 N          -4.6126   -0.8725   -0.8128 N.ar    1  LIG1       -0.2287
      7 H          -2.4378   -1.7148    2.2349 H       1  LIG1        0.0656
      8 H          -2.7157   -3.3752    0.3817 H       1  LIG1        0.0653
      9 N          -4.2424   -2.9358   -1.7873 N.pl3   1  LIG1       -0.3431
     10 H          -4.6167   -2.4859   -2.6101 H       1  LIG1        0.1437
     11 H          -3.4975   -3.5857   -1.9889 H       1  LIG1        0.1437
     12 O          -3.5539    0.5571    2.3894 O.3     1  LIG1       -0.5046
     13 H          -3.5806    1.5016    2.1003 H       1  LIG1        0.2922
     14 C          -4.9029    2.5485    0.3880 C.ar    1  LIG1        0.1264
     15 C          -5.2942    1.2510    0.0264 C.ar    1  LIG1        0.0470
     16 C          -6.5513    1.1477   -0.5596 C.ar    1  LIG1       -0.0055
     17 C          -7.3714    2.2554   -0.6858 C.ar    1  LIG1        0.1436
     18 C          -6.9315    3.4951   -0.2046 C.ar    1  LIG1        0.1177
     19 N          -5.6918    3.6052    0.2851 N.ar    1  LIG1       -0.2280
     20 H          -6.8708    0.1733   -0.9173 H       1  LIG1        0.0662
     21 N          -3.6151    2.7917    0.9266 N.pl3   1  LIG1       -0.3426
     22 H          -2.8695    2.4728    0.3145 H       1  LIG1        0.1437
     23 H          -3.5137    3.7835    1.1152 H       1  LIG1        0.1437
     24 O          -8.6041    2.1720   -1.2795 O.3     1  LIG1       -0.5046
     25 H          -8.7324    1.2768   -1.6155 H       1  LIG1        0.2922
     26 C          -9.0640    4.8944    0.1417 C.ar    1  LIG1        0.1264
     27 C          -7.7151    4.7540   -0.2709 C.ar    1  LIG1        0.0470
     28 C          -7.0635    5.9062   -0.6743 C.ar    1  LIG1       -0.0055
     29 C          -7.6975    7.1480   -0.6878 C.ar    1  LIG1        0.1436
     30 C          -9.0344    7.1864   -0.2685 C.ar    1  LIG1        0.1177
     31 N          -9.6717    6.0734    0.1301 N.ar    1  LIG1       -0.2280
     32 H          -6.0210    5.8616   -0.9660 H       1  LIG1        0.0662
     33 N          -9.7950    3.8387    0.6649 N.pl3   1  LIG1       -0.3426
     34 H         -10.7596    4.1086    0.8006 H       1  LIG1        0.1437
     35 H          -9.6954    2.9697    0.1562 H       1  LIG1        0.1437
     36 O          -6.9578    8.2247   -1.0414 O.3     1  LIG1       -0.5046
     37 H          -7.5342    8.8779   -1.5071 H       1  LIG1        0.2922
     38 C          -9.8124    9.5032   -1.0411 C.ar    1  LIG1        0.1257
     39 C          -9.8261    8.4374   -0.1300 C.ar    1  LIG1        0.0469
     40 C         -10.6714    8.5718    0.9701 C.ar    1  LIG1       -0.0061
     41 C         -11.3877    9.7424    1.1610 C.ar    1  LIG1        0.1356
     42 C         -11.2469   10.7611    0.2231 C.ar    1  LIG1        0.0711
     43 N         -10.4913   10.6301   -0.8607 N.ar    1  LIG1       -0.2364
     44 H         -10.7402    7.7441    1.6694 H       1  LIG1        0.0662
     45 H         -11.7810   11.6972    0.3585 H       1  LIG1        0.0867
     46 N          -9.0279    9.4381   -2.2212 N.pl3   1  LIG1       -0.3426
     47 H          -9.2542    8.6296   -2.7935 H       1  LIG1        0.1437
     48 H          -9.1636   10.2899   -2.7552 H       1  LIG1        0.1437
     49 O         -12.2151    9.9592    2.2196 O.3     1  LIG1       -0.5052
     50 H         -12.2088    9.1839    2.7930 H       1  LIG1        0.2922
@<TRIPOS>BOND
     1    47    46    1
     2    48    46    1
     3    10     9    1
     4    46    38    1
     5    11     9    1
     6     9     1    1
     7    25    24    1
     8    37    36    1
     9    24    17    1
    10    36    29    1
    11    38    43   ar
    12    38    39   ar
    13    32    28    1
    14    20    16    1
    15    43    42   ar
    16     6     1   ar
    17     6     5   ar
    18     1     2   ar
    19    29    28   ar
    20    29    30   ar
    21    17    16   ar
    22    17    18   ar
    23    28    27   ar
    24    16    15   ar
    25    27    18    1
    26    27    26   ar
    27    30    39    1
    28    30    31   ar
    29    18    19   ar
    30    39    40   ar
    31    15     5    1
    32    15    14   ar
    33    31    26   ar
    34    26    33    1
    35    35    33    1
    36     5     4   ar
    37    42    45    1
    38    42    41   ar
    39    19    14   ar
    40    22    21    1
    41     2     8    1
    42     2     3   ar
    43    14    21    1
    44    33    34    1
    45    21    23    1
    46    40    41   ar
    47    40    44    1
    48    41    49    1
    49     4     3   ar
    50     4    12    1
    51     3     7    1
    52    13    12    1
    53    49    50    1
