@<TRIPOS>MOLECULE
mol_data/opt/cam/geoms/mol2/6hf6hf6hf6hf-.out
 50 53 0 0 0
SMALL
GASTEIGER

@<TRIPOS>ATOM
      1 C          -3.8580   -1.9460   -1.0566 C.ar    1  LIG1        0.1170
      2 C          -2.9433   -2.2575   -0.0383 C.ar    1  LIG1       -0.0186
      3 C          -2.8785   -1.4268    1.0572 C.ar    1  LIG1       -0.0148
      4 C          -3.6933   -0.2968    1.1242 C.ar    1  LIG1        0.1429
      5 C          -4.5483   -0.0311    0.0526 C.ar    1  LIG1        0.1177
      6 N          -4.6280   -0.8673   -0.9990 N.ar    1  LIG1       -0.2287
      7 H          -2.2101   -1.6326    1.8860 H       1  LIG1        0.0656
      8 H          -2.3231   -3.1446   -0.1051 H       1  LIG1        0.0653
      9 N          -4.0318   -2.7808   -2.1493 N.pl3   1  LIG1       -0.3431
     10 H          -4.4787   -2.3279   -2.9331 H       1  LIG1        0.1437
     11 H          -3.2362   -3.3440   -2.4080 H       1  LIG1        0.1437
     12 O          -3.5996    0.4744    2.2443 O.3     1  LIG1       -0.5046
     13 H          -4.3565    1.0738    2.2812 H       1  LIG1        0.2922
     14 C          -6.7641    1.1287   -0.4138 C.ar    1  LIG1        0.1264
     15 C          -5.4137    1.1752    0.0261 C.ar    1  LIG1        0.0470
     16 C          -4.9344    2.4124    0.4323 C.ar    1  LIG1       -0.0055
     17 C          -5.7462    3.5434    0.4188 C.ar    1  LIG1        0.1436
     18 C          -7.0600    3.4074   -0.0316 C.ar    1  LIG1        0.1177
     19 N          -7.5338    2.2113   -0.4197 N.ar    1  LIG1       -0.2280
     20 H          -3.9060    2.5315    0.7579 H       1  LIG1        0.0662
     21 N          -7.3479   -0.0512   -0.8097 N.pl3   1  LIG1       -0.3426
     22 H          -8.2136    0.0802   -1.3107 H       1  LIG1        0.1437
     23 H          -6.7018   -0.7218   -1.2066 H       1  LIG1        0.1437
     24 O          -5.1936    4.7097    0.8572 O.3     1  LIG1       -0.5046
     25 H          -5.8938    5.3622    0.9907 H       1  LIG1        0.2922
     26 C          -9.3493    4.4673    0.3009 C.ar    1  LIG1        0.1264
     27 C          -7.9876    4.5633   -0.0992 C.ar    1  LIG1        0.0470
     28 C          -7.5688    5.7956   -0.5744 C.ar    1  LIG1       -0.0055
     29 C          -8.4212    6.9034   -0.6136 C.ar    1  LIG1        0.1436
     30 C          -9.7373    6.7131   -0.1748 C.ar    1  LIG1        0.1177
     31 N         -10.1623    5.5126    0.2585 N.ar    1  LIG1       -0.2280
     32 H          -6.5578    5.9379   -0.9429 H       1  LIG1        0.0662
     33 N          -9.8675    3.2934    0.7973 N.pl3   1  LIG1       -0.3426
     34 H         -10.8751    3.2969    0.8476 H       1  LIG1        0.1437
     35 H          -9.4396    2.4562    0.4229 H       1  LIG1        0.1437
     36 O          -7.8896    8.0794   -1.0163 O.3     1  LIG1       -0.5046
     37 H          -8.5809    8.6056   -1.4904 H       1  LIG1        0.2922
     38 C         -10.9219    8.8355   -0.9917 C.ar    1  LIG1        0.1257
     39 C         -10.7413    7.8037   -0.0597 C.ar    1  LIG1        0.0469
     40 C         -11.5946    7.8061    1.0431 C.ar    1  LIG1       -0.0061
     41 C         -12.5077    8.8336    1.2164 C.ar    1  LIG1        0.1356
     42 C         -12.5522    9.8436    0.2592 C.ar    1  LIG1        0.0711
     43 N         -11.7893    9.8273   -0.8269 N.ar    1  LIG1       -0.2364
     44 H         -11.5134    6.9929    1.7577 H       1  LIG1        0.0662
     45 H         -13.2432   10.6727    0.3810 H       1  LIG1        0.0867
     46 N         -10.1464    8.8853   -2.1795 N.pl3   1  LIG1       -0.3426
     47 H         -10.2468    8.0454   -2.7427 H       1  LIG1        0.1437
     48 H         -10.4251    9.6974   -2.7202 H       1  LIG1        0.1437
     49 O         -13.3580    8.9206    2.2747 O.3     1  LIG1       -0.5052
     50 H         -13.2199    8.1661    2.8591 H       1  LIG1        0.2922
@<TRIPOS>BOND
     1    10     9    1
     2    47    46    1
     3    48    46    1
     4    11     9    1
     5    46    38    1
     6     9     1    1
     7    37    36    1
     8    22    21    1
     9    23    21    1
    10     1     6   ar
    11     1     2   ar
    12    36    29    1
    13     6     5   ar
    14    38    43   ar
    15    38    39   ar
    16    32    28    1
    17    43    42   ar
    18    21    14    1
    19    29    28   ar
    20    29    30   ar
    21    28    27   ar
    22    19    14   ar
    23    19    18   ar
    24    14    15   ar
    25    30    39    1
    26    30    31   ar
    27     8     2    1
    28    27    18    1
    29    27    26   ar
    30    39    40   ar
    31     2     3   ar
    32    18    17   ar
    33    15     5    1
    34    15    16   ar
    35     5     4   ar
    36    31    26   ar
    37    42    45    1
    38    42    41   ar
    39    26    33    1
    40    17    16   ar
    41    17    24    1
    42    35    33    1
    43    16    20    1
    44    33    34    1
    45    24    25    1
    46    40    41   ar
    47    40    44    1
    48     3     4   ar
    49     3     7    1
    50     4    12    1
    51    41    49    1
    52    12    13    1
    53    49    50    1
