@<TRIPOS>MOLECULE
mol_data/opt/cam/geoms/mol2/6hf6hf-6hf.out
 38 40 0 0 0
SMALL
GASTEIGER

@<TRIPOS>ATOM
      1 C          -4.4327   -2.1475   -0.2109 C.ar    1  LIG1        0.1170
      2 C          -3.0699   -2.2104    0.1281 C.ar    1  LIG1       -0.0186
      3 C          -2.4080   -1.0317    0.3728 C.ar    1  LIG1       -0.0148
      4 C          -3.0815    0.1952    0.3000 C.ar    1  LIG1        0.1429
      5 C          -4.4380    0.1638   -0.0501 C.ar    1  LIG1        0.1177
      6 N          -5.0786   -0.9967   -0.2970 N.ar    1  LIG1       -0.2287
      7 H          -1.3586   -1.0161    0.6462 H       1  LIG1        0.0656
      8 H          -2.5616   -3.1661    0.2012 H       1  LIG1        0.0653
      9 N          -5.1738   -3.3029   -0.4217 N.pl3   1  LIG1       -0.3431
     10 H          -6.0482   -3.1258   -0.8948 H       1  LIG1        0.1437
     11 H          -4.6662   -4.0898   -0.7970 H       1  LIG1        0.1437
     12 O          -2.3836    1.3041    0.6323 O.3     1  LIG1       -0.5046
     13 H          -2.7110    2.0736    0.1058 H       1  LIG1        0.2922
     14 C          -4.9511    2.6260   -0.5782 C.ar    1  LIG1        0.1264
     15 C          -5.3124    1.3646   -0.0840 C.ar    1  LIG1        0.0470
     16 C          -6.6142    1.2593    0.3942 C.ar    1  LIG1       -0.0055
     17 C          -7.4502    2.3617    0.4338 C.ar    1  LIG1        0.1436
     18 C          -6.9875    3.5928   -0.0482 C.ar    1  LIG1        0.1177
     19 N          -5.7489    3.6813   -0.5449 N.ar    1  LIG1       -0.2280
     20 H          -6.9496    0.2932    0.7599 H       1  LIG1        0.0662
     21 N          -3.6654    2.8438   -1.1335 N.pl3   1  LIG1       -0.3426
     22 H          -3.4636    2.2102   -1.9019 H       1  LIG1        0.1437
     23 H          -3.5996    3.8052   -1.4509 H       1  LIG1        0.1437
     24 O          -8.7104    2.2871    0.9656 O.3     1  LIG1       -0.5046
     25 H          -8.8517    1.4024    1.3233 H       1  LIG1        0.2922
     26 C          -9.0920    5.0079   -0.4730 C.ar    1  LIG1        0.1257
     27 C          -7.7609    4.8604   -0.0110 C.ar    1  LIG1        0.0469
     28 C          -7.0976    6.0026    0.4167 C.ar    1  LIG1       -0.0061
     29 C          -7.7390    7.2334    0.4022 C.ar    1  LIG1        0.1356
     30 C          -9.0430    7.2722   -0.0648 C.ar    1  LIG1        0.0711
     31 N          -9.6988    6.1947   -0.4861 N.ar    1  LIG1       -0.2364
     32 H          -6.0690    5.9369    0.7509 H       1  LIG1        0.0662
     33 H          -9.5881    8.2164   -0.1000 H       1  LIG1        0.0867
     34 N          -9.8109    3.9573   -1.0212 N.pl3   1  LIG1       -0.3426
     35 H         -10.7649    4.2394   -1.2009 H       1  LIG1        0.1437
     36 H          -9.7430    3.0893   -0.5058 H       1  LIG1        0.1437
     37 O          -7.0594    8.3335    0.8420 O.3     1  LIG1       -0.5052
     38 H          -7.6300    9.1072    0.7660 H       1  LIG1        0.2922
@<TRIPOS>BOND
     1    22    21    1
     2    23    21    1
     3    35    34    1
     4    21    14    1
     5    34    36    1
     6    34    26    1
     7    10     9    1
     8    11     9    1
     9    14    19   ar
    10    14    15   ar
    11    19    18   ar
    12    31    26   ar
    13    31    30   ar
    14    26    27   ar
    15     9     1    1
    16     6     1   ar
    17     6     5   ar
    18     1     2   ar
    19    33    30    1
    20    15     5    1
    21    15    16   ar
    22    30    29   ar
    23     5     4   ar
    24    18    27    1
    25    18    17   ar
    26    27    28   ar
    27    13    12    1
    28     2     8    1
    29     2     3   ar
    30     4     3   ar
    31     4    12    1
    32     3     7    1
    33    16    17   ar
    34    16    20    1
    35    29    28   ar
    36    29    37    1
    37    28    32    1
    38    17    24    1
    39    38    37    1
    40    24    25    1
