@<TRIPOS>MOLECULE
mol_data/opt/cam/geoms/mol2/6hf6hf-4hf6hf.out
 51 54 0 0 0
SMALL
GASTEIGER

@<TRIPOS>ATOM
      1 C          -4.4173   -2.2486    0.0632 C.ar    1  LIG1        0.1170
      2 C          -3.0155   -2.3201    0.1423 C.ar    1  LIG1       -0.0186
      3 C          -2.3035   -1.1459    0.1009 C.ar    1  LIG1       -0.0148
      4 C          -2.9627    0.0863   -0.0020 C.ar    1  LIG1        0.1429
      5 C          -4.3614    0.0632   -0.0812 C.ar    1  LIG1        0.1177
      6 N          -5.0527   -1.0940   -0.0490 N.ar    1  LIG1       -0.2287
      7 H          -1.2210   -1.1358    0.1662 H       1  LIG1        0.0656
      8 H          -2.5152   -3.2774    0.2420 H       1  LIG1        0.0653
      9 N          -5.2000   -3.3916    0.1505 N.pl3   1  LIG1       -0.3431
     10 H          -6.1479   -3.2440   -0.1645 H       1  LIG1        0.1437
     11 H          -4.7848   -4.2405   -0.2023 H       1  LIG1        0.1437
     12 O          -2.1982    1.2013    0.0454 O.3     1  LIG1       -0.5046
     13 H          -2.6083    1.9107   -0.5034 H       1  LIG1        0.2922
     14 C          -4.9335    2.4518   -0.8244 C.ar    1  LIG1        0.1264
     15 C          -5.2090    1.2829   -0.1064 C.ar    1  LIG1        0.0470
     16 C          -6.3959    1.2939    0.6198 C.ar    1  LIG1       -0.0055
     17 C          -7.2000    2.4191    0.6739 C.ar    1  LIG1        0.1435
     18 C          -6.8133    3.5719   -0.0350 C.ar    1  LIG1        0.1162
     19 N          -5.6926    3.5364   -0.7697 N.ar    1  LIG1       -0.2280
     20 H          -6.6698    0.3937    1.1621 H       1  LIG1        0.0662
     21 N          -3.7836    2.5387   -1.6481 N.pl3   1  LIG1       -0.3426
     22 H          -3.7344    1.7795   -2.3215 H       1  LIG1        0.1437
     23 H          -3.7757    3.4292   -2.1330 H       1  LIG1        0.1437
     24 O          -8.3448    2.4357    1.4163 O.3     1  LIG1       -0.5046
     25 H          -8.4035    1.6119    1.9146 H       1  LIG1        0.2922
     26 C          -6.9768    6.0996   -0.0637 C.ar    1  LIG1        0.0348
     27 C          -7.7907    7.2363   -0.0595 C.ar    1  LIG1       -0.0291
     28 C          -7.5967    4.8310   -0.0298 C.ar    1  LIG1        0.0281
     29 C          -9.1814    7.1885   -0.0385 C.ar    1  LIG1        0.0287
     30 H          -7.3131    8.2110   -0.0925 H       1  LIG1        0.0643
     31 C          -8.9942    4.7815   -0.0197 C.ar    1  LIG1       -0.0085
     32 C          -9.7748    5.9219   -0.0192 C.ar    1  LIG1        0.1254
     33 H          -9.4817    3.8136    0.0052 H       1  LIG1        0.0661
     34 N          -5.5970    6.2501   -0.0405 N.pl3   1  LIG1       -0.3574
     35 H          -5.1011    5.4914   -0.4867 H       1  LIG1        0.1423
     36 H          -5.2739    7.1660   -0.3132 H       1  LIG1        0.1423
     37 O         -11.1509    5.8446    0.0005 O.3     1  LIG1       -0.5061
     38 H         -11.4086    4.9247    0.1298 H       1  LIG1        0.2922
     39 C         -10.9727    8.7972   -0.9143 C.ar    1  LIG1        0.1242
     40 C          -9.9468    8.4613    0.0057 C.ar    1  LIG1        0.0286
     41 C          -9.5945    9.4207    0.9443 C.ar    1  LIG1       -0.0076
     42 C         -10.2243   10.6606    0.9561 C.ar    1  LIG1        0.1356
     43 C         -11.2003   10.8946    0.0035 C.ar    1  LIG1        0.0711
     44 N         -11.5694    9.9871   -0.8986 N.ar    1  LIG1       -0.2365
     45 H          -8.8254    9.2109    1.6797 H       1  LIG1        0.0662
     46 H         -11.7179   11.8541   -0.0327 H       1  LIG1        0.0867
     47 N         -11.3584    7.9321   -1.9267 N.pl3   1  LIG1       -0.3427
     48 H         -12.1742    8.2906   -2.4045 H       1  LIG1        0.1437
     49 H         -11.4687    6.9720   -1.6242 H       1  LIG1        0.1437
     50 O          -9.8495   11.5757    1.8992 O.3     1  LIG1       -0.5052
     51 H         -10.3782   12.3745    1.7879 H       1  LIG1        0.2922
@<TRIPOS>BOND
     1    48    47    1
     2    22    21    1
     3    23    21    1
     4    47    49    1
     5    47    39    1
     6    21    14    1
     7    39    44   ar
     8    39    40   ar
     9    44    43   ar
    10    14    19   ar
    11    14    15   ar
    12    19    18   ar
    13    13    12    1
    14    35    34    1
    15    36    34    1
    16    11     9    1
    17    10     9    1
    18    15     5    1
    19    15    16   ar
    20    30    27    1
    21     5     6   ar
    22     5     4   ar
    23    26    27   ar
    24    26    34    1
    25    26    28   ar
    26    27    29   ar
    27     6     1   ar
    28    29    32   ar
    29    29    40    1
    30    18    28    1
    31    18    17   ar
    32    46    43    1
    33    28    31   ar
    34    31    32   ar
    35    31    33    1
    36    32    37    1
    37     4    12    1
    38     4     3   ar
    39    37    38    1
    40    43    42   ar
    41    40    41   ar
    42     1     2   ar
    43     1     9    1
    44     3     2   ar
    45     3     7    1
    46     2     8    1
    47    16    17   ar
    48    16    20    1
    49    17    24    1
    50    41    42   ar
    51    41    45    1
    52    42    50    1
    53    24    25    1
    54    51    50    1
