@<TRIPOS>MOLECULE
mol_data/opt/cam/geoms/mol2/6hf6hf.out
 26 27 0 0 0
SMALL
GASTEIGER

@<TRIPOS>ATOM
      1 C          -4.4330   -2.0562   -0.5030 C.ar    1  LIG1        0.1170
      2 C          -3.0870   -2.0777   -0.1060 C.ar    1  LIG1       -0.0186
      3 C          -2.5279   -0.9129    0.3693 C.ar    1  LIG1       -0.0148
      4 C          -3.2910    0.2528    0.4267 C.ar    1  LIG1        0.1429
      5 C          -4.6126    0.2036   -0.0223 C.ar    1  LIG1        0.1177
      6 N          -5.1587   -0.9465   -0.4567 N.ar    1  LIG1       -0.2287
      7 H          -1.5004   -0.8769    0.7143 H       1  LIG1        0.0656
      8 H          -2.5124   -2.9964   -0.1507 H       1  LIG1        0.0653
      9 N          -5.0808   -3.2098   -0.9180 N.pl3   1  LIG1       -0.3431
     10 H          -5.9267   -3.0276   -1.4382 H       1  LIG1        0.1437
     11 H          -4.4974   -3.9205   -1.3323 H       1  LIG1        0.1437
     12 O          -2.6903    1.3700    0.9263 O.3     1  LIG1       -0.5046
     13 H          -3.3671    2.0338    1.1145 H       1  LIG1        0.2922
     14 C          -6.8309    1.3743    0.3968 C.ar    1  LIG1        0.1257
     15 C          -5.4754    1.4132   -0.0310 C.ar    1  LIG1        0.0469
     16 C          -4.9828    2.6330   -0.4804 C.ar    1  LIG1       -0.0061
     17 C          -5.7910    3.7662   -0.4673 C.ar    1  LIG1        0.1356
     18 C          -7.0868    3.6255   -0.0011 C.ar    1  LIG1        0.0711
     19 N          -7.5956    2.4647    0.4073 N.ar    1  LIG1       -0.2364
     20 H          -3.9722    2.7169   -0.8668 H       1  LIG1        0.0662
     21 H          -7.7555    4.4863    0.0341 H       1  LIG1        0.0867
     22 N          -7.4012    0.2149    0.8637 N.pl3   1  LIG1       -0.3426
     23 H          -8.4041    0.2751    0.9547 H       1  LIG1        0.1437
     24 H          -7.0321   -0.6339    0.4562 H       1  LIG1        0.1437
     25 O          -5.2660    4.9448   -0.9141 O.3     1  LIG1       -0.5052
     26 H          -5.9426    5.6305   -0.8678 H       1  LIG1        0.2922
@<TRIPOS>BOND
     1    10     9    1
     2    11     9    1
     3     9     1    1
     4    25    26    1
     5    25    17    1
     6    20    16    1
     7     1     6   ar
     8     1     2   ar
     9    16    17   ar
    10    16    15   ar
    11    17    18   ar
    12     6     5   ar
    13     8     2    1
    14     2     3   ar
    15    15     5    1
    16    15    14   ar
    17     5     4   ar
    18    18    21    1
    19    18    19   ar
    20     3     4   ar
    21     3     7    1
    22    14    19   ar
    23    14    22    1
    24     4    12    1
    25    24    22    1
    26    22    23    1
    27    12    13    1
