@<TRIPOS>MOLECULE
mol_data/opt/cam/geoms/mol2/6hf6hf6hf6hf.out
 50 53 0 0 0
SMALL
GASTEIGER

@<TRIPOS>ATOM
      1 C          -3.8736   -1.9237   -1.1842 C.ar    1  LIG1        0.1170
      2 C          -2.8929   -2.2131   -0.2221 C.ar    1  LIG1       -0.0186
      3 C          -2.7748   -1.3740    0.8622 C.ar    1  LIG1       -0.0148
      4 C          -3.6022   -0.2566    0.9723 C.ar    1  LIG1        0.1429
      5 C          -4.5251   -0.0118   -0.0465 C.ar    1  LIG1        0.1177
      6 N          -4.6561   -0.8570   -1.0858 N.ar    1  LIG1       -0.2287
      7 H          -2.0537   -1.5633    1.6497 H       1  LIG1        0.0656
      8 H          -2.2634   -3.0905   -0.3216 H       1  LIG1        0.0653
      9 N          -4.1006   -2.7687   -2.2585 N.pl3   1  LIG1       -0.3431
     10 H          -4.6019   -2.3296   -3.0168 H       1  LIG1        0.1437
     11 H          -3.3150   -3.3243   -2.5605 H       1  LIG1        0.1437
     12 O          -3.4517    0.5239    2.0800 O.3     1  LIG1       -0.5046
     13 H          -4.2178    1.1064    2.1650 H       1  LIG1        0.2922
     14 C          -6.7824    1.1123   -0.3891 C.ar    1  LIG1        0.1264
     15 C          -5.4090    1.1812   -0.0285 C.ar    1  LIG1        0.0470
     16 C          -4.9267    2.4271    0.3447 C.ar    1  LIG1       -0.0055
     17 C          -5.7551    3.5459    0.3728 C.ar    1  LIG1        0.1436
     18 C          -7.0888    3.3895   -0.0046 C.ar    1  LIG1        0.1177
     19 N          -7.5669    2.1839   -0.3566 N.ar    1  LIG1       -0.2280
     20 H          -3.8839    2.5632    0.6124 H       1  LIG1        0.0662
     21 N          -7.3702   -0.0777   -0.7434 N.pl3   1  LIG1       -0.3426
     22 H          -8.2655    0.0359   -1.1942 H       1  LIG1        0.1437
     23 H          -6.7381   -0.7442   -1.1689 H       1  LIG1        0.1437
     24 O          -5.1958    4.7232    0.7752 O.3     1  LIG1       -0.5046
     25 H          -5.8984    5.3518    0.9868 H       1  LIG1        0.2922
     26 C          -9.3722    4.4174    0.4378 C.ar    1  LIG1        0.1264
     27 C          -8.0357    4.5316   -0.0318 C.ar    1  LIG1        0.0470
     28 C          -7.6525    5.7724   -0.5218 C.ar    1  LIG1       -0.0055
     29 C          -8.5355    6.8480   -0.5360 C.ar    1  LIG1        0.1436
     30 C          -9.8309    6.6462   -0.0581 C.ar    1  LIG1        0.1177
     31 N         -10.2072    5.4508    0.4250 N.ar    1  LIG1       -0.2280
     32 H          -6.6566    5.9297   -0.9231 H       1  LIG1        0.0662
     33 N          -9.8460    3.2424    0.9701 N.pl3   1  LIG1       -0.3426
     34 H         -10.8513    3.2174    1.0507 H       1  LIG1        0.1437
     35 H          -9.4084    2.4103    0.5942 H       1  LIG1        0.1437
     36 O          -8.0645    8.0345   -1.0167 O.3     1  LIG1       -0.5046
     37 H          -8.6806    8.7387   -0.7751 H       1  LIG1        0.2922
     38 C         -11.7129    7.9512    1.0441 C.ar    1  LIG1        0.1257
     39 C         -10.8424    7.7328   -0.0590 C.ar    1  LIG1        0.0469
     40 C         -10.9832    8.5716   -1.1592 C.ar    1  LIG1       -0.0061
     41 C         -11.9189    9.6014   -1.1433 C.ar    1  LIG1        0.1356
     42 C         -12.6942    9.7476   -0.0056 C.ar    1  LIG1        0.0711
     43 N         -12.6033    8.9416    1.0503 N.ar    1  LIG1       -0.2364
     44 H         -10.3865    8.4229   -2.0535 H       1  LIG1        0.0662
     45 H         -13.4364   10.5442    0.0561 H       1  LIG1        0.0867
     46 N         -11.6424    7.1762    2.1764 N.pl3   1  LIG1       -0.3426
     47 H         -12.4273    7.3090    2.7960 H       1  LIG1        0.1437
     48 H         -11.3451    6.2223    2.0184 H       1  LIG1        0.1437
     49 O         -12.0222   10.4035   -2.2433 O.3     1  LIG1       -0.5052
     50 H         -12.7227   11.0505   -2.0991 H       1  LIG1        0.2922
@<TRIPOS>BOND
     1    10     9    1
     2    11     9    1
     3     9     1    1
     4    49    50    1
     5    49    41    1
     6    44    40    1
     7    22    21    1
     8     1     6   ar
     9     1     2   ar
    10    23    21    1
    11    40    41   ar
    12    40    39   ar
    13    41    42   ar
    14     6     5   ar
    15    36    37    1
    16    36    29    1
    17    32    28    1
    18    21    14    1
    19    29    28   ar
    20    29    30   ar
    21    28    27   ar
    22    14    19   ar
    23    14    15   ar
    24    19    18   ar
    25     8     2    1
    26     2     3   ar
    27    39    30    1
    28    39    38   ar
    29    30    31   ar
    30     5    15    1
    31     5     4   ar
    32    27    18    1
    33    27    26   ar
    34    15    16   ar
    35    42    45    1
    36    42    43   ar
    37    18    17   ar
    38    16    17   ar
    39    16    20    1
    40    17    24    1
    41    31    26   ar
    42    26    33    1
    43    35    33    1
    44    24    25    1
    45     3     4   ar
    46     3     7    1
    47    33    34    1
    48     4    12    1
    49    38    43   ar
    50    38    46    1
    51    48    46    1
    52    12    13    1
    53    46    47    1
