@<TRIPOS>MOLECULE
mol_data/opt/cam/geoms/mol2/6hf6hf6hf.out
 38 40 0 0 0
SMALL
GASTEIGER

@<TRIPOS>ATOM
      1 C          -4.2095   -2.0283   -0.8982 C.ar    1  LIG1        0.1170
      2 C          -3.0112   -2.1593   -0.1786 C.ar    1  LIG1       -0.0186
      3 C          -2.6322   -1.1285    0.6509 C.ar    1  LIG1       -0.0148
      4 C          -3.4209    0.0181    0.7427 C.ar    1  LIG1        0.1429
      5 C          -4.5775    0.0917   -0.0359 C.ar    1  LIG1        0.1177
      6 N          -4.9570   -0.9352   -0.8189 N.ar    1  LIG1       -0.2287
      7 H          -1.7307   -1.1858    1.2509 H       1  LIG1        0.0656
      8 H          -2.4150   -3.0617   -0.2578 H       1  LIG1        0.0653
      9 N          -4.6908   -3.0590   -1.6898 N.pl3   1  LIG1       -0.3431
     10 H          -5.3771   -2.7586   -2.3666 H       1  LIG1        0.1437
     11 H          -3.9993   -3.6887   -2.0672 H       1  LIG1        0.1437
     12 O          -3.0045    0.9952    1.5974 O.3     1  LIG1       -0.5046
     13 H          -3.7315    1.6127    1.7517 H       1  LIG1        0.2922
     14 C          -6.8634    1.2083   -0.0058 C.ar    1  LIG1        0.1264
     15 C          -5.4454    1.2966   -0.0311 C.ar    1  LIG1        0.0470
     16 C          -4.9021    2.5733   -0.0535 C.ar    1  LIG1       -0.0055
     17 C          -5.7131    3.7045   -0.0401 C.ar    1  LIG1        0.1436
     18 C          -7.0965    3.5253   -0.0203 C.ar    1  LIG1        0.1177
     19 N          -7.6304    2.2931    0.0110 N.ar    1  LIG1       -0.2280
     20 H          -3.8278    2.7203   -0.0970 H       1  LIG1        0.0662
     21 N          -7.5043   -0.0062    0.0491 N.pl3   1  LIG1       -0.3426
     22 H          -8.4877    0.0505   -0.1689 H       1  LIG1        0.1437
     23 H          -6.9951   -0.7658   -0.3850 H       1  LIG1        0.1437
     24 O          -5.0902    4.9181   -0.0432 O.3     1  LIG1       -0.5046
     25 H          -5.7334    5.6022    0.1856 H       1  LIG1        0.2922
     26 C          -9.1910    4.7128    0.7947 C.ar    1  LIG1        0.1257
     27 C          -8.0338    4.6767   -0.0310 C.ar    1  LIG1        0.0469
     28 C          -7.8156    5.7621   -0.8724 C.ar    1  LIG1       -0.0061
     29 C          -8.6871    6.8470   -0.8612 C.ar    1  LIG1        0.1356
     30 C          -9.7656    6.7957    0.0053 C.ar    1  LIG1        0.0711
     31 N         -10.0173    5.7573    0.7998 N.ar    1  LIG1       -0.2364
     32 H          -6.9805    5.7707   -1.5655 H       1  LIG1        0.0662
     33 H         -10.4722    7.6250    0.0543 H       1  LIG1        0.0867
     34 N          -9.4840    3.6880    1.6616 N.pl3   1  LIG1       -0.3426
     35 H         -10.4159    3.7469    2.0434 H       1  LIG1        0.1437
     36 H          -9.1754    2.7743    1.3560 H       1  LIG1        0.1437
     37 O          -8.4341    7.8935   -1.7008 O.3     1  LIG1       -0.5052
     38 H          -9.1288    8.5549   -1.6006 H       1  LIG1        0.2922
@<TRIPOS>BOND
     1    10     9    1
     2    11     9    1
     3    37    38    1
     4    37    29    1
     5     9     1    1
     6    32    28    1
     7     1     6   ar
     8     1     2   ar
     9    28    29   ar
    10    28    27   ar
    11    29    30   ar
    12     6     5   ar
    13    23    21    1
    14     8     2    1
    15     2     3   ar
    16    22    21    1
    17    20    16    1
    18    16    17   ar
    19    16    15   ar
    20    24    17    1
    21    24    25    1
    22    17    18   ar
    23     5    15    1
    24     5     4   ar
    25    15    14   ar
    26    27    18    1
    27    27    26   ar
    28    18    19   ar
    29    14    19   ar
    30    14    21    1
    31    30    33    1
    32    30    31   ar
    33     3     4   ar
    34     3     7    1
    35     4    12    1
    36    26    31   ar
    37    26    34    1
    38    36    34    1
    39    12    13    1
    40    34    35    1
