@<TRIPOS>MOLECULE
mol_data/opt/cam/geoms/mol2/6hf6hf6hf-6hf.out
 50 53 0 0 0
SMALL
GASTEIGER

@<TRIPOS>ATOM
      1 C          -4.1204   -2.1496   -0.6747 C.ar    1  LIG1        0.1170
      2 C          -2.9861   -2.2780    0.1421 C.ar    1  LIG1       -0.0186
      3 C          -2.6425   -1.2200    0.9527 C.ar    1  LIG1       -0.0148
      4 C          -3.4033   -0.0511    0.9335 C.ar    1  LIG1        0.1429
      5 C          -4.4970    0.0139    0.0673 C.ar    1  LIG1        0.1177
      6 N          -4.8418   -1.0367   -0.7002 N.ar    1  LIG1       -0.2287
      7 H          -1.7909   -1.2720    1.6222 H       1  LIG1        0.0656
      8 H          -2.4114   -3.1976    0.1489 H       1  LIG1        0.0653
      9 N          -4.5669   -3.2029   -1.4584 N.pl3   1  LIG1       -0.3431
     10 H          -5.1906   -2.9146   -2.1981 H       1  LIG1        0.1437
     11 H          -3.8635   -3.8608   -1.7577 H       1  LIG1        0.1437
     12 O          -3.0252    0.9522    1.7739 O.3     1  LIG1       -0.5046
     13 H          -3.7288    1.6133    1.8167 H       1  LIG1        0.2922
     14 C          -6.7537    1.1796   -0.1141 C.ar    1  LIG1        0.1264
     15 C          -5.3338    1.2358   -0.0390 C.ar    1  LIG1        0.0470
     16 C          -4.7623    2.4966   -0.0853 C.ar    1  LIG1       -0.0055
     17 C          -5.5365    3.6597   -0.1536 C.ar    1  LIG1        0.1436
     18 C          -6.9262    3.4996   -0.2029 C.ar    1  LIG1        0.1177
     19 N          -7.4906    2.2780   -0.1875 N.ar    1  LIG1       -0.2280
     20 H          -3.6841    2.6210   -0.0744 H       1  LIG1        0.0662
     21 N          -7.4248   -0.0201   -0.0635 N.pl3   1  LIG1       -0.3426
     22 H          -8.3938    0.0569   -0.3330 H       1  LIG1        0.1437
     23 H          -6.9124   -0.8033   -0.4480 H       1  LIG1        0.1437
     24 O          -4.8809    4.8412   -0.1047 O.3     1  LIG1       -0.5046
     25 H          -5.3735    5.5157   -0.6339 H       1  LIG1        0.2922
     26 C          -7.7502    5.8396   -0.8692 C.ar    1  LIG1        0.1264
     27 C          -7.8939    4.6258   -0.1823 C.ar    1  LIG1        0.0470
     28 C          -9.0614    4.4928    0.5623 C.ar    1  LIG1       -0.0055
     29 C          -9.9658    5.5356    0.6606 C.ar    1  LIG1        0.1436
     30 C          -9.7164    6.7292   -0.0295 C.ar    1  LIG1        0.1177
     31 N          -8.6143    6.8377   -0.7791 N.ar    1  LIG1       -0.2280
     32 H          -9.2315    3.5564    1.0855 H       1  LIG1        0.0662
     33 N          -6.6276    6.0702   -1.7037 N.pl3   1  LIG1       -0.3426
     34 H          -6.5368    5.3669   -2.4317 H       1  LIG1        0.1437
     35 H          -6.7093    6.9911   -2.1218 H       1  LIG1        0.1437
     36 O         -11.0844    5.4433    1.4455 O.3     1  LIG1       -0.5046
     37 H         -11.0778    4.5977    1.9099 H       1  LIG1        0.2922
     38 C         -11.9772    7.9491   -0.1477 C.ar    1  LIG1        0.1257
     39 C         -10.5729    7.9408    0.0392 C.ar    1  LIG1        0.0469
     40 C          -9.9376    9.1647    0.2009 C.ar    1  LIG1       -0.0061
     41 C         -10.6719   10.3424    0.1964 C.ar    1  LIG1        0.1356
     42 C         -12.0416   10.2441    0.0108 C.ar    1  LIG1        0.0711
     43 N         -12.6736    9.0858   -0.1534 N.ar    1  LIG1       -0.2364
     44 H          -8.8610    9.2035    0.3176 H       1  LIG1        0.0662
     45 H         -12.6616   11.1415   -0.0045 H       1  LIG1        0.0867
     46 N         -12.6988    6.7990   -0.4259 N.pl3   1  LIG1       -0.3426
     47 H         -13.6901    6.9975   -0.4303 H       1  LIG1        0.1437
     48 H         -12.4549    6.0019    0.1474 H       1  LIG1        0.1437
     49 O         -10.0147   11.5270    0.3708 O.3     1  LIG1       -0.5052
     50 H         -10.6530   12.2491    0.3373 H       1  LIG1        0.2922
@<TRIPOS>BOND
     1    34    33    1
     2    10     9    1
     3    35    33    1
     4    11     9    1
     5    33    26    1
     6     9     1    1
     7    26    31   ar
     8    26    27   ar
     9    31    30   ar
    10     6     1   ar
    11     6     5   ar
    12     1     2   ar
    13    25    24    1
    14    23    21    1
    15    47    46    1
    16    46    38    1
    17    46    48    1
    18    22    21    1
    19    18    19   ar
    20    18    27    1
    21    18    17   ar
    22    19    14   ar
    23    27    28   ar
    24    17    24    1
    25    17    16   ar
    26    43    38   ar
    27    43    42   ar
    28    38    39   ar
    29    14    21    1
    30    14    15   ar
    31    16    20    1
    32    16    15   ar
    33    15     5    1
    34    30    39    1
    35    30    29   ar
    36    45    42    1
    37    42    41   ar
    38    39    40   ar
    39     5     4   ar
    40     2     8    1
    41     2     3   ar
    42    41    40   ar
    43    41    49    1
    44    40    44    1
    45    50    49    1
    46    28    29   ar
    47    28    32    1
    48    29    36    1
    49     4     3   ar
    50     4    12    1
    51     3     7    1
    52    36    37    1
    53    12    13    1
