@<TRIPOS>MOLECULE
mol_data/opt/cam/geoms/mol2/6hf6hf-.out
 26 27 0 0 0
SMALL
GASTEIGER

@<TRIPOS>ATOM
      1 C          -4.5179   -2.0567   -0.3372 C.ar    1  LIG1        0.1170
      2 C          -3.2050   -2.1664    0.1518 C.ar    1  LIG1       -0.0186
      3 C          -2.5664   -1.0188    0.5557 C.ar    1  LIG1       -0.0148
      4 C          -3.2171    0.2208    0.4951 C.ar    1  LIG1        0.1429
      5 C          -4.5250    0.2368   -0.0080 C.ar    1  LIG1        0.1177
      6 N          -5.1406   -0.8922   -0.4124 N.ar    1  LIG1       -0.2287
      7 H          -1.5555   -1.0396    0.9480 H       1  LIG1        0.0656
      8 H          -2.7168   -3.1333    0.2140 H       1  LIG1        0.0653
      9 N          -5.2390   -3.1816   -0.7172 N.pl3   1  LIG1       -0.3431
     10 H          -6.0527   -2.9550   -1.2706 H       1  LIG1        0.1437
     11 H          -4.6978   -3.9456   -1.0929 H       1  LIG1        0.1437
     12 O          -2.5536    1.2938    0.9804 O.3     1  LIG1       -0.5046
     13 H          -2.8044    2.0976    0.4616 H       1  LIG1        0.2922
     14 C          -4.9443    2.7335   -0.4202 C.ar    1  LIG1        0.1257
     15 C          -5.3805    1.4528   -0.0519 C.ar    1  LIG1        0.0469
     16 C          -6.7305    1.3271    0.2725 C.ar    1  LIG1       -0.0061
     17 C          -7.5511    2.4433    0.2927 C.ar    1  LIG1        0.1356
     18 C          -6.9928    3.6770   -0.0296 C.ar    1  LIG1        0.0711
     19 N          -5.7237    3.8084   -0.3959 N.ar    1  LIG1       -0.2364
     20 H          -7.1106    0.3399    0.5169 H       1  LIG1        0.0662
     21 H          -7.6079    4.5719   -0.0020 H       1  LIG1        0.0867
     22 N          -3.6015    2.9550   -0.8221 N.pl3   1  LIG1       -0.3426
     23 H          -3.3329    2.3760   -1.6128 H       1  LIG1        0.1437
     24 H          -3.4852    3.9353   -1.0565 H       1  LIG1        0.1437
     25 O          -8.8714    2.4063    0.6198 O.3     1  LIG1       -0.5052
     26 H          -9.1230    1.4994    0.8297 H       1  LIG1        0.2922
@<TRIPOS>BOND
     1    23    22    1
     2    10     9    1
     3    11     9    1
     4    24    22    1
     5    22    14    1
     6     9     1    1
     7    14    19   ar
     8    14    15   ar
     9     6     1   ar
    10     6     5   ar
    11    19    18   ar
    12     1     2   ar
    13    15     5    1
    14    15    16   ar
    15    18    21    1
    16    18    17   ar
    17     5     4   ar
    18     2     8    1
    19     2     3   ar
    20    16    17   ar
    21    16    20    1
    22    17    25    1
    23    13    12    1
    24     4     3   ar
    25     4    12    1
    26     3     7    1
    27    25    26    1
