@<TRIPOS>MOLECULE
mol_data/opt/cam/geoms/mol2/6hf6hf-6hf-6hf-.out
 50 53 0 0 0
SMALL
GASTEIGER

@<TRIPOS>ATOM
      1 C          -4.5174   -2.2839   -0.0957 C.ar    1  LIG1        0.1170
      2 C          -3.1282   -2.3951    0.0917 C.ar    1  LIG1       -0.0186
      3 C          -2.3906   -1.2394    0.1742 C.ar    1  LIG1       -0.0148
      4 C          -3.0130    0.0132    0.0881 C.ar    1  LIG1        0.1429
      5 C          -4.4004    0.0299   -0.1050 C.ar    1  LIG1        0.1177
      6 N          -5.1170   -1.1090   -0.1935 N.ar    1  LIG1       -0.2287
      7 H          -1.3171   -1.2608    0.3272 H       1  LIG1        0.0656
      8 H          -2.6579   -3.3689    0.1770 H       1  LIG1        0.0653
      9 N          -5.3277   -3.4093   -0.1362 N.pl3   1  LIG1       -0.3431
     10 H          -6.2438   -3.2234   -0.5173 H       1  LIG1        0.1437
     11 H          -4.9022   -4.2505   -0.4947 H       1  LIG1        0.1437
     12 O          -2.2313    1.1037    0.2611 O.3     1  LIG1       -0.5046
     13 H          -2.5785    1.8532   -0.2760 H       1  LIG1        0.2922
     14 C          -4.8606    2.4689   -0.7576 C.ar    1  LIG1        0.1264
     15 C          -5.2171    1.2702   -0.1290 C.ar    1  LIG1        0.0470
     16 C          -6.4574    1.2728    0.5007 C.ar    1  LIG1       -0.0055
     17 C          -7.2392    2.4134    0.5551 C.ar    1  LIG1        0.1436
     18 C          -6.7730    3.5939   -0.0538 C.ar    1  LIG1        0.1177
     19 N          -5.5980    3.5679   -0.7005 N.ar    1  LIG1       -0.2280
     20 H          -6.7933    0.3518    0.9682 H       1  LIG1        0.0662
     21 N          -3.6485    2.5684   -1.4823 N.pl3   1  LIG1       -0.3426
     22 H          -3.5558    1.8376   -2.1820 H       1  LIG1        0.1437
     23 H          -3.5802    3.4789   -1.9227 H       1  LIG1        0.1437
     24 O          -8.4388    2.4158    1.2062 O.3     1  LIG1       -0.5046
     25 H          -8.5524    1.5685    1.6532 H       1  LIG1        0.2922
     26 C          -6.8851    6.1368   -0.0482 C.ar    1  LIG1        0.1264
     27 C          -7.5223    4.8700   -0.0359 C.ar    1  LIG1        0.0470
     28 C          -8.9139    4.8949   -0.0222 C.ar    1  LIG1       -0.0055
     29 C          -9.6267    6.0817   -0.0065 C.ar    1  LIG1        0.1436
     30 C          -8.9214    7.2936   -0.0087 C.ar    1  LIG1        0.1177
     31 N          -7.5814    7.2716   -0.0273 N.ar    1  LIG1       -0.2280
     32 H          -9.4583    3.9580   -0.0129 H       1  LIG1        0.0662
     33 N          -5.5183    6.2761   -0.0286 N.pl3   1  LIG1       -0.3426
     34 H          -5.0074    5.5045   -0.4324 H       1  LIG1        0.1437
     35 H          -5.2056    7.2052   -0.2647 H       1  LIG1        0.1437
     36 O         -10.9982    6.0815    0.0152 O.3     1  LIG1       -0.5046
     37 H         -11.3020    5.1838    0.1919 H       1  LIG1        0.2922
     38 C          -9.0010    9.7547    0.6280 C.ar    1  LIG1        0.1257
     39 C          -9.5827    8.6194    0.0020 C.ar    1  LIG1        0.0469
     40 C         -10.8093    8.8105   -0.6336 C.ar    1  LIG1       -0.0061
     41 C         -11.4227   10.0527   -0.6291 C.ar    1  LIG1        0.1356
     42 C         -10.7762   11.0926    0.0227 C.ar    1  LIG1        0.0711
     43 N          -9.6031   10.9487    0.6255 N.ar    1  LIG1       -0.2364
     44 H         -11.2866    7.9735   -1.1298 H       1  LIG1        0.0662
     45 H         -11.2329   12.0792    0.0436 H       1  LIG1        0.0867
     46 N          -7.8167    9.6903    1.3195 N.pl3   1  LIG1       -0.3426
     47 H          -7.1738    8.9778    1.0035 H       1  LIG1        0.1437
     48 H          -7.4411   10.5981    1.5462 H       1  LIG1        0.1437
     49 O         -12.6219   10.3094   -1.2376 O.3     1  LIG1       -0.5052
     50 H         -12.9679    9.4877   -1.6033 H       1  LIG1        0.2922
@<TRIPOS>BOND
     1    22    21    1
     2    23    21    1
     3    50    49    1
     4    21    14    1
     5    49    41    1
     6    44    40    1
     7    14    19   ar
     8    14    15   ar
     9    19    18   ar
    10    40    41   ar
    11    40    39   ar
    12    41    42   ar
    13    10     9    1
    14    11     9    1
    15    34    33    1
    16    13    12    1
    17    35    33    1
    18     6     5   ar
    19     6     1   ar
    20     9     1    1
    21    15     5    1
    22    15    16   ar
    23     5     4   ar
    24     1     2   ar
    25    18    27    1
    26    18    17   ar
    27    26    27   ar
    28    26    33    1
    29    26    31   ar
    30    27    28   ar
    31    31    30   ar
    32    28    32    1
    33    28    29   ar
    34    30    29   ar
    35    30    39    1
    36    29    36    1
    37    39    38   ar
    38    36    37    1
    39    42    45    1
    40    42    43   ar
    41     4     3   ar
    42     4    12    1
    43     2     3   ar
    44     2     8    1
    45     3     7    1
    46    16    17   ar
    47    16    20    1
    48    17    24    1
    49    43    38   ar
    50    38    46    1
    51    47    46    1
    52    24    25    1
    53    46    48    1
