@<TRIPOS>MOLECULE
mol_data/opt/cam/geoms/mol2/6hf6hf-6hf-6hf.out
 50 53 0 0 0
SMALL
GASTEIGER

@<TRIPOS>ATOM
      1 C          -4.4400   -2.2561   -0.0450 C.ar    1  LIG1        0.1170
      2 C          -3.0457   -2.3364    0.1175 C.ar    1  LIG1       -0.0186
      3 C          -2.3310   -1.1647    0.1732 C.ar    1  LIG1       -0.0148
      4 C          -2.9810    0.0737    0.0849 C.ar    1  LIG1        0.1429
      5 C          -4.3719    0.0594   -0.0821 C.ar    1  LIG1        0.1177
      6 N          -5.0658   -1.0951   -0.1443 N.ar    1  LIG1       -0.2287
      7 H          -1.2546   -1.1620    0.3060 H       1  LIG1        0.0656
      8 H          -2.5537   -3.2993    0.2046 H       1  LIG1        0.0653
      9 N          -5.2274   -3.3987   -0.0579 N.pl3   1  LIG1       -0.3431
     10 H          -6.1537   -3.2351   -0.4246 H       1  LIG1        0.1437
     11 H          -4.7911   -4.2337   -0.4182 H       1  LIG1        0.1437
     12 O          -2.2195    1.1821    0.2306 O.3     1  LIG1       -0.5046
     13 H          -2.5928    1.9179   -0.3087 H       1  LIG1        0.2922
     14 C          -4.8949    2.4809   -0.7530 C.ar    1  LIG1        0.1264
     15 C          -5.2148    1.2821   -0.1052 C.ar    1  LIG1        0.0470
     16 C          -6.4439    1.2659    0.5460 C.ar    1  LIG1       -0.0055
     17 C          -7.2488    2.3901    0.6007 C.ar    1  LIG1        0.1436
     18 C          -6.8187    3.5731   -0.0297 C.ar    1  LIG1        0.1177
     19 N          -5.6545    3.5644   -0.6955 N.ar    1  LIG1       -0.2280
     20 H          -6.7522    0.3435    1.0294 H       1  LIG1        0.0662
     21 N          -3.6974    2.5984   -1.4996 N.pl3   1  LIG1       -0.3426
     22 H          -3.6035    1.8647   -2.1962 H       1  LIG1        0.1437
     23 H          -3.6562    3.5067   -1.9480 H       1  LIG1        0.1437
     24 O          -8.4374    2.3737    1.2724 O.3     1  LIG1       -0.5046
     25 H          -8.5264    1.5270    1.7260 H       1  LIG1        0.2922
     26 C          -6.9804    6.1151   -0.0574 C.ar    1  LIG1        0.1264
     27 C          -7.5939    4.8339   -0.0163 C.ar    1  LIG1        0.0470
     28 C          -8.9844    4.8287    0.0229 C.ar    1  LIG1       -0.0055
     29 C          -9.7113    6.0071    0.0311 C.ar    1  LIG1        0.1436
     30 C          -9.0302    7.2239   -0.0348 C.ar    1  LIG1        0.1177
     31 N          -7.6944    7.2388   -0.0656 N.ar    1  LIG1       -0.2280
     32 H          -9.5107    3.8825    0.0676 H       1  LIG1        0.0662
     33 N          -5.6183    6.2811   -0.0397 N.pl3   1  LIG1       -0.3426
     34 H          -5.0853    5.5268   -0.4456 H       1  LIG1        0.1437
     35 H          -5.3314    7.2241   -0.2533 H       1  LIG1        0.1437
     36 O         -11.0854    6.0013    0.1192 O.3     1  LIG1       -0.5046
     37 H         -11.3849    5.1002    0.2857 H       1  LIG1        0.2922
     38 C         -10.7839    8.9345   -0.8266 C.ar    1  LIG1        0.1257
     39 C          -9.6831    8.5590   -0.0168 C.ar    1  LIG1        0.0469
     40 C          -9.1103    9.5384    0.7834 C.ar    1  LIG1       -0.0061
     41 C          -9.6267   10.8265    0.7946 C.ar    1  LIG1        0.1356
     42 C         -10.7097   11.0915   -0.0276 C.ar    1  LIG1        0.0711
     43 N         -11.2712   10.1756   -0.8116 N.ar    1  LIG1       -0.2364
     44 H          -8.2453    9.2976    1.3897 H       1  LIG1        0.0662
     45 H         -11.1489   12.0898   -0.0563 H       1  LIG1        0.0867
     46 N         -11.3623    8.0735   -1.7459 N.pl3   1  LIG1       -0.3426
     47 H         -12.1908    8.4926   -2.1459 H       1  LIG1        0.1437
     48 H         -11.5169    7.1348   -1.4000 H       1  LIG1        0.1437
     49 O          -9.0469   11.7615    1.6058 O.3     1  LIG1       -0.5052
     50 H          -9.5067   12.6016    1.4934 H       1  LIG1        0.2922
@<TRIPOS>BOND
     1    22    21    1
     2    47    46    1
     3    23    21    1
     4    46    48    1
     5    46    38    1
     6    21    14    1
     7    38    43   ar
     8    38    39   ar
     9    43    42   ar
    10    14    19   ar
    11    14    15   ar
    12    19    18   ar
    13    34    33    1
    14    10     9    1
    15    11     9    1
    16    13    12    1
    17    35    33    1
    18     6     5   ar
    19     6     1   ar
    20    15     5    1
    21    15    16   ar
    22     5     4   ar
    23    31    26   ar
    24    31    30   ar
    25     9     1    1
    26    26    33    1
    27    26    27   ar
    28    45    42    1
    29     1     2   ar
    30    30    39    1
    31    30    29   ar
    32    18    27    1
    33    18    17   ar
    34    42    41   ar
    35    39    40   ar
    36    27    28   ar
    37    28    29   ar
    38    28    32    1
    39    29    36    1
    40     4     3   ar
    41     4    12    1
    42     2     3   ar
    43     2     8    1
    44    36    37    1
    45     3     7    1
    46    16    17   ar
    47    16    20    1
    48    17    24    1
    49    40    41   ar
    50    40    44    1
    51    41    49    1
    52    24    25    1
    53    50    49    1
