@<TRIPOS>MOLECULE
mol_data/opt/cam/geoms/mol2/6hf6hf6hf-6hf-.out
 50 53 0 0 0
SMALL
GASTEIGER

@<TRIPOS>ATOM
      1 C          -4.1914   -2.1817   -0.7057 C.ar    1  LIG1        0.1170
      2 C          -3.0788   -2.3481    0.1341 C.ar    1  LIG1       -0.0186
      3 C          -2.7318   -1.3117    0.9705 C.ar    1  LIG1       -0.0148
      4 C          -3.4669   -0.1264    0.9542 C.ar    1  LIG1        0.1429
      5 C          -4.5381   -0.0228    0.0641 C.ar    1  LIG1        0.1177
      6 N          -4.8877   -1.0529   -0.7287 N.ar    1  LIG1       -0.2287
      7 H          -1.8974   -1.3933    1.6584 H       1  LIG1        0.0656
      8 H          -2.5241   -3.2799    0.1380 H       1  LIG1        0.0653
      9 N          -4.6423   -3.2119   -1.5166 N.pl3   1  LIG1       -0.3431
     10 H          -5.2421   -2.8989   -2.2659 H       1  LIG1        0.1437
     11 H          -3.9477   -3.8822   -1.8088 H       1  LIG1        0.1437
     12 O          -3.0869    0.8536    1.8210 O.3     1  LIG1       -0.5046
     13 H          -3.7798    1.5258    1.8656 H       1  LIG1        0.2922
     14 C          -6.7637    1.1961   -0.1538 C.ar    1  LIG1        0.1264
     15 C          -5.3451    1.2190   -0.0412 C.ar    1  LIG1        0.0470
     16 C          -4.7453    2.4673   -0.0495 C.ar    1  LIG1       -0.0055
     17 C          -5.4922    3.6480   -0.1150 C.ar    1  LIG1        0.1436
     18 C          -6.8833    3.5206   -0.2024 C.ar    1  LIG1        0.1177
     19 N          -7.4745    2.3118   -0.2256 N.ar    1  LIG1       -0.2280
     20 H          -3.6655    2.5676   -0.0082 H       1  LIG1        0.0662
     21 N          -7.4614    0.0113   -0.1437 N.pl3   1  LIG1       -0.3426
     22 H          -8.4223    0.1135   -0.4330 H       1  LIG1        0.1437
     23 H          -6.9561   -0.7772   -0.5268 H       1  LIG1        0.1437
     24 O          -4.8108    4.8136   -0.0246 O.3     1  LIG1       -0.5046
     25 H          -5.2721    5.5101   -0.5495 H       1  LIG1        0.2922
     26 C          -7.6381    5.8864   -0.8462 C.ar    1  LIG1        0.1264
     27 C          -7.8252    4.6679   -0.1839 C.ar    1  LIG1        0.0470
     28 C          -9.0146    4.5518    0.5290 C.ar    1  LIG1       -0.0055
     29 C          -9.9039    5.6072    0.6271 C.ar    1  LIG1        0.1436
     30 C          -9.6021    6.8205   -0.0203 C.ar    1  LIG1        0.1177
     31 N          -8.4786    6.9055   -0.7466 N.ar    1  LIG1       -0.2280
     32 H          -9.2214    3.6079    1.0249 H       1  LIG1        0.0662
     33 N          -6.4970    6.0968   -1.6598 N.pl3   1  LIG1       -0.3426
     34 H          -6.3934    5.3778   -2.3702 H       1  LIG1        0.1437
     35 H          -6.5519    7.0086   -2.1000 H       1  LIG1        0.1437
     36 O         -11.0520    5.4988    1.3565 O.3     1  LIG1       -0.5046
     37 H         -11.0547    4.6464    1.8082 H       1  LIG1        0.2922
     38 C          -9.9583    9.3359    0.0238 C.ar    1  LIG1        0.1257
     39 C         -10.4762    8.0147    0.0428 C.ar    1  LIG1        0.0469
     40 C         -11.8637    7.8821    0.1029 C.ar    1  LIG1       -0.0061
     41 C         -12.6784    9.0009    0.1612 C.ar    1  LIG1        0.1356
     42 C         -12.0690   10.2477    0.1550 C.ar    1  LIG1        0.0711
     43 N         -10.7544   10.4078    0.0819 N.ar    1  LIG1       -0.2364
     44 H         -12.3038    6.8918    0.1114 H       1  LIG1        0.0662
     45 H         -12.6817   11.1446    0.2026 H       1  LIG1        0.0867
     46 N          -8.6090    9.6021    0.0016 N.pl3   1  LIG1       -0.3426
     47 H          -8.0420    8.9129   -0.4687 H       1  LIG1        0.1437
     48 H          -8.4057   10.5720   -0.1861 H       1  LIG1        0.1437
     49 O         -14.0437    8.9452    0.2165 O.3     1  LIG1       -0.5052
     50 H         -14.3195    8.0230    0.2631 H       1  LIG1        0.2922
@<TRIPOS>BOND
     1    34    33    1
     2    10     9    1
     3    35    33    1
     4    11     9    1
     5    33    26    1
     6     9     1    1
     7    26    31   ar
     8    26    27   ar
     9    31    30   ar
    10     6     1   ar
    11     6     5   ar
    12     1     2   ar
    13    25    24    1
    14    23    21    1
    15    47    46    1
    16    22    21    1
    17    19    18   ar
    18    19    14   ar
    19    18    27    1
    20    18    17   ar
    21    48    46    1
    22    27    28   ar
    23    14    21    1
    24    14    15   ar
    25    17    16   ar
    26    17    24    1
    27    16    15   ar
    28    16    20    1
    29    15     5    1
    30    30    39    1
    31    30    29   ar
    32    46    38    1
    33    38    39   ar
    34    38    43   ar
    35    39    40   ar
    36     5     4   ar
    37    43    42   ar
    38    40    44    1
    39    40    41   ar
    40     2     8    1
    41     2     3   ar
    42    42    41   ar
    43    42    45    1
    44    41    49    1
    45    49    50    1
    46    28    29   ar
    47    28    32    1
    48    29    36    1
    49     4     3   ar
    50     4    12    1
    51     3     7    1
    52    36    37    1
    53    12    13    1
