@<TRIPOS>MOLECULE
mol_data/opt/cam/geoms/mol2/6hg.out
 14 14 0 0 0
SMALL
GASTEIGER

@<TRIPOS>ATOM
      1 C          -4.5963   -2.0542   -0.0947 C.ar    1  LIG1        0.1162
      2 C          -3.1973   -1.9634    0.0151 C.ar    1  LIG1       -0.0211
      3 C          -2.6150   -0.7153   -0.0371 C.ar    1  LIG1       -0.0439
      4 C          -3.4193    0.4187   -0.1832 C.ar    1  LIG1        0.0230
      5 C          -4.7900    0.2156   -0.2944 C.ar    1  LIG1        0.0428
      6 N          -5.3736   -0.9796   -0.2539 N.ar    1  LIG1       -0.2396
      7 H          -1.5379   -0.6075    0.0351 H       1  LIG1        0.0630
      8 H          -2.5966   -2.8580    0.1392 H       1  LIG1        0.0652
      9 H          -5.4508    1.0686   -0.4293 H       1  LIG1        0.0841
     10 N          -5.2422   -3.2616   -0.0100 N.pl3   1  LIG1       -0.3431
     11 H          -6.2063   -3.2474   -0.3052 H       1  LIG1        0.1437
     12 H          -4.7246   -4.0985   -0.2219 H       1  LIG1        0.1437
     13 S          -2.7230    2.0572   -0.3082 S.3     1  LIG1       -0.1412
     14 H          -2.6998    2.3560    1.0045 H       1  LIG1        0.1072
@<TRIPOS>BOND
     1     9     5    1
     2    13     4    1
     3    13    14    1
     4    11    10    1
     5     5     6   ar
     6     5     4   ar
     7     6     1   ar
     8    12    10    1
     9     4     3   ar
    10     1    10    1
    11     1     2   ar
    12     3     2   ar
    13     3     7    1
    14     2     8    1
