@<TRIPOS>MOLECULE
mol_data/opt/cam/geoms/mol2/6hh.out
 15 15 0 0 0
SMALL
GASTEIGER

@<TRIPOS>ATOM
      1 C          -4.5658   -2.0448   -0.0582 C.ar    1  LIG1        0.1162
      2 C          -3.1646   -2.0262   -0.0278 C.ar    1  LIG1       -0.0204
      3 C          -2.5132   -0.8093   -0.0248 C.ar    1  LIG1       -0.0363
      4 C          -3.2524    0.3773   -0.0480 C.ar    1  LIG1        0.0430
      5 C          -4.6372    0.2438   -0.0768 C.ar    1  LIG1        0.0503
      6 N          -5.2801   -0.9234   -0.0866 N.ar    1  LIG1       -0.2389
      7 H          -1.4277   -0.7714    0.0054 H       1  LIG1        0.0637
      8 H          -2.6039   -2.9545    0.0028 H       1  LIG1        0.0652
      9 H          -5.2644    1.1346   -0.0967 H       1  LIG1        0.0849
     10 N          -5.2768   -3.2390   -0.0124 N.pl3   1  LIG1       -0.3431
     11 H          -6.2455   -3.1182   -0.2720 H       1  LIG1        0.1437
     12 H          -4.8384   -4.0284   -0.4627 H       1  LIG1        0.1437
     13 N          -2.6329    1.6333    0.0141 N.pl3   1  LIG1       -0.3568
     14 H          -1.7275    1.6677   -0.4334 H       1  LIG1        0.1424
     15 H          -3.2174    2.3913   -0.3103 H       1  LIG1        0.1424
@<TRIPOS>BOND
     1    12    10    1
     2    14    13    1
     3    15    13    1
     4    11    10    1
     5     9     5    1
     6     6     5   ar
     7     6     1   ar
     8     5     4   ar
     9     1     2   ar
    10     1    10    1
    11     4     3   ar
    12     4    13    1
    13     2     3   ar
    14     2     8    1
    15     3     7    1
