@<TRIPOS>MOLECULE
mol_data/opt/cam/geoms/mol2/6hh13fl-12aa6ai.out
 47 50 0 0 0
SMALL
GASTEIGER

@<TRIPOS>ATOM
      1 C          -4.4791   -2.0364    0.2052 C.ar    1  LIG1        0.1170
      2 C          -3.0876   -2.1637    0.0690 C.ar    1  LIG1       -0.0203
      3 C          -2.3638   -1.0089   -0.1432 C.ar    1  LIG1       -0.0357
      4 C          -2.9880    0.2342   -0.1739 C.ar    1  LIG1        0.0526
      5 C          -4.3745    0.2778    0.0418 C.ar    1  LIG1        0.1134
      6 N          -5.0883   -0.8565    0.1863 N.ar    1  LIG1       -0.2290
      7 H          -1.2889   -1.0653   -0.2965 H       1  LIG1        0.0638
      8 H          -2.6075   -3.1340    0.1172 H       1  LIG1        0.0652
      9 N          -5.2778   -3.1376    0.4153 N.pl3   1  LIG1       -0.3431
     10 H          -6.2653   -2.9703    0.2980 H       1  LIG1        0.1437
     11 H          -4.9468   -4.0270    0.0783 H       1  LIG1        0.1437
     12 N          -2.2492    1.4365   -0.4519 N.pl3   1  LIG1       -0.3563
     13 H          -1.2728    1.3285   -0.1969 H       1  LIG1        0.1424
     14 H          -2.2813    1.6603   -1.4445 H       1  LIG1        0.1424
     15 C          -5.1733    1.4927    0.0982 C.ar    1  LIG1        0.1131
     16 C          -4.9074    2.8550    0.2777 C.ar    1  LIG1        0.1867
     17 C          -6.1545    3.5215    0.3205 C.ar    1  LIG1        0.1904
     18 C          -7.1520    2.5659    0.1899 C.ar    1  LIG1        0.1285
     19 N          -6.5448    1.3576    0.0594 N.ar    1  LIG1       -0.3446
     20 H          -6.9847    0.4512    0.0422 H       1  LIG1        0.1663
     21 O          -3.7295    3.4890    0.4248 O.3     1  LIG1       -0.5019
     22 H          -3.0207    2.8259    0.2223 H       1  LIG1        0.2924
     23 O          -6.3927    4.8488    0.5184 O.3     1  LIG1       -0.4894
     24 C          -5.6982    5.7169   -0.3688 C.3     1  LIG1        0.0791
     25 H          -5.9854    6.7330   -0.0947 H       1  LIG1        0.0660
     26 H          -4.6169    5.5976   -0.2685 H       1  LIG1        0.0660
     27 H          -5.9893    5.5262   -1.4089 H       1  LIG1        0.0660
     28 C          -8.5788    2.7265    0.1936 C.ar    1  LIG1        0.1555
     29 C          -9.4009    3.8022    0.3625 C.ar    1  LIG1       -0.0137
     30 C         -10.7294    3.3063    0.2576 C.ar    1  LIG1       -0.0152
     31 C         -10.6401    1.9637    0.0337 C.ar    1  LIG1        0.1372
     32 O          -9.3222    1.6027   -0.0071 O.2     1  LIG1       -0.4532
     33 H          -9.0724    4.8123    0.5473 H       1  LIG1        0.0656
     34 H         -11.6401    3.8805    0.3401 H       1  LIG1        0.0656
     35 C         -11.2285   -0.4137   -0.4031 C.ar    1  LIG1        0.0382
     36 C         -11.6212    0.9084   -0.1596 C.ar    1  LIG1        0.0356
     37 C         -12.9911    1.1674   -0.1108 C.ar    1  LIG1       -0.0453
     38 C         -13.9040    0.1372   -0.2995 C.ar    1  LIG1       -0.0317
     39 C         -13.3854   -1.1357   -0.5334 C.ar    1  LIG1        0.0305
     40 N         -12.0836   -1.4128   -0.5855 N.ar    1  LIG1       -0.2623
     41 H         -13.3479    2.1764    0.0767 H       1  LIG1        0.0628
     42 H         -14.0622   -1.9744   -0.6862 H       1  LIG1        0.0832
     43 H         -10.1724   -0.6608   -0.4506 H       1  LIG1        0.0837
     44 C         -15.3874    0.3801   -0.2530 C.3     1  LIG1       -0.0383
     45 H         -15.9434   -0.5456   -0.4165 H       1  LIG1        0.0278
     46 H         -15.6972    1.0961   -1.0200 H       1  LIG1        0.0278
     47 H         -15.6932    0.7872    0.7153 H       1  LIG1        0.0278
@<TRIPOS>BOND
     1    14    12    1
     2    27    24    1
     3    46    44    1
     4    42    39    1
     5    40    39   ar
     6    40    35   ar
     7    39    38   ar
     8    12    13    1
     9    12     4    1
    10    43    35    1
    11    45    44    1
    12    35    36   ar
    13    24    26    1
    14    24    25    1
    15    24    23    1
    16    38    44    1
    17    38    37   ar
    18     7     3    1
    19    44    47    1
    20     4     3   ar
    21     4     5   ar
    22    36    37   ar
    23    36    31    1
    24     3     2   ar
    25    37    41    1
    26    32    31   ar
    27    32    28   ar
    28    31    30   ar
    29     5    15    1
    30     5     6   ar
    31    20    19    1
    32    19    15   ar
    33    19    18   ar
    34     2     8    1
    35     2     1   ar
    36    11     9    1
    37    15    16   ar
    38     6     1   ar
    39    18    28    1
    40    18    17   ar
    41    28    29   ar
    42     1     9    1
    43    22    21    1
    44    30    34    1
    45    30    29   ar
    46    16    17   ar
    47    16    21    1
    48    10     9    1
    49    17    23    1
    50    29    33    1
