@<TRIPOS>MOLECULE
mol_data/opt/cam/geoms/mol2/6hh6hh6hh.out
 41 43 0 0 0
SMALL
GASTEIGER

@<TRIPOS>ATOM
      1 C          -4.2303   -1.9998    0.8308 C.ar    1  LIG1        0.1169
      2 C          -2.9839   -2.1387    0.2063 C.ar    1  LIG1       -0.0203
      3 C          -2.5453   -1.1155   -0.6037 C.ar    1  LIG1       -0.0357
      4 C          -3.3076    0.0454   -0.7721 C.ar    1  LIG1        0.0511
      5 C          -4.5208    0.1193   -0.0716 C.ar    1  LIG1        0.0970
      6 N          -4.9644   -0.9056    0.6784 N.ar    1  LIG1       -0.2305
      7 H          -1.5931   -1.2034   -1.1200 H       1  LIG1        0.0638
      8 H          -2.3868   -3.0320    0.3533 H       1  LIG1        0.0652
      9 N          -4.7262   -2.9822    1.6755 N.pl3   1  LIG1       -0.3431
     10 H          -5.7015   -2.8605    1.9051 H       1  LIG1        0.1437
     11 H          -4.4760   -3.9328    1.4502 H       1  LIG1        0.1437
     12 N          -2.8323    1.0836   -1.5889 N.pl3   1  LIG1       -0.3563
     13 H          -2.1943    0.7586   -2.3031 H       1  LIG1        0.1424
     14 H          -3.5707    1.6406   -1.9995 H       1  LIG1        0.1424
     15 C          -6.7979    1.2402   -0.2517 C.ar    1  LIG1        0.1263
     16 C          -5.3899    1.3241   -0.1253 C.ar    1  LIG1        0.0435
     17 C          -4.8525    2.6000   -0.0319 C.ar    1  LIG1       -0.0264
     18 C          -5.6470    3.7463   -0.0725 C.ar    1  LIG1        0.0518
     19 C          -7.0298    3.5585   -0.2039 C.ar    1  LIG1        0.0970
     20 N          -7.5574    2.3282   -0.3009 N.ar    1  LIG1       -0.2298
     21 H          -3.7774    2.7108    0.0758 H       1  LIG1        0.0644
     22 N          -7.4435    0.0265   -0.3821 N.pl3   1  LIG1       -0.3426
     23 H          -8.4362    0.1007   -0.2129 H       1  LIG1        0.1437
     24 H          -6.9782   -0.7259    0.1095 H       1  LIG1        0.1437
     25 N          -5.0545    5.0149    0.0505 N.pl3   1  LIG1       -0.3563
     26 H          -4.0848    5.0219   -0.2366 H       1  LIG1        0.1424
     27 H          -5.5721    5.7444   -0.4225 H       1  LIG1        0.1424
     28 C          -9.0729    4.7318   -1.1514 C.ar    1  LIG1        0.1255
     29 C          -7.9872    4.6949   -0.2400 C.ar    1  LIG1        0.0434
     30 C          -7.8687    5.7536    0.6538 C.ar    1  LIG1       -0.0270
     31 C          -8.7645    6.8227    0.6283 C.ar    1  LIG1        0.0437
     32 C          -9.7682    6.7646   -0.3316 C.ar    1  LIG1        0.0503
     33 N          -9.9247    5.7552   -1.1840 N.ar    1  LIG1       -0.2382
     34 H          -7.0682    5.7402    1.3875 H       1  LIG1        0.0644
     35 H         -10.4954    7.5729   -0.4066 H       1  LIG1        0.0849
     36 N          -9.2686    3.7355   -2.0868 N.pl3   1  LIG1       -0.3426
     37 H         -10.1805    3.7916   -2.5162 H       1  LIG1        0.1437
     38 H          -8.9899    2.8165   -1.7677 H       1  LIG1        0.1437
     39 N          -8.6950    7.8660    1.5648 N.pl3   1  LIG1       -0.3568
     40 H          -7.7589    8.0583    1.8935 H       1  LIG1        0.1424
     41 H          -9.1440    8.7175    1.2564 H       1  LIG1        0.1424
@<TRIPOS>BOND
     1    37    36    1
     2    13    12    1
     3    36    38    1
     4    36    28    1
     5    14    12    1
     6    12     4    1
     7    33    28   ar
     8    33    32   ar
     9    28    29   ar
    10     7     3    1
    11     4     3   ar
    12     4     5   ar
    13     3     2   ar
    14    27    25    1
    15    35    32    1
    16    22    15    1
    17    22    23    1
    18    22    24    1
    19    32    31   ar
    20    20    15   ar
    21    20    19   ar
    22    15    16   ar
    23    29    19    1
    24    29    30   ar
    25    26    25    1
    26    19    18   ar
    27    16     5    1
    28    16    17   ar
    29    18    17   ar
    30    18    25    1
    31     5     6   ar
    32    17    21    1
    33     2     8    1
    34     2     1   ar
    35    31    30   ar
    36    31    39    1
    37    30    34    1
    38     6     1   ar
    39     1     9    1
    40    41    39    1
    41    11     9    1
    42    39    40    1
    43     9    10    1
