@<TRIPOS>MOLECULE
mol_data/opt/cam/geoms/mol2/6hh6hh6hh6hh.out
 54 57 0 0 0
SMALL
GASTEIGER

@<TRIPOS>ATOM
      1 C          -3.9465   -1.8970    1.1773 C.ar    1  LIG1        0.1169
      2 C          -2.8917   -2.1983    0.3054 C.ar    1  LIG1       -0.0203
      3 C          -2.6796   -1.3658   -0.7702 C.ar    1  LIG1       -0.0357
      4 C          -3.4735   -0.2309   -0.9689 C.ar    1  LIG1        0.0511
      5 C          -4.4756    0.0203   -0.0200 C.ar    1  LIG1        0.0970
      6 N          -4.7080   -0.8257    1.0001 N.ar    1  LIG1       -0.2305
      7 H          -1.8842   -1.5861   -1.4771 H       1  LIG1        0.0638
      8 H          -2.2664   -3.0685    0.4719 H       1  LIG1        0.0652
      9 N          -4.2058   -2.6812    2.2913 N.pl3   1  LIG1       -0.3431
     10 H          -5.0947   -2.4834    2.7264 H       1  LIG1        0.1437
     11 H          -4.0040   -3.6652    2.2028 H       1  LIG1        0.1437
     12 N          -3.2280    0.6135   -2.0632 N.pl3   1  LIG1       -0.3563
     13 H          -2.7770    0.1360   -2.8322 H       1  LIG1        0.1424
     14 H          -4.0530    1.1031   -2.3848 H       1  LIG1        0.1424
     15 C          -6.7387    1.1714    0.1553 C.ar    1  LIG1        0.1263
     16 C          -5.3446    1.2244   -0.0906 C.ar    1  LIG1        0.0435
     17 C          -4.8164    2.4726   -0.3864 C.ar    1  LIG1       -0.0264
     18 C          -5.6086    3.6197   -0.4523 C.ar    1  LIG1        0.0518
     19 C          -6.9771    3.4636   -0.1937 C.ar    1  LIG1        0.0970
     20 N          -7.4983    2.2580    0.0846 N.ar    1  LIG1       -0.2298
     21 H          -3.7505    2.5608   -0.5753 H       1  LIG1        0.0644
     22 N          -7.3817   -0.0189    0.4286 N.pl3   1  LIG1       -0.3426
     23 H          -8.3011    0.1217    0.8214 H       1  LIG1        0.1437
     24 H          -6.7980   -0.6819    0.9228 H       1  LIG1        0.1437
     25 N          -5.0191    4.8640   -0.7353 N.pl3   1  LIG1       -0.3563
     26 H          -4.1420    4.7752   -1.2312 H       1  LIG1        0.1424
     27 H          -5.6395    5.4981   -1.2222 H       1  LIG1        0.1424
     28 C          -9.2150    4.5088   -0.7924 C.ar    1  LIG1        0.1263
     29 C          -7.9270    4.6054   -0.2093 C.ar    1  LIG1        0.0435
     30 C          -7.5996    5.8234    0.3692 C.ar    1  LIG1       -0.0264
     31 C          -8.4803    6.9058    0.3715 C.ar    1  LIG1        0.0518
     32 C          -9.7292    6.7123   -0.2336 C.ar    1  LIG1        0.0970
     33 N         -10.0522    5.5396   -0.8015 N.ar    1  LIG1       -0.2298
     34 H          -6.6258    5.9387    0.8361 H       1  LIG1        0.0644
     35 N          -9.6401    3.3592   -1.4259 N.pl3   1  LIG1       -0.3426
     36 H         -10.6387    3.3466   -1.5730 H       1  LIG1        0.1437
     37 H          -9.2501    2.5128   -1.0298 H       1  LIG1        0.1437
     38 N          -8.1085    8.1109    0.9935 N.pl3   1  LIG1       -0.3563
     39 H          -7.1053    8.2308    1.0400 H       1  LIG1        0.1424
     40 H          -8.5453    8.9238    0.5785 H       1  LIG1        0.1424
     41 C         -11.5283    8.0285   -1.4505 C.ar    1  LIG1        0.1255
     42 C         -10.7637    7.7787   -0.2825 C.ar    1  LIG1        0.0434
     43 C         -11.0428    8.5517    0.8391 C.ar    1  LIG1       -0.0270
     44 C         -12.0132    9.5534    0.8017 C.ar    1  LIG1        0.0437
     45 C         -12.6741    9.7282   -0.4084 C.ar    1  LIG1        0.0503
     46 N         -12.4494    8.9896   -1.4921 N.ar    1  LIG1       -0.2382
     47 H         -10.4986    8.3643    1.7600 H       1  LIG1        0.0644
     48 H         -13.4385   10.4993   -0.5035 H       1  LIG1        0.0849
     49 N         -11.3176    7.3241   -2.6189 N.pl3   1  LIG1       -0.3426
     50 H         -12.0622    7.4635   -3.2862 H       1  LIG1        0.1437
     51 H         -11.0358    6.3635   -2.4702 H       1  LIG1        0.1437
     52 N         -12.3490   10.2979    1.9438 N.pl3   1  LIG1       -0.3568
     53 H         -11.5809   10.4246    2.5883 H       1  LIG1        0.1424
     54 H         -12.7849   11.1854    1.7341 H       1  LIG1        0.1424
@<TRIPOS>BOND
     1    50    49    1
     2    13    12    1
     3    49    51    1
     4    49    41    1
     5    14    12    1
     6    12     4    1
     7    36    35    1
     8    46    41   ar
     9    46    45   ar
    10     7     3    1
    11    41    42   ar
    12    35    37    1
    13    35    28    1
    14    26    25    1
    15    27    25    1
    16     4     3   ar
    17     4     5   ar
    18    33    28   ar
    19    33    32   ar
    20    28    29   ar
    21     3     2   ar
    22    25    18    1
    23    21    17    1
    24    48    45    1
    25    18    17   ar
    26    18    19   ar
    27    45    44   ar
    28    17    16   ar
    29    42    32    1
    30    42    43   ar
    31    32    31   ar
    32    29    19    1
    33    29    30   ar
    34    19    20   ar
    35    16     5    1
    36    16    15   ar
    37     5     6   ar
    38    20    15   ar
    39    15    22    1
    40     2     8    1
    41     2     1   ar
    42    30    31   ar
    43    30    34    1
    44    31    38    1
    45    22    23    1
    46    22    24    1
    47    40    38    1
    48    44    43   ar
    49    44    52    1
    50    43    47    1
    51    38    39    1
    52     6     1   ar
    53     1     9    1
    54    54    52    1
    55    52    53    1
    56    11     9    1
    57     9    10    1
