@<TRIPOS>MOLECULE
mol_data/opt/cam/geoms/mol2/6hh6hf-13df4fd-13hi-4ha-4ef-.out
 87 93 0 0 0
SMALL
GASTEIGER

@<TRIPOS>ATOM
      1 C          -4.4778   -2.0010    0.9841 C.ar    1  LIG1        0.1169
      2 C          -3.5694   -2.4566    0.0186 C.ar    1  LIG1       -0.0203
      3 C          -3.3066   -1.6455   -1.0605 C.ar    1  LIG1       -0.0357
      4 C          -3.9031   -0.3834   -1.1783 C.ar    1  LIG1        0.0511
      5 C          -4.7670    0.0092   -0.1445 C.ar    1  LIG1        0.0970
      6 N          -5.0547   -0.8123    0.8834 N.ar    1  LIG1       -0.2305
      7 H          -2.6216   -1.9796   -1.8350 H       1  LIG1        0.0638
      8 H          -3.0929   -3.4254    0.1199 H       1  LIG1        0.0652
      9 N          -4.7708   -2.7577    2.1090 N.pl3   1  LIG1       -0.3431
     10 H          -5.5712   -2.4243    2.6252 H       1  LIG1        0.1437
     11 H          -4.7481   -3.7591    1.9929 H       1  LIG1        0.1437
     12 N          -3.5929    0.4282   -2.2744 N.pl3   1  LIG1       -0.3563
     13 H          -3.2790   -0.0902   -3.0829 H       1  LIG1        0.1424
     14 H          -4.3123    1.0933   -2.5231 H       1  LIG1        0.1424
     15 C          -6.7704    1.5282    0.2984 C.ar    1  LIG1        0.1264
     16 C          -5.4217    1.3435   -0.1249 C.ar    1  LIG1        0.0452
     17 C          -4.7360    2.4864   -0.4903 C.ar    1  LIG1       -0.0055
     18 C          -5.3307    3.7527   -0.4884 C.ar    1  LIG1        0.1449
     19 C          -6.6621    3.8294   -0.0819 C.ar    1  LIG1        0.1318
     20 N          -7.3355    2.7239    0.3045 N.ar    1  LIG1       -0.2266
     21 H          -3.6992    2.4322   -0.8025 H       1  LIG1        0.0662
     22 N          -7.5550    0.4632    0.6718 N.pl3   1  LIG1       -0.3426
     23 H          -8.3981    0.7378    1.1527 H       1  LIG1        0.1437
     24 H          -7.0322   -0.3012    1.0810 H       1  LIG1        0.1437
     25 O          -4.5645    4.7611   -0.9764 O.3     1  LIG1       -0.5045
     26 H          -4.7288    5.6186   -0.5585 H       1  LIG1        0.2922
     27 C          -7.5071    5.0322   -0.0669 C.ar    1  LIG1        0.0903
     28 C          -7.3066    6.4164   -0.0601 C.ar    1  LIG1        0.1205
     29 C          -8.5859    7.0361    0.0153 C.ar    1  LIG1        0.1602
     30 C          -9.5412    6.0335    0.0568 C.ar    1  LIG1        0.0938
     31 N          -8.8424    4.8418   -0.0012 N.ar    1  LIG1       -0.3488
     32 H          -9.1934    3.9050    0.1505 H       1  LIG1        0.1661
     33 N          -5.0489    7.6465    0.0215 N.1     1  LIG1       -0.1907
     34 C          -6.0787    7.1136   -0.0244 C.1     1  LIG1        0.1050
     35 O          -8.7366    8.3713   -0.0038 O.3     1  LIG1       -0.5034
     36 H          -9.5899    8.5807    0.4122 H       1  LIG1        0.2923
     37 C         -11.7695    7.0685    0.6381 C.ar    1  LIG1        0.1268
     38 C         -13.1511    7.0541    0.6237 C.ar    1  LIG1       -0.0091
     39 C         -11.0003    6.0481    0.0501 C.ar    1  LIG1        0.0446
     40 C         -13.8824    6.0102    0.0376 C.ar    1  LIG1        0.0209
     41 H         -13.6939    7.8486    1.1263 H       1  LIG1        0.0661
     42 C         -11.7222    5.0090   -0.5294 C.ar    1  LIG1       -0.0310
     43 C         -13.1187    4.9691   -0.5391 C.ar    1  LIG1        0.0618
     44 H         -11.1871    4.2036   -1.0199 H       1  LIG1        0.0638
     45 O         -11.0975    8.0846    1.2634 O.3     1  LIG1       -0.5061
     46 H         -11.7245    8.6856    1.6846 H       1  LIG1        0.2922
     47 N         -14.2349    2.9224   -1.6660 N.1     1  LIG1       -0.1908
     48 C         -13.7335    3.8433   -1.1730 C.1     1  LIG1        0.0998
     49 C         -15.3343    6.0559    0.0729 C.ar    1  LIG1        0.0695
     50 C         -16.1825    7.1446    0.2618 C.ar    1  LIG1        0.0538
     51 C         -17.5204    6.6758    0.2833 C.ar    1  LIG1       -0.0039
     52 C         -17.4654    5.3019    0.0946 C.ar    1  LIG1        0.0534
     53 N         -16.1556    4.9461   -0.0274 N.ar    1  LIG1       -0.3524
     54 H         -15.8560    4.0185   -0.2854 H       1  LIG1        0.1660
     55 N         -15.8061    8.4873    0.4455 N.pl3   1  LIG1       -0.3561
     56 H         -15.1393    8.8063   -0.2485 H       1  LIG1        0.1424
     57 H         -16.6108    9.1016    0.4357 H       1  LIG1        0.1424
     58 C         -18.7265    7.5196    0.5582 C.3     1  LIG1       -0.0359
     59 H         -19.6398    6.9273    0.5119 H       1  LIG1        0.0279
     60 H         -18.8354    8.3309   -0.1722 H       1  LIG1        0.0279
     61 H         -18.6725    7.9798    1.5511 H       1  LIG1        0.0279
     62 C         -19.6125    4.3673   -0.8309 C.ar    1  LIG1        0.0343
     63 C         -20.5660    3.3461   -0.8455 C.ar    1  LIG1       -0.0326
     64 C         -18.5189    4.2738    0.0535 C.ar    1  LIG1        0.0193
     65 C         -20.4556    2.2315   -0.0216 C.ar    1  LIG1       -0.0148
     66 H         -21.4040    3.4242   -1.5297 H       1  LIG1        0.0642
     67 C         -18.4174    3.1467    0.8722 C.ar    1  LIG1       -0.0503
     68 C         -19.3600    2.1336    0.8416 C.ar    1  LIG1       -0.0533
     69 H         -17.5810    3.0822    1.5613 H       1  LIG1        0.0625
     70 N         -19.7644    5.4641   -1.6701 N.pl3   1  LIG1       -0.3574
     71 H         -18.9115    5.9671   -1.8713 H       1  LIG1        0.1423
     72 H         -20.3306    5.2996   -2.4890 H       1  LIG1        0.1423
     73 H         -19.2680    1.2819    1.5061 H       1  LIG1        0.0624
     74 C         -22.8429    1.3534   -0.0348 C.ar    1  LIG1        0.0326
     75 C         -23.7093    0.2519   -0.0986 C.ar    1  LIG1       -0.0423
     76 C         -21.4527    1.1313   -0.0837 C.ar    1  LIG1        0.0010
     77 C         -23.2362   -1.0407   -0.2079 C.ar    1  LIG1       -0.0190
     78 H         -24.7774    0.4322   -0.0530 H       1  LIG1        0.0631
     79 C         -20.9860   -0.1792   -0.1896 C.ar    1  LIG1       -0.0113
     80 C         -21.8610   -1.2575   -0.2527 C.ar    1  LIG1        0.1175
     81 H         -19.9146   -0.3510   -0.2462 H       1  LIG1        0.0660
     82 H         -23.9082   -1.8892   -0.2596 H       1  LIG1        0.0654
     83 C         -23.4163    2.6574    0.1170 C.1     1  LIG1       -0.0690
     84 C         -23.9526    3.7277    0.2488 C.1     1  LIG1       -0.1139
     85 H         -24.4106    4.6815    0.3728 H       1  LIG1        0.1232
     86 O         -21.4303   -2.5400   -0.3664 O.3     1  LIG1       -0.5067
     87 H         -20.4662   -2.5544   -0.3940 H       1  LIG1        0.2921
@<TRIPOS>BOND
     1    13    12    1
     2    14    12    1
     3    72    70    1
     4    12     4    1
     5    71    70    1
     6     7     3    1
     7    70    62    1
     8    47    48    3
     9    66    63    1
    10     4     3   ar
    11     4     5   ar
    12    48    43    1
    13     3     2   ar
    14    44    42    1
    15    25    26    1
    16    25    18    1
    17    63    62   ar
    18    63    65   ar
    19    62    64   ar
    20    21    17    1
    21    43    42   ar
    22    43    40   ar
    23    42    39   ar
    24    17    18   ar
    25    17    16   ar
    26    18    19   ar
    27    87    86    1
    28    86    80    1
    29    54    53    1
    30    82    77    1
    31    80    77   ar
    32    80    79   ar
    33    56    55    1
    34    81    79    1
    35    77    75   ar
    36    79    76   ar
    37    60    58    1
    38     5    16    1
    39     5     6   ar
    40    16    15   ar
    41    75    78    1
    42    75    74   ar
    43    76    74   ar
    44    76    65    1
    45    19    27    1
    46    19    20   ar
    47    27    28   ar
    48    27    31   ar
    49    28    34    1
    50    28    29   ar
    51    74    83    1
    52    53    49   ar
    53    53    52   ar
    54    34    33    3
    55    65    68   ar
    56    35    29    1
    57    35    36    1
    58    31    30   ar
    59    31    32    1
    60    29    30   ar
    61     2     8    1
    62     2     1   ar
    63    40    49    1
    64    40    38   ar
    65    39    30    1
    66    39    37   ar
    67    64    52    1
    68    64    67   ar
    69    49    50   ar
    70    52    51   ar
    71    83    84    3
    72    84    85    1
    73    50    51   ar
    74    50    55    1
    75    51    58    1
    76    15    20   ar
    77    15    22    1
    78    57    55    1
    79    59    58    1
    80    58    61    1
    81    38    37   ar
    82    38    41    1
    83    37    45    1
    84    22    24    1
    85    22    23    1
    86    68    67   ar
    87    68    73    1
    88    67    69    1
    89     6     1   ar
    90     1     9    1
    91    45    46    1
    92    11     9    1
    93     9    10    1
