@<TRIPOS>MOLECULE
mol_data/opt/cam/geoms/mol2/6hh6hh.out
 28 29 0 0 0
SMALL
GASTEIGER

@<TRIPOS>ATOM
      1 C          -4.4434   -2.0534    0.3962 C.ar    1  LIG1        0.1169
      2 C          -3.0702   -2.0756    0.1207 C.ar    1  LIG1       -0.0203
      3 C          -2.4759   -0.9123   -0.3151 C.ar    1  LIG1       -0.0357
      4 C          -3.2170    0.2665   -0.4483 C.ar    1  LIG1        0.0511
      5 C          -4.5770    0.2077   -0.1087 C.ar    1  LIG1        0.0970
      6 N          -5.1587   -0.9433    0.2719 N.ar    1  LIG1       -0.2305
      7 H          -1.4164   -0.9024   -0.5569 H       1  LIG1        0.0638
      8 H          -2.4951   -2.9869    0.2426 H       1  LIG1        0.0652
      9 N          -5.1038   -3.1834    0.8597 N.pl3   1  LIG1       -0.3431
     10 H          -6.1092   -3.0967    0.8317 H       1  LIG1        0.1437
     11 H          -4.7640   -4.0685    0.5155 H       1  LIG1        0.1437
     12 N          -2.5870    1.4459   -0.8758 N.pl3   1  LIG1       -0.3563
     13 H          -1.7792    1.2694   -1.4580 H       1  LIG1        0.1424
     14 H          -3.2180    2.0944   -1.3284 H       1  LIG1        0.1424
     15 C          -6.7590    1.3658   -0.7095 C.ar    1  LIG1        0.1255
     16 C          -5.4526    1.4092   -0.1621 C.ar    1  LIG1        0.0434
     17 C          -5.0212    2.6226    0.3621 C.ar    1  LIG1       -0.0270
     18 C          -5.8322    3.7570    0.3173 C.ar    1  LIG1        0.0437
     19 C          -7.0800    3.6007   -0.2755 C.ar    1  LIG1        0.0503
     20 N          -7.5326    2.4482   -0.7621 N.ar    1  LIG1       -0.2382
     21 H          -4.0377    2.6829    0.8191 H       1  LIG1        0.0644
     22 H          -7.7573    4.4513   -0.3480 H       1  LIG1        0.0849
     23 N          -7.2747    0.2102   -1.2641 N.pl3   1  LIG1       -0.3426
     24 H          -8.2705    0.2767   -1.4168 H       1  LIG1        0.1437
     25 H          -6.9599   -0.6331   -0.8026 H       1  LIG1        0.1437
     26 N          -5.4352    4.9707    0.8983 N.pl3   1  LIG1       -0.3568
     27 H          -4.4360    5.1208    0.8926 H       1  LIG1        0.1424
     28 H          -5.9182    5.7768    0.5261 H       1  LIG1        0.1424
@<TRIPOS>BOND
     1    13    12    1
     2    24    23    1
     3    14    12    1
     4    23    25    1
     5    23    15    1
     6    12     4    1
     7    20    15   ar
     8    20    19   ar
     9    15    16   ar
    10     7     3    1
    11     4     3   ar
    12     4     5   ar
    13    22    19    1
    14     3     2   ar
    15    19    18   ar
    16    16     5    1
    17    16    17   ar
    18     5     6   ar
    19     2     8    1
    20     2     1   ar
    21     6     1   ar
    22    18    17   ar
    23    18    26    1
    24    17    21    1
    25     1     9    1
    26    11     9    1
    27    28    26    1
    28    10     9    1
    29    27    26    1
