@<TRIPOS>MOLECULE
mol_data/opt/cam/geoms/mol2/6hh6aa-12fi13fa13ed13lh-6dd12da.out
 88 95 0 0 0
SMALL
GASTEIGER

@<TRIPOS>ATOM
      1 C          -4.9885   -2.5925   -1.2721 C.ar    1  LIG1        0.1169
      2 C          -3.6398   -2.6811   -1.6411 C.ar    1  LIG1       -0.0203
      3 C          -2.8871   -1.5268   -1.6261 C.ar    1  LIG1       -0.0357
      4 C          -3.4458   -0.3090   -1.2268 C.ar    1  LIG1        0.0511
      5 C          -4.7916   -0.3273   -0.8262 C.ar    1  LIG1        0.0951
      6 N          -5.5293   -1.4467   -0.8825 N.ar    1  LIG1       -0.2306
      7 H          -1.8444   -1.5563   -1.9317 H       1  LIG1        0.0638
      8 H          -3.2054   -3.6292   -1.9390 H       1  LIG1        0.0652
      9 N          -5.8116   -3.7103   -1.2430 N.pl3   1  LIG1       -0.3431
     10 H          -6.7910   -3.4666   -1.2178 H       1  LIG1        0.1437
     11 H          -5.6084   -4.4437   -1.9061 H       1  LIG1        0.1437
     12 N          -2.6585    0.8557   -1.2140 N.pl3   1  LIG1       -0.3563
     13 H          -1.8506    0.7841   -1.8182 H       1  LIG1        0.1424
     14 H          -3.1788    1.6972   -1.4267 H       1  LIG1        0.1424
     15 C          -6.8828    1.0116   -0.6194 C.ar    1  LIG1        0.0376
     16 C          -5.5141    0.8798   -0.3548 C.ar    1  LIG1        0.0203
     17 C          -4.9273    1.9011    0.3982 C.ar    1  LIG1       -0.0489
     18 C          -5.6916    2.9770    0.8152 C.ar    1  LIG1       -0.0319
     19 C          -7.0467    3.0180    0.4674 C.ar    1  LIG1        0.1097
     20 N          -7.6312    2.0359   -0.2376 N.ar    1  LIG1       -0.2511
     21 H          -3.8803    1.8433    0.6745 H       1  LIG1        0.0625
     22 H          -7.3830    0.2237   -1.1745 H       1  LIG1        0.0836
     23 H          -5.2592    3.7756    1.4049 H       1  LIG1        0.0640
     24 C          -7.8832    4.1383    0.8550 C.ar    1  LIG1        0.1952
     25 C          -7.6464    5.3291    1.4855 C.ar    1  LIG1        0.1678
     26 C          -8.8730    6.0544    1.5681 C.ar    1  LIG1        0.0391
     27 C          -9.7960    5.2442    0.9608 C.ar    1  LIG1        0.1619
     28 O          -9.2115    4.0960    0.5338 O.2     1  LIG1       -0.4476
     29 O          -6.4400    5.7375    1.9558 O.3     1  LIG1       -0.5030
     30 H          -6.5366    6.6168    2.3396 H       1  LIG1        0.2923
     31 C          -9.0335    7.3837    2.2326 C.3     1  LIG1       -0.0325
     32 H         -10.0386    7.7772    2.0896 H       1  LIG1        0.0280
     33 H          -8.3353    8.1217    1.8188 H       1  LIG1        0.0280
     34 H          -8.8440    7.3158    3.3103 H       1  LIG1        0.0280
     35 C         -11.2123    5.2958    0.6916 C.ar    1  LIG1        0.1249
     36 C         -12.1513    6.3121    0.6102 C.ar    1  LIG1        0.1457
     37 C         -13.3866    5.7498    0.2397 C.ar    1  LIG1        0.0074
     38 C         -13.1859    4.3860    0.0922 C.ar    1  LIG1        0.0682
     39 N         -11.8709    4.1296    0.3704 N.ar    1  LIG1       -0.3476
     40 H         -11.3937    3.2377    0.3875 H       1  LIG1        0.1661
     41 O         -11.8742    7.6265    0.8395 O.3     1  LIG1       -0.5045
     42 H         -12.6682    8.1448    0.6696 H       1  LIG1        0.2922
     43 H         -14.3217    6.2654    0.0814 H       1  LIG1        0.0676
     44 C         -14.1129    3.3472   -0.2835 C.ar    1  LIG1        0.0803
     45 C         -15.4717    3.3795   -0.5767 C.ar    1  LIG1        0.0693
     46 C         -15.8656    2.0353   -0.8927 C.ar    1  LIG1        0.0945
     47 C         -14.7477    1.2299   -0.7856 C.ar    1  LIG1        0.0858
     48 N         -13.7084    2.0460   -0.4130 N.ar    1  LIG1       -0.3498
     49 H         -12.7487    1.7294   -0.3746 H       1  LIG1        0.1661
     50 C         -16.3302    4.5068   -0.5583 C.1     1  LIG1       -0.0662
     51 C         -17.0792    5.4500   -0.5493 C.1     1  LIG1       -0.1138
     52 H         -17.7568    6.2725   -0.5455 H       1  LIG1        0.1232
     53 N         -18.2518    1.2340   -1.4402 N.1     1  LIG1       -0.1908
     54 C         -17.1794    1.5990   -1.2013 C.1     1  LIG1        0.1026
     55 C         -14.4678   -0.1824   -0.9134 C.ar    1  LIG1        0.1087
     56 C         -14.8663   -1.2055   -1.7577 C.ar    1  LIG1        0.1679
     57 C         -14.0095   -2.3179   -1.5349 C.ar    1  LIG1        0.0932
     58 C         -13.1063   -1.9573   -0.5359 C.ar    1  LIG1        0.0744
     59 N         -13.4072   -0.6519   -0.1925 N.ar    1  LIG1       -0.3485
     60 H         -13.1055   -0.2137    0.6615 H       1  LIG1        0.1661
     61 O         -15.7879   -1.1538   -2.7543 O.3     1  LIG1       -0.4911
     62 C         -17.0402   -1.7754   -2.4403 C.3     1  LIG1        0.0790
     63 H         -17.6424   -1.7207   -3.3468 H       1  LIG1        0.0660
     64 H         -16.8947   -2.8231   -2.1552 H       1  LIG1        0.0660
     65 H         -17.5512   -1.2376   -1.6394 H       1  LIG1        0.0660
     66 N         -14.0848   -3.4937   -2.2706 N.pl3   1  LIG1       -0.3535
     67 H         -14.6182   -3.3560   -3.1215 H       1  LIG1        0.1425
     68 H         -13.1901   -3.9166   -2.4822 H       1  LIG1        0.1425
     69 C         -10.8586   -1.9863    0.6192 C.ar    1  LIG1        0.1500
     70 C         -11.9643   -2.6406    0.0142 C.ar    1  LIG1        0.0373
     71 C         -11.8812   -4.0412   -0.0099 C.ar    1  LIG1       -0.0303
     72 C         -10.7762   -4.6949    0.5120 C.ar    1  LIG1        0.0814
     73 C          -9.7264   -3.9333    1.0705 C.ar    1  LIG1        0.1260
     74 N          -9.8003   -2.6102    1.1269 N.ar    1  LIG1       -0.2312
     75 H         -12.7113   -4.6201   -0.3983 H       1  LIG1        0.0638
     76 N         -10.8370    0.6145    0.7330 N.1     1  LIG1       -0.1893
     77 C         -10.8002   -0.5414    0.6981 C.1     1  LIG1        0.1198
     78 N         -10.8012   -7.2840    0.5746 N.1     1  LIG1       -0.1908
     79 C         -10.7672   -6.1291    0.5423 C.1     1  LIG1        0.1014
     80 C          -8.5074   -4.5387    1.6161 C.ar    1  LIG1        0.1715
     81 C          -7.6143   -5.4556    1.1264 C.ar    1  LIG1        0.0989
     82 C          -6.5755   -5.5744    2.1053 C.ar    1  LIG1       -0.0058
     83 C          -6.9174   -4.7274    3.1010 C.ar    1  LIG1        0.0939
     84 O          -8.0815   -4.0929    2.8142 O.2     1  LIG1       -0.4600
     85 H          -6.4608   -4.4688    4.0424 H       1  LIG1        0.1030
     86 N          -7.6657   -6.5148   -1.2238 N.1     1  LIG1       -0.1907
     87 C          -7.6519   -6.0596   -0.1601 C.1     1  LIG1        0.1030
     88 H          -5.6982   -6.1981    2.0426 H       1  LIG1        0.0662
@<TRIPOS>BOND
     1    63    62    1
     2    67    66    1
     3    61    62    1
     4    61    56    1
     5    68    66    1
     6    62    64    1
     7    62    65    1
     8    66    57    1
     9     8     2    1
    10     7     3    1
    11    11     9    1
    12    13    12    1
    13    56    57   ar
    14    56    55   ar
    15     2     3   ar
    16     2     1   ar
    17     3     4   ar
    18    57    58   ar
    19    53    54    3
    20    14    12    1
    21     1     9    1
    22     1     6   ar
    23     9    10    1
    24     4    12    1
    25     4     5   ar
    26    86    87    3
    27    54    46    1
    28    22    15    1
    29    55    47    1
    30    55    59   ar
    31    46    47   ar
    32    46    45   ar
    33     6     5   ar
    34     5    16    1
    35    47    48   ar
    36    15    16   ar
    37    15    20   ar
    38    45    50    1
    39    45    44   ar
    40    50    51    3
    41    51    52    1
    42    58    59   ar
    43    58    70    1
    44    48    49    1
    45    48    44   ar
    46    75    71    1
    47    16    17   ar
    48    44    38    1
    49    20    19   ar
    50    59    60    1
    51    87    81    1
    52    71    70   ar
    53    71    72   ar
    54    70    69   ar
    55    43    37    1
    56    38    37   ar
    57    38    39   ar
    58    37    36   ar
    59    39    40    1
    60    39    35   ar
    61    17    21    1
    62    17    18   ar
    63    19    18   ar
    64    19    24    1
    65    72    79    1
    66    72    73   ar
    67    28    24   ar
    68    28    27   ar
    69    79    78    3
    70    36    35   ar
    71    36    41    1
    72    69    77    1
    73    69    74   ar
    74    42    41    1
    75    35    27    1
    76    77    76    3
    77    18    23    1
    78    24    25   ar
    79    27    26   ar
    80    73    74   ar
    81    73    80    1
    82    81    80   ar
    83    81    82   ar
    84    25    26   ar
    85    25    29    1
    86    26    31    1
    87    80    84   ar
    88    33    31    1
    89    29    30    1
    90    88    82    1
    91    32    31    1
    92    82    83   ar
    93    31    34    1
    94    84    83   ar
    95    83    85    1
