@<TRIPOS>MOLECULE
mol_data/opt/cam/geoms/mol2/6hi12ei-12fe13hd.out
 49 52 0 0 0
SMALL
GASTEIGER

@<TRIPOS>ATOM
      1 C          -4.1616   -1.7263   -1.5544 C.ar    1  LIG1        0.1169
      2 C          -3.0277   -2.0413   -0.7883 C.ar    1  LIG1       -0.0218
      3 C          -2.6744   -1.1792    0.2250 C.ar    1  LIG1       -0.0535
      4 C          -3.4103   -0.0169    0.4853 C.ar    1  LIG1       -0.0213
      5 C          -4.5001    0.2127   -0.3601 C.ar    1  LIG1        0.1122
      6 N          -4.8689   -0.6244   -1.3432 N.ar    1  LIG1       -0.2290
      7 H          -1.8173   -1.4108    0.8513 H       1  LIG1        0.0622
      8 H          -2.4650   -2.9489   -0.9791 H       1  LIG1        0.0652
      9 N          -4.6203   -2.5747   -2.5434 N.pl3   1  LIG1       -0.3431
     10 H          -5.2812   -2.1398   -3.1702 H       1  LIG1        0.1437
     11 H          -3.9355   -3.1602   -2.9955 H       1  LIG1        0.1437
     12 C          -3.0368    0.8697    1.6415 C.3     1  LIG1       -0.0376
     13 H          -3.9192    1.3078    2.1126 H       1  LIG1        0.0278
     14 H          -2.3993    1.7011    1.3305 H       1  LIG1        0.0278
     15 H          -2.4974    0.2952    2.3986 H       1  LIG1        0.0278
     16 C          -5.3678    1.3952   -0.2316 C.ar    1  LIG1        0.1698
     17 C          -5.1488    2.7448   -0.1268 C.ar    1  LIG1        0.0755
     18 C          -6.4414    3.3823   -0.0902 C.ar    1  LIG1        0.0146
     19 C          -7.3426    2.3651   -0.1991 C.ar    1  LIG1        0.1785
     20 O          -6.6995    1.1644   -0.2886 O.2     1  LIG1       -0.4485
     21 C          -3.9083    3.4373   -0.1313 C.1     1  LIG1       -0.0655
     22 C          -2.8814    4.0667   -0.1477 C.1     1  LIG1       -0.1138
     23 H          -1.9698    4.6177   -0.1716 H       1  LIG1        0.1232
     24 C          -6.6699    4.8491    0.0662 C.3     1  LIG1       -0.0348
     25 H          -7.7140    5.1141   -0.0939 H       1  LIG1        0.0279
     26 H          -6.0597    5.4081   -0.6489 H       1  LIG1        0.0279
     27 H          -6.3738    5.1819    1.0663 H       1  LIG1        0.0279
     28 C          -8.7820    2.2872   -0.2388 C.ar    1  LIG1        0.2133
     29 C          -9.7956    3.1236   -0.5887 C.ar    1  LIG1        0.1822
     30 C         -11.0321    2.4071   -0.4258 C.ar    1  LIG1        0.1140
     31 C         -10.6807    1.1499    0.0158 C.ar    1  LIG1        0.1727
     32 O          -9.3376    1.0793    0.1347 O.2     1  LIG1       -0.4451
     33 O          -9.6824    4.3924   -1.0346 O.3     1  LIG1       -0.5023
     34 H         -10.5689    4.7257   -1.2314 H       1  LIG1        0.2923
     35 C         -12.2866    2.9592   -0.7774 C.1     1  LIG1       -0.0621
     36 C         -13.3039    3.5184   -1.1107 C.1     1  LIG1       -0.1137
     37 H         -14.2103    3.9927   -1.4113 H       1  LIG1        0.1232
     38 C         -11.3729   -0.0585    0.3492 C.ar    1  LIG1        0.1057
     39 C         -12.7049   -0.3702    0.5928 C.ar    1  LIG1        0.0709
     40 C         -12.7416   -1.7680    0.8979 C.ar    1  LIG1        0.0903
     41 C         -11.4443   -2.2502    0.8425 C.ar    1  LIG1        0.0216
     42 N         -10.6378   -1.2285    0.5177 N.ar    1  LIG1       -0.3556
     43 H          -9.6366   -1.2657    0.4038 H       1  LIG1        0.1655
     44 H         -11.0741   -3.2493    1.0103 H       1  LIG1        0.0820
     45 N         -13.7951    0.4616    0.6345 N.pl3   1  LIG1       -0.3552
     46 H         -13.7486    1.3230    0.1110 H       1  LIG1        0.1424
     47 H         -14.6931    0.0021    0.6080 H       1  LIG1        0.1424
     48 N         -14.9132   -3.0478    1.4232 N.1     1  LIG1       -0.1908
     49 C         -13.9194   -2.4973    1.1952 C.1     1  LIG1        0.1025
@<TRIPOS>BOND
     1    10     9    1
     2    11     9    1
     3     9     1    1
     4     1     6   ar
     5     1     2   ar
     6    37    36    1
     7     6     5   ar
     8    34    33    1
     9    36    35    3
    10    33    29    1
    11     8     2    1
    12     2     3   ar
    13    35    30    1
    14    26    24    1
    15    29    30   ar
    16    29    28   ar
    17    30    31   ar
    18     5    16    1
    19     5     4   ar
    20    20    16   ar
    21    20    19   ar
    22    28    19    1
    23    28    32   ar
    24    16    17   ar
    25    19    18   ar
    26    23    22    1
    27    22    21    3
    28    21    17    1
    29    17    18   ar
    30    25    24    1
    31    18    24    1
    32    31    32   ar
    33    31    38    1
    34    24    27    1
    35    46    45    1
    36     3     4   ar
    37     3     7    1
    38    38    42   ar
    39    38    39   ar
    40    43    42    1
    41     4    12    1
    42    42    41   ar
    43    39    45    1
    44    39    40   ar
    45    47    45    1
    46    41    40   ar
    47    41    44    1
    48    40    49    1
    49    49    48    3
    50    14    12    1
    51    12    13    1
    52    12    15    1
