@<TRIPOS>MOLECULE
mol_data/opt/cam/geoms/mol2/6hi13hl-12al6ii.out
 56 59 0 0 0
SMALL
GASTEIGER

@<TRIPOS>ATOM
      1 C          -4.2937   -2.0336   -0.7237 C.ar    1  LIG1        0.1169
      2 C          -2.9761   -2.2054   -0.2715 C.ar    1  LIG1       -0.0218
      3 C          -2.3450   -1.1131    0.2812 C.ar    1  LIG1       -0.0535
      4 C          -2.9707    0.1350    0.3674 C.ar    1  LIG1       -0.0229
      5 C          -4.2571    0.2185   -0.1837 C.ar    1  LIG1        0.0940
      6 N          -4.9001   -0.8540   -0.6900 N.ar    1  LIG1       -0.2307
      7 H          -1.3438   -1.2255    0.6890 H       1  LIG1        0.0622
      8 H          -2.4926   -3.1748   -0.3219 H       1  LIG1        0.0652
      9 N          -5.0368   -3.0969   -1.1919 N.pl3   1  LIG1       -0.3431
     10 H          -5.8591   -2.8298   -1.7116 H       1  LIG1        0.1437
     11 H          -4.5313   -3.8828   -1.5686 H       1  LIG1        0.1437
     12 C          -2.2941    1.2576    1.1093 C.3     1  LIG1       -0.0376
     13 H          -3.0195    1.9514    1.5348 H       1  LIG1        0.0278
     14 H          -1.6217    1.8493    0.4799 H       1  LIG1        0.0278
     15 H          -1.6900    0.8510    1.9247 H       1  LIG1        0.0278
     16 C          -5.0654    1.4402   -0.2223 C.ar    1  LIG1        0.0904
     17 C          -4.7978    2.7940   -0.4000 C.ar    1  LIG1        0.0947
     18 C          -6.0466    3.4566   -0.4329 C.ar    1  LIG1        0.1695
     19 C          -7.0505    2.5115   -0.3059 C.ar    1  LIG1        0.1268
     20 N          -6.4368    1.3042   -0.1824 N.ar    1  LIG1       -0.3461
     21 H          -6.8793    0.3983   -0.2020 H       1  LIG1        0.1662
     22 N          -3.5794    3.4710   -0.5537 N.pl3   1  LIG1       -0.3534
     23 H          -2.8803    2.9135   -1.0264 H       1  LIG1        0.1425
     24 H          -3.7287    4.3310   -1.0696 H       1  LIG1        0.1425
     25 O          -6.2137    4.8057   -0.6086 O.3     1  LIG1       -0.4910
     26 C          -6.0014    5.5561    0.5845 C.3     1  LIG1        0.0790
     27 H          -6.1255    6.6082    0.3225 H       1  LIG1        0.0660
     28 H          -6.7316    5.2818    1.3535 H       1  LIG1        0.0660
     29 H          -4.9919    5.3939    0.9773 H       1  LIG1        0.0660
     30 C          -8.4778    2.6713   -0.3164 C.ar    1  LIG1        0.1591
     31 C          -9.2864    3.7517   -0.5216 C.ar    1  LIG1        0.0282
     32 C         -10.6164    3.2561   -0.4182 C.ar    1  LIG1        0.1663
     33 C         -10.5502    1.9068   -0.1609 C.ar    1  LIG1        0.1788
     34 O          -9.2208    1.5630   -0.0969 O.2     1  LIG1       -0.4494
     35 H          -8.9488    4.7513   -0.7408 H       1  LIG1        0.0693
     36 O         -11.7756    3.9454   -0.5474 O.3     1  LIG1       -0.4913
     37 C         -11.6524    5.3093   -0.9002 C.3     1  LIG1        0.0790
     38 H         -12.6669    5.6980   -0.9846 H       1  LIG1        0.0660
     39 H         -11.1124    5.8732   -0.1312 H       1  LIG1        0.0660
     40 H         -11.1379    5.4274   -1.8602 H       1  LIG1        0.0660
     41 C         -11.3182   -0.5047   -0.0032 C.ar    1  LIG1        0.0490
     42 C         -11.5671    0.8877    0.0527 C.ar    1  LIG1        0.0422
     43 C         -12.8768    1.2975    0.3206 C.ar    1  LIG1       -0.0449
     44 C         -13.8898    0.3693    0.5233 C.ar    1  LIG1       -0.0317
     45 C         -13.5287   -0.9699    0.4524 C.ar    1  LIG1        0.0308
     46 N         -12.2925   -1.3915    0.1984 N.ar    1  LIG1       -0.2592
     47 H         -13.0973    2.3576    0.3689 H       1  LIG1        0.0628
     48 H         -14.2769   -1.7463    0.6056 H       1  LIG1        0.0832
     49 C          -9.9683   -1.1050   -0.2969 C.3     1  LIG1       -0.0217
     50 H          -9.2606   -0.9184    0.5156 H       1  LIG1        0.0293
     51 H          -9.5288   -0.6906   -1.2076 H       1  LIG1        0.0293
     52 H         -10.0965   -2.1809   -0.4111 H       1  LIG1        0.0293
     53 C         -15.3041    0.7927    0.8096 C.3     1  LIG1       -0.0383
     54 H         -15.9495   -0.0740    0.9701 H       1  LIG1        0.0278
     55 H         -15.7220    1.3715   -0.0197 H       1  LIG1        0.0278
     56 H         -15.3590    1.4208    1.7038 H       1  LIG1        0.0278
@<TRIPOS>BOND
     1    40    37    1
     2    10     9    1
     3    11     9    1
     4    51    49    1
     5     9     1    1
     6    24    22    1
     7    23    22    1
     8    38    37    1
     9    37    36    1
    10    37    39    1
    11    35    31    1
    12     1     6   ar
    13     1     2   ar
    14     6     5   ar
    15    25    18    1
    16    25    26    1
    17    22    17    1
    18    36    32    1
    19    31    32   ar
    20    31    30   ar
    21    18    17   ar
    22    18    19   ar
    23    32    33   ar
    24    52    49    1
    25    17    16   ar
    26     8     2    1
    27    30    19    1
    28    30    34   ar
    29    19    20   ar
    30    49    41    1
    31    49    50    1
    32     2     3   ar
    33    16     5    1
    34    16    20   ar
    35    21    20    1
    36     5     4   ar
    37    33    34   ar
    38    33    42    1
    39    55    53    1
    40    41    42   ar
    41    41    46   ar
    42    42    43   ar
    43    46    45   ar
    44     3     4   ar
    45     3     7    1
    46    43    47    1
    47    43    44   ar
    48    27    26    1
    49     4    12    1
    50    45    44   ar
    51    45    48    1
    52    14    12    1
    53    44    53    1
    54    26    29    1
    55    26    28    1
    56    53    54    1
    57    53    56    1
    58    12    13    1
    59    12    15    1
