@<TRIPOS>MOLECULE
mol_data/opt/cam/geoms/mol2/6hi13ed6ha12dl.out
 50 53 0 0 0
SMALL
GASTEIGER

@<TRIPOS>ATOM
      1 C          -4.5293   -2.0609   -0.2970 C.ar    1  LIG1        0.1169
      2 C          -3.2649   -2.2523    0.2831 C.ar    1  LIG1       -0.0218
      3 C          -2.6093   -1.1476    0.7747 C.ar    1  LIG1       -0.0535
      4 C          -3.1604    0.1375    0.6853 C.ar    1  LIG1       -0.0229
      5 C          -4.3947    0.2220    0.0374 C.ar    1  LIG1        0.0933
      6 N          -5.0676   -0.8539   -0.4175 N.ar    1  LIG1       -0.2307
      7 H          -1.6478   -1.2710    1.2650 H       1  LIG1        0.0622
      8 H          -2.8386   -3.2461    0.3662 H       1  LIG1        0.0652
      9 N          -5.2884   -3.1263   -0.7303 N.pl3   1  LIG1       -0.3431
     10 H          -6.0510   -2.8743   -1.3401 H       1  LIG1        0.1437
     11 H          -4.7993   -3.9695   -0.9850 H       1  LIG1        0.1437
     12 C          -2.4513    1.2990    1.3248 C.3     1  LIG1       -0.0376
     13 H          -3.1560    2.0428    1.7012 H       1  LIG1        0.0278
     14 H          -1.7913    1.8159    0.6251 H       1  LIG1        0.0278
     15 H          -1.8465    0.9495    2.1653 H       1  LIG1        0.0278
     16 C          -5.1441    1.4745   -0.1623 C.ar    1  LIG1        0.0826
     17 C          -4.8137    2.7771   -0.5094 C.ar    1  LIG1        0.0694
     18 C          -6.0481    3.5001   -0.6121 C.ar    1  LIG1        0.0931
     19 C          -7.0880    2.6190   -0.3428 C.ar    1  LIG1        0.0691
     20 N          -6.5074    1.4140   -0.0870 N.ar    1  LIG1       -0.3509
     21 H          -7.0068    0.5544    0.1032 H       1  LIG1        0.1660
     22 C          -3.5467    3.3209   -0.8463 C.1     1  LIG1       -0.0662
     23 C          -2.5019    3.8255   -1.1673 C.1     1  LIG1       -0.1138
     24 H          -1.5812    4.2769   -1.4572 H       1  LIG1        0.1232
     25 N          -6.2856    5.9833   -1.2588 N.1     1  LIG1       -0.1908
     26 C          -6.1740    4.8667   -0.9728 C.1     1  LIG1        0.1025
     27 C          -9.4591    1.7991   -0.5785 C.ar    1  LIG1        0.1261
     28 C          -8.5341    2.8289   -0.2773 C.ar    1  LIG1        0.0391
     29 C          -9.0710    4.0518    0.1124 C.ar    1  LIG1       -0.0472
     30 C         -10.4427    4.2189    0.2285 C.ar    1  LIG1       -0.0319
     31 C         -11.2576    3.1232   -0.0414 C.ar    1  LIG1        0.1095
     32 N         -10.7686    1.9466   -0.4505 N.ar    1  LIG1       -0.2286
     33 H          -8.4101    4.8794    0.3417 H       1  LIG1        0.0626
     34 N          -9.0313    0.5394   -0.9893 N.pl3   1  LIG1       -0.3426
     35 H          -9.8179   -0.0298   -1.2748 H       1  LIG1        0.1437
     36 H          -8.2819    0.5368   -1.6699 H       1  LIG1        0.1437
     37 H         -10.8532    5.1710    0.5361 H       1  LIG1        0.0640
     38 C         -12.7145    3.1920    0.0918 C.ar    1  LIG1        0.1740
     39 C         -13.5814    4.1510    0.5669 C.ar    1  LIG1        0.1404
     40 C         -14.9058    3.5990    0.4261 C.ar    1  LIG1        0.1757
     41 C         -14.7400    2.3690   -0.1173 C.ar    1  LIG1        0.1355
     42 O         -13.4193    2.1203   -0.3119 O.2     1  LIG1       -0.4563
     43 H         -15.4318    1.5894   -0.3882 H       1  LIG1        0.1068
     44 N         -13.0205    6.4472    1.5907 N.1     1  LIG1       -0.1906
     45 C         -13.2611    5.4115    1.1319 C.1     1  LIG1        0.1067
     46 O         -16.0792    4.1406    0.8155 O.3     1  LIG1       -0.4907
     47 C         -16.4161    5.3864    0.2072 C.3     1  LIG1        0.0790
     48 H         -17.3952    5.6592    0.5994 H       1  LIG1        0.0660
     49 H         -15.6956    6.1677    0.4635 H       1  LIG1        0.0660
     50 H         -16.4730    5.2825   -0.8814 H       1  LIG1        0.0660
@<TRIPOS>BOND
     1    36    34    1
     2    24    23    1
     3    10     9    1
     4    35    34    1
     5    25    26    3
     6    23    22    3
     7    34    27    1
     8    11     9    1
     9    26    18    1
    10    50    47    1
    11    22    17    1
    12     9     1    1
    13    18    17   ar
    14    18    19   ar
    15    27    32   ar
    16    27    28   ar
    17    17    16   ar
    18    32    31   ar
    19     6     1   ar
    20     6     5   ar
    21    43    41    1
    22    19    28    1
    23    19    20   ar
    24    42    41   ar
    25    42    38   ar
    26     1     2   ar
    27    28    29   ar
    28    16    20   ar
    29    16     5    1
    30    41    40   ar
    31    20    21    1
    32    31    38    1
    33    31    30   ar
    34     5     4   ar
    35    38    39   ar
    36    29    30   ar
    37    29    33    1
    38    47    49    1
    39    47    48    1
    40    47    46    1
    41    30    37    1
    42     2     8    1
    43     2     3   ar
    44    40    39   ar
    45    40    46    1
    46    39    45    1
    47    14    12    1
    48     4     3   ar
    49     4    12    1
    50     3     7    1
    51    45    44    3
    52    12    13    1
    53    12    15    1
