@<TRIPOS>MOLECULE
mol_data/opt/cam/geoms/mol2/6hi12ed-13fe-4ia-.out
 50 53 0 0 0
SMALL
GASTEIGER

@<TRIPOS>ATOM
      1 C          -4.4581   -1.9605   -0.6555 C.ar    1  LIG1        0.1169
      2 C          -3.3189   -2.1461    0.1456 C.ar    1  LIG1       -0.0218
      3 C          -2.8745   -1.0806    0.8939 C.ar    1  LIG1       -0.0535
      4 C          -3.5242    0.1599    0.8575 C.ar    1  LIG1       -0.0213
      5 C          -4.6254    0.2387    0.0014 C.ar    1  LIG1        0.1122
      6 N          -5.0862   -0.7942   -0.7235 N.ar    1  LIG1       -0.2290
      7 H          -2.0119   -1.2035    1.5426 H       1  LIG1        0.0622
      8 H          -2.8221   -3.1095    0.1856 H       1  LIG1        0.0652
      9 N          -5.0017   -2.9999   -1.3823 N.pl3   1  LIG1       -0.3431
     10 H          -5.6519   -2.7021   -2.0941 H       1  LIG1        0.1437
     11 H          -4.3763   -3.7383   -1.6640 H       1  LIG1        0.1437
     12 C          -3.0531    1.2856    1.7364 C.3     1  LIG1       -0.0376
     13 H          -3.8862    1.8980    2.0876 H       1  LIG1        0.0278
     14 H          -2.3680    1.9558    1.2112 H       1  LIG1        0.0278
     15 H          -2.5322    0.8885    2.6110 H       1  LIG1        0.0278
     16 C          -5.4106    1.4706   -0.1685 C.ar    1  LIG1        0.1708
     17 C          -5.1164    2.7799   -0.4189 C.ar    1  LIG1        0.0900
     18 C          -6.3840    3.4669   -0.5575 C.ar    1  LIG1        0.1150
     19 C          -7.3567    2.5135   -0.3844 C.ar    1  LIG1        0.1740
     20 O          -6.7671    1.3152   -0.1560 O.2     1  LIG1       -0.4491
     21 C          -3.8433    3.3766   -0.6097 C.1     1  LIG1       -0.0645
     22 C          -2.7824    3.9137   -0.7934 C.1     1  LIG1       -0.1138
     23 H          -1.8483    4.3969   -0.9662 H       1  LIG1        0.1232
     24 N          -6.5612    5.9735   -1.1176 N.1     1  LIG1       -0.1907
     25 C          -6.5186    4.8459   -0.8615 C.1     1  LIG1        0.1043
     26 C          -8.7881    2.4771   -0.3865 C.ar    1  LIG1        0.1271
     27 C          -9.7632    3.4532   -0.4311 C.ar    1  LIG1        0.1611
     28 C         -11.0332    2.8142   -0.3709 C.ar    1  LIG1        0.0920
     29 C         -10.7994    1.4412   -0.2844 C.ar    1  LIG1        0.0665
     30 N          -9.4559    1.2644   -0.3043 N.ar    1  LIG1       -0.3478
     31 H          -8.9870    0.3776   -0.2016 H       1  LIG1        0.1661
     32 O          -9.5348    4.7733   -0.5172 O.3     1  LIG1       -0.5034
     33 H         -10.3850    5.2334   -0.5593 H       1  LIG1        0.2923
     34 C         -12.2547    3.5256   -0.4751 C.1     1  LIG1       -0.0638
     35 C         -13.2425    4.2114   -0.5707 C.1     1  LIG1       -0.1137
     36 H         -14.1297    4.7935   -0.6703 H       1  LIG1        0.1232
     37 C         -12.7317    0.1605    0.7095 C.ar    1  LIG1       -0.0413
     38 C         -13.5347   -0.9788    0.6681 C.ar    1  LIG1       -0.0582
     39 C         -11.7115    0.2856   -0.2511 C.ar    1  LIG1        0.0025
     40 C         -13.3443   -1.9767   -0.2784 C.ar    1  LIG1       -0.0615
     41 H         -14.3212   -1.0879    1.4089 H       1  LIG1        0.0620
     42 C         -11.5178   -0.7283   -1.1956 C.ar    1  LIG1       -0.0523
     43 C         -12.3256   -1.8552   -1.2142 C.ar    1  LIG1       -0.0611
     44 H         -10.7341   -0.6118   -1.9377 H       1  LIG1        0.0624
     45 H         -13.9876   -2.8507   -0.2795 H       1  LIG1        0.0618
     46 C         -12.9560    1.1914    1.7835 C.3     1  LIG1       -0.0391
     47 H         -13.5728    0.7802    2.5852 H       1  LIG1        0.0278
     48 H         -13.4597    2.0777    1.3893 H       1  LIG1        0.0278
     49 H         -12.0119    1.5300    2.2172 H       1  LIG1        0.0278
     50 H         -12.1646   -2.6274   -1.9588 H       1  LIG1        0.0618
@<TRIPOS>BOND
     1    10     9    1
     2    50    43    1
     3    44    42    1
     4    11     9    1
     5     9     1    1
     6    43    42   ar
     7    43    40   ar
     8    42    39   ar
     9    24    25    3
    10    23    22    1
    11    25    18    1
    12    22    21    3
    13     6     1   ar
    14     6     5   ar
    15    36    35    1
    16     1     2   ar
    17    21    17    1
    18    35    34    3
    19    33    32    1
    20    18    17   ar
    21    18    19   ar
    22    32    27    1
    23    34    28    1
    24    27    26   ar
    25    27    28   ar
    26    17    16   ar
    27    26    19    1
    28    26    30   ar
    29    19    20   ar
    30    28    29   ar
    31    30    29   ar
    32    30    31    1
    33    29    39    1
    34    45    40    1
    35    40    38   ar
    36    39    37   ar
    37    16    20   ar
    38    16     5    1
    39     5     4   ar
    40     2     8    1
    41     2     3   ar
    42    38    37   ar
    43    38    41    1
    44    37    46    1
    45     4     3   ar
    46     4    12    1
    47     3     7    1
    48    14    12    1
    49    48    46    1
    50    12    13    1
    51    12    15    1
    52    46    49    1
    53    46    47    1
