@<TRIPOS>MOLECULE
mol_data/opt/cam/geoms/mol2/6hi6hi-.out
 30 31 0 0 0
SMALL
GASTEIGER

@<TRIPOS>ATOM
      1 C          -4.3996   -2.0181   -0.6972 C.ar    1  LIG1        0.1168
      2 C          -3.1298   -2.1269   -0.1140 C.ar    1  LIG1       -0.0218
      3 C          -2.5915   -1.0013    0.4733 C.ar    1  LIG1       -0.0536
      4 C          -3.2813    0.2145    0.4808 C.ar    1  LIG1       -0.0242
      5 C          -4.5282    0.2207   -0.1579 C.ar    1  LIG1        0.0793
      6 N          -5.0704   -0.8689   -0.7217 N.ar    1  LIG1       -0.2321
      7 H          -1.6196   -1.0607    0.9556 H       1  LIG1        0.0622
      8 H          -2.6016   -3.0744   -0.1084 H       1  LIG1        0.0652
      9 N          -5.0401   -3.1127   -1.2436 N.pl3   1  LIG1       -0.3431
     10 H          -5.8250   -2.8717   -1.8302 H       1  LIG1        0.1437
     11 H          -4.4592   -3.8568   -1.5963 H       1  LIG1        0.1437
     12 C          -2.7180    1.4197    1.1851 C.3     1  LIG1       -0.0377
     13 H          -3.4501    1.8532    1.8721 H       1  LIG1        0.0278
     14 H          -2.4391    2.2076    0.4802 H       1  LIG1        0.0278
     15 H          -1.8342    1.1447    1.7655 H       1  LIG1        0.0278
     16 C          -4.9885    2.6190   -0.8942 C.ar    1  LIG1        0.1254
     17 C          -5.3791    1.4435   -0.2176 C.ar    1  LIG1        0.0404
     18 C          -6.6420    1.4345    0.3521 C.ar    1  LIG1       -0.0449
     19 C          -7.4641    2.5610    0.3126 C.ar    1  LIG1       -0.0316
     20 C          -6.9485    3.6666   -0.3493 C.ar    1  LIG1        0.0326
     21 N          -5.7599    3.7025   -0.9500 N.ar    1  LIG1       -0.2398
     22 H          -6.9819    0.5249    0.8395 H       1  LIG1        0.0628
     23 H          -7.5363    4.5813   -0.4136 H       1  LIG1        0.0833
     24 N          -3.7639    2.7173   -1.5333 N.pl3   1  LIG1       -0.3426
     25 H          -3.3755    1.8563   -1.8887 H       1  LIG1        0.1437
     26 H          -3.7241    3.4948   -2.1764 H       1  LIG1        0.1437
     27 C          -8.8284    2.5774    0.9449 C.3     1  LIG1       -0.0383
     28 H          -8.7758    2.3906    2.0221 H       1  LIG1        0.0278
     29 H          -9.4802    1.8105    0.5147 H       1  LIG1        0.0278
     30 H          -9.3155    3.5448    0.8007 H       1  LIG1        0.0278
@<TRIPOS>BOND
     1    26    24    1
     2    25    24    1
     3    10     9    1
     4    11     9    1
     5    24    16    1
     6     9     1    1
     7    21    16   ar
     8    21    20   ar
     9    16    17   ar
    10     6     1   ar
    11     6     5   ar
    12     1     2   ar
    13    23    20    1
    14    20    19   ar
    15    17     5    1
    16    17    18   ar
    17     5     4   ar
    18     2     8    1
    19     2     3   ar
    20    19    18   ar
    21    19    27    1
    22    18    22    1
    23     3     4   ar
    24     3     7    1
    25    14    12    1
    26     4    12    1
    27    29    27    1
    28    30    27    1
    29    27    28    1
    30    12    15    1
    31    12    13    1
