@<TRIPOS>MOLECULE
mol_data/opt/cam/geoms/mol2/6hi6hd-4hf-4hi.out
 56 59 0 0 0
SMALL
GASTEIGER

@<TRIPOS>ATOM
      1 C          -3.5952   -1.7062   -1.3996 C.ar    1  LIG1        0.1168
      2 C          -2.8289   -2.1786   -0.3249 C.ar    1  LIG1       -0.0218
      3 C          -2.9106   -1.4952    0.8666 C.ar    1  LIG1       -0.0536
      4 C          -3.7036   -0.3499    1.0083 C.ar    1  LIG1       -0.0242
      5 C          -4.3970    0.0662   -0.1352 C.ar    1  LIG1        0.0793
      6 N          -4.3514   -0.6184   -1.2938 N.ar    1  LIG1       -0.2321
      7 H          -2.3549   -1.8569    1.7273 H       1  LIG1        0.0622
      8 H          -2.2182   -3.0689   -0.4265 H       1  LIG1        0.0652
      9 N          -3.6387   -2.3737   -2.6045 N.pl3   1  LIG1       -0.3431
     10 H          -3.9783   -1.8203   -3.3767 H       1  LIG1        0.1437
     11 H          -2.8603   -2.9742   -2.8255 H       1  LIG1        0.1437
     12 C          -3.7926    0.3150    2.3585 C.3     1  LIG1       -0.0377
     13 H          -4.7678    0.7753    2.5250 H       1  LIG1        0.0278
     14 H          -3.0353    1.0944    2.4938 H       1  LIG1        0.0278
     15 H          -3.6319   -0.4233    3.1479 H       1  LIG1        0.0278
     16 C          -6.5123    1.3289   -0.8132 C.ar    1  LIG1        0.1262
     17 C          -5.2421    1.2909   -0.1641 C.ar    1  LIG1        0.0414
     18 C          -4.8314    2.4676    0.4232 C.ar    1  LIG1       -0.0298
     19 C          -5.6357    3.6162    0.4092 C.ar    1  LIG1        0.0785
     20 C          -6.8830    3.5464   -0.2377 C.ar    1  LIG1        0.0923
     21 N          -7.2887    2.4192   -0.8175 N.ar    1  LIG1       -0.2304
     22 H          -3.8659    2.5189    0.9115 H       1  LIG1        0.0639
     23 N          -7.0202    0.2399   -1.4387 N.pl3   1  LIG1       -0.3426
     24 H          -7.8517    0.4106   -1.9824 H       1  LIG1        0.1437
     25 H          -6.3496   -0.4461   -1.7593 H       1  LIG1        0.1437
     26 N          -4.7795    5.7093    1.6651 N.1     1  LIG1       -0.1908
     27 C          -5.1847    4.7812    1.1031 C.1     1  LIG1        0.1013
     28 C          -7.5336    5.9574   -0.7549 C.ar    1  LIG1        0.0347
     29 C          -8.5325    6.9375   -0.7114 C.ar    1  LIG1       -0.0291
     30 C          -7.8449    4.6791   -0.2695 C.ar    1  LIG1        0.0258
     31 C          -9.8152    6.7019   -0.2288 C.ar    1  LIG1        0.0271
     32 H          -8.2983    7.9290   -1.0863 H       1  LIG1        0.0643
     33 C          -9.1437    4.4225    0.1812 C.ar    1  LIG1       -0.0086
     34 C         -10.1166    5.4034    0.2175 C.ar    1  LIG1        0.1253
     35 H          -9.3791    3.4150    0.5131 H       1  LIG1        0.0661
     36 N          -6.3162    6.2725   -1.3637 N.pl3   1  LIG1       -0.3574
     37 H          -5.5514    5.6492   -1.1582 H       1  LIG1        0.1423
     38 H          -6.0344    7.2338   -1.2330 H       1  LIG1        0.1423
     39 O         -11.3816    5.1490    0.6727 O.3     1  LIG1       -0.5061
     40 H         -11.4388    4.2192    0.9204 H       1  LIG1        0.2922
     41 C         -11.1184    8.5627   -1.3287 C.ar    1  LIG1        0.0325
     42 C         -12.0567    9.5951   -1.2178 C.ar    1  LIG1       -0.0402
     43 C         -10.8242    7.7948   -0.1879 C.ar    1  LIG1        0.0065
     44 C         -12.6902    9.8618   -0.0179 C.ar    1  LIG1       -0.0571
     45 H         -12.2818   10.1957   -2.0952 H       1  LIG1        0.0636
     46 C         -11.4885    8.0829    1.0070 C.ar    1  LIG1       -0.0492
     47 C         -12.4201    9.1059    1.1238 C.ar    1  LIG1       -0.0498
     48 H         -11.2624    7.4708    1.8740 H       1  LIG1        0.0627
     49 H         -13.4123   10.6727    0.0321 H       1  LIG1        0.0621
     50 N         -10.4762    8.3492   -2.5505 N.pl3   1  LIG1       -0.3575
     51 H         -10.0995    7.4200   -2.6747 H       1  LIG1        0.1423
     52 H         -11.0084    8.6533   -3.3529 H       1  LIG1        0.1423
     53 C         -13.1240    9.3840    2.4264 C.3     1  LIG1       -0.0397
     54 H         -12.6951    8.7953    3.2405 H       1  LIG1        0.0278
     55 H         -14.1897    9.1378    2.3685 H       1  LIG1        0.0278
     56 H         -13.0519   10.4399    2.7055 H       1  LIG1        0.0278
@<TRIPOS>BOND
     1    10     9    1
     2    52    50    1
     3    11     9    1
     4    51    50    1
     5     9     1    1
     6    50    41    1
     7    45    42    1
     8    24    23    1
     9    25    23    1
    10    23    16    1
    11     1     6   ar
    12     1     2   ar
    13    36    38    1
    14    36    37    1
    15    36    28    1
    16    41    42   ar
    17    41    43   ar
    18     6     5   ar
    19    42    44   ar
    20    32    29    1
    21    21    16   ar
    22    21    20   ar
    23    16    17   ar
    24    28    29   ar
    25    28    30   ar
    26    29    31   ar
    27     8     2    1
    28     2     3   ar
    29    30    20    1
    30    30    33   ar
    31    20    19   ar
    32    31    43    1
    33    31    34   ar
    34    43    46   ar
    35    17     5    1
    36    17    18   ar
    37     5     4   ar
    38    44    49    1
    39    44    47   ar
    40    33    34   ar
    41    33    35    1
    42    34    39    1
    43    19    18   ar
    44    19    27    1
    45    18    22    1
    46    39    40    1
    47     3     4   ar
    48     3     7    1
    49    46    47   ar
    50    46    48    1
    51     4    12    1
    52    27    26    3
    53    47    53    1
    54    12    14    1
    55    12    13    1
    56    12    15    1
    57    55    53    1
    58    53    56    1
    59    53    54    1
