@<TRIPOS>MOLECULE
mol_data/opt/cam/geoms/mol2/6hi6hi6hi-6hi.out
 58 61 0 0 0
SMALL
GASTEIGER

@<TRIPOS>ATOM
      1 C          -4.0793   -1.9900   -1.2517 C.ar    1  LIG1        0.1168
      2 C          -2.9769   -2.2605   -0.4298 C.ar    1  LIG1       -0.0218
      3 C          -2.6713   -1.3422    0.5496 C.ar    1  LIG1       -0.0536
      4 C          -3.4103   -0.1653    0.7118 C.ar    1  LIG1       -0.0242
      5 C          -4.4684    0.0323   -0.1855 C.ar    1  LIG1        0.0793
      6 N          -4.7928   -0.8762   -1.1244 N.ar    1  LIG1       -0.2321
      7 H          -1.8429   -1.5389    1.2248 H       1  LIG1        0.0622
      8 H          -2.4075   -3.1761   -0.5462 H       1  LIG1        0.0652
      9 N          -4.5074   -2.8908   -2.2058 N.pl3   1  LIG1       -0.3431
     10 H          -5.1143   -2.4918   -2.9061 H       1  LIG1        0.1437
     11 H          -3.8226   -3.5385   -2.5625 H       1  LIG1        0.1437
     12 C          -3.0636    0.7711    1.8412 C.3     1  LIG1       -0.0377
     13 H          -3.9434    1.2936    2.2198 H       1  LIG1        0.0278
     14 H          -2.3344    1.5328    1.5452 H       1  LIG1        0.0278
     15 H          -2.6213    0.2106    2.6687 H       1  LIG1        0.0278
     16 C          -6.7291    1.1946   -0.2876 C.ar    1  LIG1        0.1261
     17 C          -5.3168    1.2543   -0.1732 C.ar    1  LIG1        0.0405
     18 C          -4.7625    2.5203   -0.0706 C.ar    1  LIG1       -0.0443
     19 C          -5.5354    3.6817   -0.0528 C.ar    1  LIG1       -0.0236
     20 C          -6.9185    3.4986   -0.1612 C.ar    1  LIG1        0.0793
     21 N          -7.4867    2.2916   -0.2711 N.ar    1  LIG1       -0.2314
     22 H          -3.6835    2.6156   -0.0016 H       1  LIG1        0.0628
     23 N          -7.3958   -0.0003   -0.3761 N.pl3   1  LIG1       -0.3426
     24 H          -8.3659    0.1025   -0.6326 H       1  LIG1        0.1437
     25 H          -6.8786   -0.7444   -0.8241 H       1  LIG1        0.1437
     26 C          -4.8971    5.0334    0.1276 C.3     1  LIG1       -0.0377
     27 H          -5.3578    5.5805    0.9552 H       1  LIG1        0.0278
     28 H          -5.0044    5.6572   -0.7640 H       1  LIG1        0.0278
     29 H          -3.8323    4.9270    0.3484 H       1  LIG1        0.0278
     30 C          -7.9112    5.6442   -1.1155 C.ar    1  LIG1        0.1261
     31 C          -7.8750    4.6410   -0.1281 C.ar    1  LIG1        0.0405
     32 C          -8.8246    4.7258    0.8771 C.ar    1  LIG1       -0.0443
     33 C          -9.7436    5.7723    0.9435 C.ar    1  LIG1       -0.0236
     34 C          -9.6806    6.7161   -0.0899 C.ar    1  LIG1        0.0793
     35 N          -8.7888    6.6441   -1.0863 N.ar    1  LIG1       -0.2314
     36 H          -8.8337    3.9559    1.6432 H       1  LIG1        0.0628
     37 N          -7.0231    5.6548   -2.1776 N.pl3   1  LIG1       -0.3426
     38 H          -6.6690    4.7562   -2.4707 H       1  LIG1        0.1437
     39 H          -7.3224    6.2574   -2.9304 H       1  LIG1        0.1437
     40 C         -10.7064    5.8843    2.0954 C.3     1  LIG1       -0.0377
     41 H         -10.4664    5.1484    2.8661 H       1  LIG1        0.0278
     42 H         -11.7401    5.7271    1.7759 H       1  LIG1        0.0278
     43 H         -10.6625    6.8773    2.5518 H       1  LIG1        0.0278
     44 C         -11.9854    7.7846   -0.2983 C.ar    1  LIG1        0.1254
     45 C         -10.5871    7.8986   -0.1413 C.ar    1  LIG1        0.0404
     46 C         -10.0597    9.1788   -0.1021 C.ar    1  LIG1       -0.0449
     47 C         -10.8824   10.3048   -0.1538 C.ar    1  LIG1       -0.0316
     48 C         -12.2430   10.0582   -0.2708 C.ar    1  LIG1        0.0326
     49 N         -12.7879    8.8453   -0.3565 N.ar    1  LIG1       -0.2398
     50 H          -8.9817    9.2914   -0.0255 H       1  LIG1        0.0628
     51 H         -12.9422   10.8924   -0.3124 H       1  LIG1        0.0833
     52 N         -12.6070    6.5514   -0.3878 N.pl3   1  LIG1       -0.3426
     53 H         -13.5480    6.6142   -0.7480 H       1  LIG1        0.1437
     54 H         -12.0556    5.7986   -0.7725 H       1  LIG1        0.1437
     55 C         -10.3297   11.7020   -0.0913 C.3     1  LIG1       -0.0383
     56 H         -11.1305   12.4430   -0.1516 H       1  LIG1        0.0278
     57 H          -9.6350   11.8969   -0.9143 H       1  LIG1        0.0278
     58 H          -9.7846   11.8789    0.8413 H       1  LIG1        0.0278
@<TRIPOS>BOND
     1    39    37    1
     2    10     9    1
     3    11     9    1
     4    38    37    1
     5     9     1    1
     6    37    30    1
     7     1     6   ar
     8     1     2   ar
     9     6     5   ar
    10    30    35   ar
    11    30    31   ar
    12    35    34   ar
    13    57    55    1
    14    25    23    1
    15    54    52    1
    16    28    26    1
    17    53    52    1
    18    24    23    1
    19     8     2    1
    20     2     3   ar
    21    52    44    1
    22    23    16    1
    23    49    44   ar
    24    49    48   ar
    25    51    48    1
    26    44    45   ar
    27    16    21   ar
    28    16    17   ar
    29    21    20   ar
    30    48    47   ar
    31     5    17    1
    32     5     4   ar
    33    17    18   ar
    34    20    31    1
    35    20    19   ar
    36    47    46   ar
    37    47    55    1
    38    56    55    1
    39    45    46   ar
    40    45    34    1
    41    31    32   ar
    42    46    50    1
    43    55    58    1
    44    34    33   ar
    45    18    19   ar
    46    18    22    1
    47    19    26    1
    48    26    29    1
    49    26    27    1
    50     3     4   ar
    51     3     7    1
    52     4    12    1
    53    32    33   ar
    54    32    36    1
    55    33    40    1
    56    14    12    1
    57    42    40    1
    58    12    13    1
    59    12    15    1
    60    40    43    1
    61    40    41    1
