@<TRIPOS>MOLECULE
mol_data/opt/cam/geoms/mol2/6hi6hi6hi-6hi-.out
 58 61 0 0 0
SMALL
GASTEIGER

@<TRIPOS>ATOM
      1 C          -4.0979   -1.9781   -1.2776 C.ar    1  LIG1        0.1168
      2 C          -3.0240   -2.2845   -0.4308 C.ar    1  LIG1       -0.0218
      3 C          -2.7294   -1.3908    0.5744 C.ar    1  LIG1       -0.0536
      4 C          -3.4515   -0.2037    0.7390 C.ar    1  LIG1       -0.0242
      5 C          -4.4809    0.0296   -0.1824 C.ar    1  LIG1        0.0793
      6 N          -4.7952   -0.8544   -1.1477 N.ar    1  LIG1       -0.2321
      7 H          -1.9237   -1.6155    1.2681 H       1  LIG1        0.0622
      8 H          -2.4679   -3.2080   -0.5493 H       1  LIG1        0.0652
      9 N          -4.5144   -2.8520   -2.2611 N.pl3   1  LIG1       -0.3431
     10 H          -5.0949   -2.4289   -2.9696 H       1  LIG1        0.1437
     11 H          -3.8316   -3.5051   -2.6115 H       1  LIG1        0.1437
     12 C          -3.1183    0.7060    1.8940 C.3     1  LIG1       -0.0377
     13 H          -3.9969    1.2422    2.2553 H       1  LIG1        0.0278
     14 H          -2.3634    1.4552    1.6323 H       1  LIG1        0.0278
     15 H          -2.7134    0.1224    2.7248 H       1  LIG1        0.0278
     16 C          -6.7189    1.2315   -0.3174 C.ar    1  LIG1        0.1261
     17 C          -5.3087    1.2658   -0.1689 C.ar    1  LIG1        0.0405
     18 C          -4.7364    2.5200   -0.0301 C.ar    1  LIG1       -0.0443
     19 C          -5.4909    3.6941   -0.0100 C.ar    1  LIG1       -0.0236
     20 C          -6.8733    3.5355   -0.1549 C.ar    1  LIG1        0.0793
     21 N          -7.4587    2.3404   -0.2991 N.ar    1  LIG1       -0.2314
     22 H          -3.6581    2.5962    0.0673 H       1  LIG1        0.0628
     23 N          -7.4022    0.0497   -0.4430 N.pl3   1  LIG1       -0.3426
     24 H          -8.3642    0.1724   -0.7204 H       1  LIG1        0.1437
     25 H          -6.8864   -0.6953   -0.8912 H       1  LIG1        0.1437
     26 C          -4.8342    5.0311    0.2111 C.3     1  LIG1       -0.0377
     27 H          -5.3274    5.5856    1.0145 H       1  LIG1        0.0278
     28 H          -4.8771    5.6616   -0.6812 H       1  LIG1        0.0278
     29 H          -3.7858    4.9004    0.4892 H       1  LIG1        0.0278
     30 C          -7.8057    5.7157   -1.0932 C.ar    1  LIG1        0.1261
     31 C          -7.8118    4.6928   -0.1263 C.ar    1  LIG1        0.0405
     32 C          -8.7824    4.7834    0.8553 C.ar    1  LIG1       -0.0443
     33 C          -9.6904    5.8412    0.9200 C.ar    1  LIG1       -0.0236
     34 C          -9.5933    6.8071   -0.0909 C.ar    1  LIG1        0.0793
     35 N          -8.6632    6.7301   -1.0576 N.ar    1  LIG1       -0.2314
     36 H          -8.8214    4.0029    1.6098 H       1  LIG1        0.0628
     37 N          -6.8922    5.7322   -2.1331 N.pl3   1  LIG1       -0.3426
     38 H          -6.5277    4.8335   -2.4134 H       1  LIG1        0.1437
     39 H          -7.1789    6.3232   -2.9000 H       1  LIG1        0.1437
     40 C         -10.6659    5.9031    2.0679 C.3     1  LIG1       -0.0377
     41 H         -10.2433    5.4063    2.9448 H       1  LIG1        0.0278
     42 H         -11.6108    5.3987    1.8397 H       1  LIG1        0.0278
     43 H         -10.9037    6.9318    2.3430 H       1  LIG1        0.0278
     44 C         -10.0305    9.2864   -0.4617 C.ar    1  LIG1        0.1254
     45 C         -10.5082    7.9773   -0.1819 C.ar    1  LIG1        0.0404
     46 C         -11.8783    7.8328   -0.0303 C.ar    1  LIG1       -0.0449
     47 C         -12.7467    8.9234   -0.1070 C.ar    1  LIG1       -0.0316
     48 C         -12.1518   10.1529   -0.3446 C.ar    1  LIG1        0.0326
     49 N         -10.8458   10.3400   -0.5262 N.ar    1  LIG1       -0.2398
     50 H         -12.2870    6.8412    0.1389 H       1  LIG1        0.0628
     51 H         -12.7688   11.0487   -0.4069 H       1  LIG1        0.0833
     52 N          -8.6933    9.5412   -0.6351 N.pl3   1  LIG1       -0.3426
     53 H          -8.1646    8.7769   -1.0333 H       1  LIG1        0.1437
     54 H          -8.5130   10.4618   -1.0063 H       1  LIG1        0.1437
     55 C         -14.2344    8.7733    0.0532 C.3     1  LIG1       -0.0383
     56 H         -14.4972    8.3551    1.0303 H       1  LIG1        0.0278
     57 H         -14.6586    8.1099   -0.7075 H       1  LIG1        0.0278
     58 H         -14.7361    9.7399   -0.0366 H       1  LIG1        0.0278
@<TRIPOS>BOND
     1    10     9    1
     2    39    37    1
     3    11     9    1
     4    38    37    1
     5     9     1    1
     6    37    30    1
     7     1     6   ar
     8     1     2   ar
     9     6     5   ar
    10    30    35   ar
    11    30    31   ar
    12    35    34   ar
    13    53    52    1
    14    54    52    1
    15    25    23    1
    16    24    23    1
    17    57    55    1
    18    28    26    1
    19    52    44    1
    20     8     2    1
    21    49    44   ar
    22    49    48   ar
    23    44    45   ar
    24    23    16    1
    25     2     3   ar
    26    51    48    1
    27    48    47   ar
    28    16    21   ar
    29    16    17   ar
    30    21    20   ar
    31     5    17    1
    32     5     4   ar
    33    45    34    1
    34    45    46   ar
    35    17    18   ar
    36    20    31    1
    37    20    19   ar
    38    31    32   ar
    39    47    46   ar
    40    47    55    1
    41    34    33   ar
    42    58    55    1
    43    46    50    1
    44    18    19   ar
    45    18    22    1
    46    19    26    1
    47    55    56    1
    48    26    29    1
    49    26    27    1
    50     3     4   ar
    51     3     7    1
    52     4    12    1
    53    32    33   ar
    54    32    36    1
    55    33    40    1
    56    14    12    1
    57    42    40    1
    58    12    13    1
    59    12    15    1
    60    40    43    1
    61    40    41    1
