@<TRIPOS>MOLECULE
mol_data/opt/cam/geoms/mol2/6hi6hi-6hi6hi-.out
 58 61 0 0 0
SMALL
GASTEIGER

@<TRIPOS>ATOM
      1 C          -4.3243   -2.1436   -0.8616 C.ar    1  LIG1        0.1168
      2 C          -3.0365   -2.2913   -0.3278 C.ar    1  LIG1       -0.0218
      3 C          -2.4737   -1.2056    0.3091 C.ar    1  LIG1       -0.0536
      4 C          -3.1569    0.0097    0.4132 C.ar    1  LIG1       -0.0242
      5 C          -4.4233    0.0583   -0.1831 C.ar    1  LIG1        0.0793
      6 N          -4.9897   -0.9926   -0.7946 N.ar    1  LIG1       -0.2321
      7 H          -1.4871   -1.2976    0.7549 H       1  LIG1        0.0622
      8 H          -2.5132   -3.2390   -0.3970 H       1  LIG1        0.0652
      9 N          -4.9871   -3.2008   -1.4511 N.pl3   1  LIG1       -0.3431
     10 H          -5.7919   -2.9261   -1.9941 H       1  LIG1        0.1437
     11 H          -4.4239   -3.9288   -1.8611 H       1  LIG1        0.1437
     12 C          -2.5661    1.1673    1.1729 C.3     1  LIG1       -0.0377
     13 H          -3.2734    1.5575    1.9101 H       1  LIG1        0.0278
     14 H          -2.3061    1.9983    0.5115 H       1  LIG1        0.0278
     15 H          -1.6650    0.8545    1.7055 H       1  LIG1        0.0278
     16 C          -4.9003    2.4948   -0.7649 C.ar    1  LIG1        0.1261
     17 C          -5.2682    1.2857   -0.1438 C.ar    1  LIG1        0.0405
     18 C          -6.5055    1.2592    0.4791 C.ar    1  LIG1       -0.0443
     19 C          -7.3324    2.3805    0.5343 C.ar    1  LIG1       -0.0236
     20 C          -6.8597    3.5286   -0.1145 C.ar    1  LIG1        0.0793
     21 N          -5.6790    3.5739   -0.7445 N.ar    1  LIG1       -0.2314
     22 H          -6.8240    0.3350    0.9524 H       1  LIG1        0.0628
     23 N          -3.6944    2.6372   -1.4292 N.pl3   1  LIG1       -0.3426
     24 H          -3.3019    1.7980   -1.8291 H       1  LIG1        0.1437
     25 H          -3.6733    3.4454   -2.0337 H       1  LIG1        0.1437
     26 C          -8.6306    2.3488    1.2958 C.3     1  LIG1       -0.0377
     27 H          -8.7244    1.4130    1.8513 H       1  LIG1        0.0278
     28 H          -9.4933    2.4448    0.6309 H       1  LIG1        0.0278
     29 H          -8.6875    3.1732    2.0124 H       1  LIG1        0.0278
     30 C          -8.8792    4.9435   -0.7581 C.ar    1  LIG1        0.1261
     31 C          -7.6278    4.8058   -0.1271 C.ar    1  LIG1        0.0405
     32 C          -7.0960    5.9465    0.4518 C.ar    1  LIG1       -0.0443
     33 C          -7.7765    7.1636    0.4547 C.ar    1  LIG1       -0.0236
     34 C          -9.0153    7.1799   -0.1994 C.ar    1  LIG1        0.0793
     35 N          -9.5413    6.0975   -0.7866 N.ar    1  LIG1       -0.2314
     36 H          -6.1245    5.8758    0.9324 H       1  LIG1        0.0628
     37 N          -9.5039    3.8769   -1.3804 N.pl3   1  LIG1       -0.3426
     38 H         -10.2466    4.1654   -2.0005 H       1  LIG1        0.1437
     39 H          -8.9004    3.1562   -1.7477 H       1  LIG1        0.1437
     40 C          -7.2134    8.3637    1.1679 C.3     1  LIG1       -0.0377
     41 H          -7.9444    8.7899    1.8609 H       1  LIG1        0.0278
     42 H          -6.9380    9.1576    0.4685 H       1  LIG1        0.0278
     43 H          -6.3272    8.0852    1.7426 H       1  LIG1        0.0278
     44 C          -9.4645    9.5783   -0.9371 C.ar    1  LIG1        0.1254
     45 C          -9.8636    8.4043   -0.2624 C.ar    1  LIG1        0.0404
     46 C         -11.1300    8.3996    0.2987 C.ar    1  LIG1       -0.0449
     47 C         -11.9491    9.5284    0.2514 C.ar    1  LIG1       -0.0316
     48 C         -11.4259   10.6314   -0.4086 C.ar    1  LIG1        0.0326
     49 N         -10.2326   10.6637   -1.0002 N.ar    1  LIG1       -0.2398
     50 H         -11.4763    7.4918    0.7851 H       1  LIG1        0.0628
     51 H         -12.0113   11.5472   -0.4791 H       1  LIG1        0.0833
     52 N          -8.2346    9.6716   -1.5655 N.pl3   1  LIG1       -0.3426
     53 H          -7.8417    8.8084   -1.9106 H       1  LIG1        0.1437
     54 H          -8.1850   10.4468   -2.2104 H       1  LIG1        0.1437
     55 C         -13.3177    9.5494    0.8741 C.3     1  LIG1       -0.0383
     56 H         -13.2725    9.3748    1.9537 H       1  LIG1        0.0278
     57 H         -13.9652    8.7767    0.4479 H       1  LIG1        0.0278
     58 H         -13.8053   10.5144    0.7157 H       1  LIG1        0.0278
@<TRIPOS>BOND
     1    54    52    1
     2    25    23    1
     3    38    37    1
     4    10     9    1
     5    53    52    1
     6    11     9    1
     7    24    23    1
     8    39    37    1
     9    52    44    1
    10     9     1    1
    11    23    16    1
    12    37    30    1
    13    49    44   ar
    14    49    48   ar
    15    44    45   ar
    16     1     6   ar
    17     1     2   ar
    18     6     5   ar
    19    35    30   ar
    20    35    34   ar
    21    16    21   ar
    22    16    17   ar
    23    30    31   ar
    24    21    20   ar
    25    51    48    1
    26    48    47   ar
    27     8     2    1
    28     2     3   ar
    29    45    34    1
    30    45    46   ar
    31    34    33   ar
    32     5    17    1
    33     5     4   ar
    34    17    18   ar
    35    31    20    1
    36    31    32   ar
    37    20    19   ar
    38    47    46   ar
    39    47    55    1
    40    46    50    1
    41     3     4   ar
    42     3     7    1
    43     4    12    1
    44    57    55    1
    45    32    33   ar
    46    32    36    1
    47    33    40    1
    48    42    40    1
    49    18    19   ar
    50    18    22    1
    51    14    12    1
    52    19    26    1
    53    28    26    1
    54    58    55    1
    55    55    56    1
    56    40    43    1
    57    40    41    1
    58    12    15    1
    59    12    13    1
    60    26    27    1
    61    26    29    1
