@<TRIPOS>MOLECULE
mol_data/opt/cam/geoms/mol2/6hi6hi-4hi6hi.out
 59 62 0 0 0
SMALL
GASTEIGER

@<TRIPOS>ATOM
      1 C          -4.5677   -2.2771   -0.3040 C.ar    1  LIG1        0.1168
      2 C          -3.1732   -2.3901   -0.2129 C.ar    1  LIG1       -0.0218
      3 C          -2.4407   -1.2320   -0.0613 C.ar    1  LIG1       -0.0536
      4 C          -3.0626    0.0193   -0.0105 C.ar    1  LIG1       -0.0242
      5 C          -4.4570    0.0210   -0.1451 C.ar    1  LIG1        0.0793
      6 N          -5.1844   -1.0980   -0.2791 N.ar    1  LIG1       -0.2321
      7 H          -1.3603   -1.2902    0.0385 H       1  LIG1        0.0622
      8 H          -2.6930   -3.3625   -0.2384 H       1  LIG1        0.0652
      9 N          -5.3784   -3.3908   -0.3844 N.pl3   1  LIG1       -0.3431
     10 H          -6.3236   -3.1876   -0.6733 H       1  LIG1        0.1437
     11 H          -4.9797   -4.2254   -0.7837 H       1  LIG1        0.1437
     12 C          -2.2621    1.2715    0.2311 C.3     1  LIG1       -0.0377
     13 H          -2.6893    1.8618    1.0465 H       1  LIG1        0.0278
     14 H          -2.2390    1.9185   -0.6501 H       1  LIG1        0.0278
     15 H          -1.2338    1.0207    0.5013 H       1  LIG1        0.0278
     16 C          -5.1284    2.3058   -1.0586 C.ar    1  LIG1        0.1261
     17 C          -5.2533    1.2799   -0.1038 C.ar    1  LIG1        0.0405
     18 C          -6.2065    1.4723    0.8812 C.ar    1  LIG1       -0.0443
     19 C          -6.9840    2.6279    0.9594 C.ar    1  LIG1       -0.0237
     20 C          -6.7765    3.5872   -0.0415 C.ar    1  LIG1        0.0778
     21 N          -5.8621    3.4130   -1.0109 N.ar    1  LIG1       -0.2314
     22 H          -6.3352    0.6936    1.6275 H       1  LIG1        0.0628
     23 N          -4.2187    2.2297   -2.1006 N.pl3   1  LIG1       -0.3426
     24 H          -3.9633    1.2984   -2.3945 H       1  LIG1        0.1437
     25 H          -4.4386    2.8591   -2.8590 H       1  LIG1        0.1437
     26 C          -7.9444    2.7943    2.1094 C.3     1  LIG1       -0.0377
     27 H          -7.5835    2.2430    2.9813 H       1  LIG1        0.0278
     28 H          -8.9427    2.4092    1.8768 H       1  LIG1        0.0278
     29 H          -8.0592    3.8418    2.3916 H       1  LIG1        0.0278
     30 C          -6.9067    6.0969   -0.3334 C.ar    1  LIG1        0.0344
     31 C          -7.6955    7.2506   -0.3793 C.ar    1  LIG1       -0.0323
     32 C          -7.5477    4.8596   -0.1157 C.ar    1  LIG1        0.0216
     33 C          -9.0806    7.2175   -0.2447 C.ar    1  LIG1       -0.0099
     34 H          -7.2088    8.2093   -0.5385 H       1  LIG1        0.0642
     35 C          -8.9374    4.8455    0.0029 C.ar    1  LIG1       -0.0473
     36 C          -9.7310    5.9865   -0.0547 C.ar    1  LIG1       -0.0419
     37 H          -9.4289    3.8876    0.1397 H       1  LIG1        0.0627
     38 N          -5.5277    6.1895   -0.4462 N.pl3   1  LIG1       -0.3574
     39 H          -5.1079    5.3682   -0.8636 H       1  LIG1        0.1423
     40 H          -5.1990    7.0565   -0.8442 H       1  LIG1        0.1423
     41 C         -11.2253    5.8908    0.1126 C.3     1  LIG1       -0.0391
     42 H         -11.5217    4.8678    0.3556 H       1  LIG1        0.0278
     43 H         -11.7516    6.1930   -0.7976 H       1  LIG1        0.0278
     44 H         -11.5785    6.5428    0.9171 H       1  LIG1        0.0278
     45 C         -10.6665    8.8324   -1.3945 C.ar    1  LIG1        0.1239
     46 C          -9.8317    8.5031   -0.3011 C.ar    1  LIG1        0.0222
     47 C          -9.7013    9.4549    0.6958 C.ar    1  LIG1       -0.0464
     48 C         -10.3878   10.6711    0.6365 C.ar    1  LIG1       -0.0316
     49 C         -11.1844   10.8651   -0.4814 C.ar    1  LIG1        0.0326
     50 N         -11.3210    9.9877   -1.4765 N.ar    1  LIG1       -0.2398
     51 H          -9.0551    9.2365    1.5425 H       1  LIG1        0.0628
     52 H         -11.7455   11.7922   -0.5913 H       1  LIG1        0.0833
     53 N         -10.8614    7.9447   -2.4342 N.pl3   1  LIG1       -0.3427
     54 H         -11.2578    8.3709   -3.2583 H       1  LIG1        0.1437
     55 H         -10.1265    7.2737   -2.5998 H       1  LIG1        0.1437
     56 C         -10.2688   11.7078    1.7193 C.3     1  LIG1       -0.0383
     57 H         -10.8675   12.5909    1.4833 H       1  LIG1        0.0278
     58 H          -9.2329   12.0360    1.8520 H       1  LIG1        0.0278
     59 H         -10.6125   11.3238    2.6850 H       1  LIG1        0.0278
@<TRIPOS>BOND
     1    54    53    1
     2    25    23    1
     3    55    53    1
     4    53    45    1
     5    24    23    1
     6    23    16    1
     7    50    45   ar
     8    50    49   ar
     9    45    46   ar
    10    16    21   ar
    11    16    17   ar
    12    21    20   ar
    13    39    38    1
    14    40    38    1
    15    43    41    1
    16    11     9    1
    17    10     9    1
    18    14    12    1
    19    52    49    1
    20    34    31    1
    21    49    48   ar
    22    38    30    1
    23     9     1    1
    24    31    30   ar
    25    31    33   ar
    26    30    32   ar
    27     1     6   ar
    28     1     2   ar
    29    46    33    1
    30    46    47   ar
    31     6     5   ar
    32    33    36   ar
    33     8     2    1
    34     2     3   ar
    35     5    17    1
    36     5     4   ar
    37    32    20    1
    38    32    35   ar
    39    17    18   ar
    40     3     4   ar
    41     3     7    1
    42    36    35   ar
    43    36    41    1
    44    20    19   ar
    45     4    12    1
    46    35    37    1
    47    41    42    1
    48    41    44    1
    49    12    15    1
    50    12    13    1
    51    48    47   ar
    52    48    56    1
    53    47    51    1
    54    18    19   ar
    55    18    22    1
    56    19    26    1
    57    57    56    1
    58    56    58    1
    59    56    59    1
    60    28    26    1
    61    26    29    1
    62    26    27    1
