@<TRIPOS>MOLECULE
mol_data/opt/cam/geoms/mol2/6hi6hi6hi.out
 44 46 0 0 0
SMALL
GASTEIGER

@<TRIPOS>ATOM
      1 C          -4.2647   -1.9475   -1.2025 C.ar    1  LIG1        0.1168
      2 C          -3.0512   -2.1757   -0.5395 C.ar    1  LIG1       -0.0218
      3 C          -2.6208   -1.2172    0.3503 C.ar    1  LIG1       -0.0536
      4 C          -3.3451   -0.0410    0.5736 C.ar    1  LIG1       -0.0242
      5 C          -4.5239    0.1123   -0.1683 C.ar    1  LIG1        0.0793
      6 N          -4.9680   -0.8358   -1.0146 N.ar    1  LIG1       -0.2321
      7 H          -1.7011   -1.3803    0.9056 H       1  LIG1        0.0622
      8 H          -2.4913   -3.0900   -0.7028 H       1  LIG1        0.0652
      9 N          -4.8132   -2.8885   -2.0497 N.pl3   1  LIG1       -0.3431
     10 H          -5.5197   -2.5229   -2.6704 H       1  LIG1        0.1437
     11 H          -4.1783   -3.5451   -2.4757 H       1  LIG1        0.1437
     12 C          -2.8519    0.9408    1.6060 C.3     1  LIG1       -0.0377
     13 H          -3.6746    1.4711    2.0880 H       1  LIG1        0.0278
     14 H          -2.1816    1.6951    1.1802 H       1  LIG1        0.0278
     15 H          -2.2887    0.4155    2.3816 H       1  LIG1        0.0278
     16 C          -6.7918    1.2536    0.0059 C.ar    1  LIG1        0.1261
     17 C          -5.3785    1.3265   -0.0814 C.ar    1  LIG1        0.0405
     18 C          -4.8377    2.6003   -0.0941 C.ar    1  LIG1       -0.0443
     19 C          -5.6120    3.7594   -0.0127 C.ar    1  LIG1       -0.0236
     20 C          -6.9962    3.5720    0.0806 C.ar    1  LIG1        0.0793
     21 N          -7.5458    2.3463    0.1013 N.ar    1  LIG1       -0.2314
     22 H          -3.7606    2.7076   -0.1750 H       1  LIG1        0.0628
     23 N          -7.4513    0.0518    0.0482 N.pl3   1  LIG1       -0.3426
     24 H          -8.4444    0.1342   -0.1084 H       1  LIG1        0.1437
     25 H          -6.9796   -0.7014   -0.4350 H       1  LIG1        0.1437
     26 C          -4.9252    5.1013    0.0160 C.3     1  LIG1       -0.0377
     27 H          -5.4769    5.8258    0.6171 H       1  LIG1        0.0278
     28 H          -4.8045    5.5323   -0.9837 H       1  LIG1        0.0278
     29 H          -3.9238    5.0012    0.4428 H       1  LIG1        0.0278
     30 C          -9.0489    4.7019    1.0715 C.ar    1  LIG1        0.1254
     31 C          -7.9615    4.7018    0.1558 C.ar    1  LIG1        0.0404
     32 C          -7.8598    5.7936   -0.6919 C.ar    1  LIG1       -0.0449
     33 C          -8.7553    6.8626   -0.6263 C.ar    1  LIG1       -0.0316
     34 C          -9.7469    6.7606    0.3373 C.ar    1  LIG1        0.0326
     35 N          -9.9047    5.7218    1.1553 N.ar    1  LIG1       -0.2398
     36 H          -7.0694    5.8095   -1.4363 H       1  LIG1        0.0628
     37 H         -10.4740    7.5641    0.4514 H       1  LIG1        0.0833
     38 N          -9.2459    3.6685    1.9514 N.pl3   1  LIG1       -0.3426
     39 H         -10.1440    3.7052    2.4093 H       1  LIG1        0.1437
     40 H          -8.9373    2.7647    1.6189 H       1  LIG1        0.1437
     41 C          -8.6539    8.0482   -1.5459 C.3     1  LIG1       -0.0383
     42 H          -9.4375    8.7783   -1.3291 H       1  LIG1        0.0278
     43 H          -8.7573    7.7562   -2.5961 H       1  LIG1        0.0278
     44 H          -7.6907    8.5588   -1.4453 H       1  LIG1        0.0278
@<TRIPOS>BOND
     1    10     9    1
     2    43    41    1
     3    11     9    1
     4     9     1    1
     5    41    44    1
     6    41    42    1
     7    41    33    1
     8    36    32    1
     9     1     6   ar
    10     1     2   ar
    11     6     5   ar
    12    28    26    1
    13     8     2    1
    14    32    33   ar
    15    32    31   ar
    16    33    34   ar
    17     2     3   ar
    18    25    23    1
    19    22    18    1
    20     5    17    1
    21     5     4   ar
    22    24    23    1
    23    18    17   ar
    24    18    19   ar
    25    17    16   ar
    26    19    26    1
    27    19    20   ar
    28    16    23    1
    29    16    21   ar
    30    26    29    1
    31    26    27    1
    32    20    21   ar
    33    20    31    1
    34    31    30   ar
    35    34    37    1
    36    34    35   ar
    37     3     4   ar
    38     3     7    1
    39     4    12    1
    40    30    35   ar
    41    30    38    1
    42    14    12    1
    43    12    13    1
    44    12    15    1
    45    40    38    1
    46    38    39    1
