@<TRIPOS>MOLECULE
mol_data/opt/cam/geoms/mol2/6hi6hi-6hi.out
 44 46 0 0 0
SMALL
GASTEIGER

@<TRIPOS>ATOM
      1 C          -4.4404   -2.1244   -0.6164 C.ar    1  LIG1        0.1168
      2 C          -3.0989   -2.2198   -0.2211 C.ar    1  LIG1       -0.0218
      3 C          -2.4789   -1.0767    0.2373 C.ar    1  LIG1       -0.0536
      4 C          -3.1584    0.1435    0.2983 C.ar    1  LIG1       -0.0242
      5 C          -4.4848    0.1343   -0.1521 C.ar    1  LIG1        0.0793
      6 N          -5.1056   -0.9719   -0.5883 N.ar    1  LIG1       -0.2321
      7 H          -1.4470   -1.1248    0.5744 H       1  LIG1        0.0622
      8 H          -2.5769   -3.1700   -0.2560 H       1  LIG1        0.0652
      9 N          -5.1552   -3.2344   -1.0190 N.pl3   1  LIG1       -0.3431
     10 H          -6.0189   -3.0136   -1.4915 H       1  LIG1        0.1437
     11 H          -4.6346   -3.9997   -1.4173 H       1  LIG1        0.1437
     12 C          -2.4977    1.3697    0.8699 C.3     1  LIG1       -0.0377
     13 H          -3.1127    1.8194    1.6547 H       1  LIG1        0.0278
     14 H          -2.3402    2.1391    0.1093 H       1  LIG1        0.0278
     15 H          -1.5304    1.1129    1.3078 H       1  LIG1        0.0278
     16 C          -5.0495    2.5029   -0.9105 C.ar    1  LIG1        0.1261
     17 C          -5.3329    1.3598   -0.1388 C.ar    1  LIG1        0.0405
     18 C          -6.4951    1.3932    0.6152 C.ar    1  LIG1       -0.0443
     19 C          -7.3245    2.5130    0.6514 C.ar    1  LIG1       -0.0236
     20 C          -6.9389    3.5935   -0.1532 C.ar    1  LIG1        0.0793
     21 N          -5.8339    3.5780   -0.9090 N.ar    1  LIG1       -0.2314
     22 H          -6.7495    0.5191    1.2076 H       1  LIG1        0.0628
     23 N          -3.9253    2.5822   -1.7149 N.pl3   1  LIG1       -0.3426
     24 H          -3.5713    1.7083   -2.0747 H       1  LIG1        0.1437
     25 H          -3.9841    3.3266   -2.3945 H       1  LIG1        0.1437
     26 C          -8.5331    2.5524    1.5479 C.3     1  LIG1       -0.0377
     27 H          -8.5555    1.6743    2.1971 H       1  LIG1        0.0278
     28 H          -9.4622    2.5824    0.9725 H       1  LIG1        0.0278
     29 H          -8.5239    3.4420    2.1843 H       1  LIG1        0.0278
     30 C          -9.0376    4.9335   -0.6996 C.ar    1  LIG1        0.1254
     31 C          -7.7179    4.8637   -0.2034 C.ar    1  LIG1        0.0404
     32 C          -7.1268    6.0547    0.1850 C.ar    1  LIG1       -0.0449
     33 C          -7.8283    7.2603    0.1445 C.ar    1  LIG1       -0.0316
     34 C          -9.1311    7.1895   -0.3284 C.ar    1  LIG1        0.0326
     35 N          -9.7225    6.0738   -0.7534 N.ar    1  LIG1       -0.2398
     36 H          -6.0965    6.0322    0.5293 H       1  LIG1        0.0628
     37 H          -9.7366    8.0933   -0.3826 H       1  LIG1        0.0833
     38 N          -9.7043    3.8070   -1.1495 N.pl3   1  LIG1       -0.3426
     39 H         -10.5198    4.0315   -1.7008 H       1  LIG1        0.1437
     40 H          -9.1303    3.0668   -1.5251 H       1  LIG1        0.1437
     41 C          -7.2106    8.5595    0.5824 C.3     1  LIG1       -0.0383
     42 H          -7.9140    9.3872    0.4642 H       1  LIG1        0.0278
     43 H          -6.3172    8.7976   -0.0034 H       1  LIG1        0.0278
     44 H          -6.9095    8.5288    1.6343 H       1  LIG1        0.0278
@<TRIPOS>BOND
     1    25    23    1
     2    24    23    1
     3    23    16    1
     4    39    38    1
     5    40    38    1
     6    10     9    1
     7    11     9    1
     8    38    30    1
     9     9     1    1
    10    16    21   ar
    11    16    17   ar
    12    21    20   ar
    13    35    30   ar
    14    35    34   ar
    15    30    31   ar
    16     1     6   ar
    17     1     2   ar
    18     6     5   ar
    19    37    34    1
    20    34    33   ar
    21     8     2    1
    22     2     3   ar
    23    31    20    1
    24    31    32   ar
    25    20    19   ar
    26     5    17    1
    27     5     4   ar
    28    17    18   ar
    29    43    41    1
    30    14    12    1
    31    33    32   ar
    32    33    41    1
    33    32    36    1
    34     3     4   ar
    35     3     7    1
    36     4    12    1
    37    42    41    1
    38    41    44    1
    39    18    19   ar
    40    18    22    1
    41    19    26    1
    42    12    15    1
    43    12    13    1
    44    28    26    1
    45    26    29    1
    46    26    27    1
