@<TRIPOS>MOLECULE
mol_data/opt/cam/geoms/mol2/6hi6hi-6hi-6hi.out
 58 61 0 0 0
SMALL
GASTEIGER

@<TRIPOS>ATOM
      1 C          -4.5668   -2.2683   -0.4060 C.ar    1  LIG1        0.1168
      2 C          -3.1769   -2.3869   -0.2632 C.ar    1  LIG1       -0.0218
      3 C          -2.4500   -1.2358   -0.0465 C.ar    1  LIG1       -0.0536
      4 C          -3.0722    0.0149    0.0186 C.ar    1  LIG1       -0.0242
      5 C          -4.4598    0.0233   -0.1712 C.ar    1  LIG1        0.0793
      6 N          -5.1828   -1.0891   -0.3687 N.ar    1  LIG1       -0.2321
      7 H          -1.3745   -1.2995    0.0944 H       1  LIG1        0.0622
      8 H          -2.6969   -3.3590   -0.2999 H       1  LIG1        0.0652
      9 N          -5.3743   -3.3769   -0.5533 N.pl3   1  LIG1       -0.3431
     10 H          -6.3073   -3.1641   -0.8728 H       1  LIG1        0.1437
     11 H          -4.9606   -4.2011   -0.9589 H       1  LIG1        0.1437
     12 C          -2.2803    1.2569    0.3310 C.3     1  LIG1       -0.0377
     13 H          -2.7425    1.8263    1.1422 H       1  LIG1        0.0278
     14 H          -2.2142    1.9282   -0.5296 H       1  LIG1        0.0278
     15 H          -1.2662    0.9945    0.6411 H       1  LIG1        0.0278
     16 C          -5.0936    2.3368   -1.0400 C.ar    1  LIG1        0.1261
     17 C          -5.2568    1.2816   -0.1226 C.ar    1  LIG1        0.0405
     18 C          -6.2486    1.4445    0.8283 C.ar    1  LIG1       -0.0443
     19 C          -7.0299    2.5977    0.9113 C.ar    1  LIG1       -0.0236
     20 C          -6.7817    3.5871   -0.0501 C.ar    1  LIG1        0.0793
     21 N          -5.8288    3.4424   -0.9866 N.ar    1  LIG1       -0.2314
     22 H          -6.4069    0.6431    1.5443 H       1  LIG1        0.0628
     23 N          -4.1439    2.2914   -2.0457 N.pl3   1  LIG1       -0.3426
     24 H          -3.8707    1.3701   -2.3547 H       1  LIG1        0.1437
     25 H          -4.3281    2.9449   -2.7929 H       1  LIG1        0.1437
     26 C          -8.0348    2.7256    2.0278 C.3     1  LIG1       -0.0377
     27 H          -7.7089    2.1424    2.8925 H       1  LIG1        0.0278
     28 H          -9.0237    2.3503    1.7438 H       1  LIG1        0.0278
     29 H          -8.1587    3.7621    2.3455 H       1  LIG1        0.0278
     30 C          -6.9112    6.1118   -0.3242 C.ar    1  LIG1        0.1261
     31 C          -7.5465    4.8610   -0.1187 C.ar    1  LIG1        0.0405
     32 C          -8.9279    4.8864   -0.0066 C.ar    1  LIG1       -0.0443
     33 C          -9.6666    6.0687   -0.0636 C.ar    1  LIG1       -0.0236
     34 C          -8.9305    7.2427   -0.2584 C.ar    1  LIG1        0.0793
     35 N          -7.5974    7.2533   -0.3799 N.ar    1  LIG1       -0.2314
     36 H          -9.4602    3.9506    0.1301 H       1  LIG1        0.0628
     37 N          -5.5475    6.2200   -0.4326 N.pl3   1  LIG1       -0.3426
     38 H          -5.0898    5.4146   -0.8376 H       1  LIG1        0.1437
     39 H          -5.2475    7.1261   -0.7592 H       1  LIG1        0.1437
     40 C         -11.1599    6.0571    0.1281 C.3     1  LIG1       -0.0377
     41 H         -11.4984    5.0638    0.4325 H       1  LIG1        0.0278
     42 H         -11.6896    6.3384   -0.7861 H       1  LIG1        0.0278
     43 H         -11.4644    6.7672    0.9023 H       1  LIG1        0.0278
     44 C         -10.4891    8.9596   -1.3191 C.ar    1  LIG1        0.1254
     45 C          -9.5762    8.5855   -0.3097 C.ar    1  LIG1        0.0404
     46 C          -9.2353    9.5528    0.6214 C.ar    1  LIG1       -0.0449
     47 C          -9.8188   10.8201    0.5982 C.ar    1  LIG1       -0.0316
     48 C         -10.7311   11.0505   -0.4219 C.ar    1  LIG1        0.0326
     49 N         -11.0526   10.1649   -1.3640 N.ar    1  LIG1       -0.2398
     50 H          -8.4994    9.3021    1.3804 H       1  LIG1        0.0628
     51 H         -11.2266   12.0176   -0.4961 H       1  LIG1        0.0833
     52 N         -10.8618    8.0809   -2.3224 N.pl3   1  LIG1       -0.3426
     53 H         -11.3020    8.5474   -3.1022 H       1  LIG1        0.1437
     54 H         -10.1790    7.3835   -2.5794 H       1  LIG1        0.1437
     55 C          -9.4788   11.8751    1.6144 C.3     1  LIG1       -0.0383
     56 H         -10.0150   12.8047    1.4086 H       1  LIG1        0.0278
     57 H          -8.4082   12.1026    1.6145 H       1  LIG1        0.0278
     58 H          -9.7426   11.5586    2.6285 H       1  LIG1        0.0278
@<TRIPOS>BOND
     1    53    52    1
     2    25    23    1
     3    54    52    1
     4    24    23    1
     5    52    44    1
     6    23    16    1
     7    49    44   ar
     8    49    48   ar
     9    44    45   ar
    10    16    21   ar
    11    16    17   ar
    12    21    20   ar
    13    11     9    1
    14    10     9    1
    15    38    37    1
    16    42    40    1
    17    39    37    1
    18     9     1    1
    19    14    12    1
    20    51    48    1
    21    37    30    1
    22    48    47   ar
    23     1     6   ar
    24     1     2   ar
    25    35    30   ar
    26    35    34   ar
    27     6     5   ar
    28    30    31   ar
    29    45    34    1
    30    45    46   ar
    31     8     2    1
    32     2     3   ar
    33    34    33   ar
    34     5    17    1
    35     5     4   ar
    36    17    18   ar
    37    31    20    1
    38    31    32   ar
    39    33    32   ar
    40    33    40    1
    41    20    19   ar
    42     3     4   ar
    43     3     7    1
    44    32    36    1
    45     4    12    1
    46    40    41    1
    47    40    43    1
    48    12    15    1
    49    12    13    1
    50    47    46   ar
    51    47    55    1
    52    46    50    1
    53    18    19   ar
    54    18    22    1
    55    19    26    1
    56    56    55    1
    57    55    57    1
    58    55    58    1
    59    28    26    1
    60    26    29    1
    61    26    27    1
