@<TRIPOS>MOLECULE
mol_data/opt/cam/geoms/mol2/6hi6hi.out
 30 31 0 0 0
SMALL
GASTEIGER

@<TRIPOS>ATOM
      1 C          -4.4911   -2.0392   -0.6736 C.ar    1  LIG1        0.1168
      2 C          -3.1214   -2.1112   -0.3864 C.ar    1  LIG1       -0.0218
      3 C          -2.5138   -0.9795    0.1100 C.ar    1  LIG1       -0.0536
      4 C          -3.2214    0.2121    0.3005 C.ar    1  LIG1       -0.0242
      5 C          -4.5775    0.1933   -0.0527 C.ar    1  LIG1        0.0793
      6 N          -5.1847   -0.9179   -0.5084 N.ar    1  LIG1       -0.2321
      7 H          -1.4601   -1.0123    0.3737 H       1  LIG1        0.0622
      8 H          -2.5719   -3.0361   -0.5237 H       1  LIG1        0.0652
      9 N          -5.1995   -3.1451   -1.0994 N.pl3   1  LIG1       -0.3431
     10 H          -6.0850   -2.9240   -1.5299 H       1  LIG1        0.1437
     11 H          -4.6764   -3.8703   -1.5644 H       1  LIG1        0.1437
     12 C          -2.5146    1.4007    0.9009 C.3     1  LIG1       -0.0377
     13 H          -3.1917    2.0182    1.4928 H       1  LIG1        0.0278
     14 H          -2.0641    2.0476    0.1406 H       1  LIG1        0.0278
     15 H          -1.7053    1.0642    1.5540 H       1  LIG1        0.0278
     16 C          -6.7575    1.3320    0.6015 C.ar    1  LIG1        0.1254
     17 C          -5.4500    1.3948    0.0480 C.ar    1  LIG1        0.0404
     18 C          -5.0315    2.6278   -0.4268 C.ar    1  LIG1       -0.0449
     19 C          -5.8360    3.7648   -0.3322 C.ar    1  LIG1       -0.0316
     20 C          -7.0735    3.5796    0.2652 C.ar    1  LIG1        0.0326
     21 N          -7.5327    2.4120    0.7110 N.ar    1  LIG1       -0.2398
     22 H          -4.0555    2.7064   -0.8966 H       1  LIG1        0.0628
     23 H          -7.7490    4.4265    0.3820 H       1  LIG1        0.0833
     24 N          -7.2722    0.1615    1.0976 N.pl3   1  LIG1       -0.3426
     25 H          -8.2606    0.2147    1.2917 H       1  LIG1        0.1437
     26 H          -6.9392   -0.6773    0.6423 H       1  LIG1        0.1437
     27 C          -5.3908    5.1048   -0.8496 C.3     1  LIG1       -0.0383
     28 H          -6.1509    5.8673   -0.6631 H       1  LIG1        0.0278
     29 H          -5.2058    5.0812   -1.9285 H       1  LIG1        0.0278
     30 H          -4.4650    5.4377   -0.3695 H       1  LIG1        0.0278
@<TRIPOS>BOND
     1    29    27    1
     2    11     9    1
     3    10     9    1
     4     9     1    1
     5    22    18    1
     6    27    28    1
     7    27    30    1
     8    27    19    1
     9     1     6   ar
    10     1     2   ar
    11     8     2    1
    12     6     5   ar
    13    18    19   ar
    14    18    17   ar
    15     2     3   ar
    16    19    20   ar
    17     5    17    1
    18     5     4   ar
    19    17    16   ar
    20     3     4   ar
    21     3     7    1
    22    14    12    1
    23    20    23    1
    24    20    21   ar
    25     4    12    1
    26    16    21   ar
    27    16    24    1
    28    26    24    1
    29    12    13    1
    30    12    15    1
    31    24    25    1
