@<TRIPOS>MOLECULE
mol_data/opt/cam/geoms/mol2/6hi6hi6hi6hi-.out
 58 61 0 0 0
SMALL
GASTEIGER

@<TRIPOS>ATOM
      1 C          -3.6034   -1.6734   -1.4776 C.ar    1  LIG1        0.1168
      2 C          -2.7475   -2.1040   -0.4547 C.ar    1  LIG1       -0.0218
      3 C          -2.7757   -1.4108    0.7345 C.ar    1  LIG1       -0.0536
      4 C          -3.6037   -0.2981    0.9191 C.ar    1  LIG1       -0.0242
      5 C          -4.3912    0.0780   -0.1771 C.ar    1  LIG1        0.0793
      6 N          -4.3942   -0.6155   -1.3311 N.ar    1  LIG1       -0.2321
      7 H          -2.1489   -1.7408    1.5585 H       1  LIG1        0.0622
      8 H          -2.1106   -2.9712   -0.5905 H       1  LIG1        0.0652
      9 N          -3.7009   -2.3555   -2.6731 N.pl3   1  LIG1       -0.3431
     10 H          -4.1192   -1.8214   -3.4200 H       1  LIG1        0.1437
     11 H          -2.9068   -2.9119   -2.9479 H       1  LIG1        0.1437
     12 C          -3.6331    0.3811    2.2647 C.3     1  LIG1       -0.0377
     13 H          -4.6125    0.8097    2.4823 H       1  LIG1        0.0278
     14 H          -2.8980    1.1892    2.3422 H       1  LIG1        0.0278
     15 H          -3.3979   -0.3397    3.0520 H       1  LIG1        0.0278
     16 C          -6.6067    1.2286   -0.6704 C.ar    1  LIG1        0.1261
     17 C          -5.2857    1.2662   -0.1571 C.ar    1  LIG1        0.0405
     18 C          -4.8695    2.4826    0.3551 C.ar    1  LIG1       -0.0443
     19 C          -5.6850    3.6157    0.3904 C.ar    1  LIG1       -0.0236
     20 C          -6.9741    3.4646   -0.1338 C.ar    1  LIG1        0.0793
     21 N          -7.4047    2.2931   -0.6315 N.ar    1  LIG1       -0.2314
     22 H          -3.8604    2.5648    0.7462 H       1  LIG1        0.0628
     23 N          -7.1476    0.0788   -1.1866 N.pl3   1  LIG1       -0.3426
     24 H          -7.9977    0.2341   -1.7071 H       1  LIG1        0.1437
     25 H          -6.4737   -0.5515   -1.6013 H       1  LIG1        0.1437
     26 C          -5.1572    4.8812    1.0173 C.3     1  LIG1       -0.0377
     27 H          -5.9496    5.4554    1.4998 H       1  LIG1        0.0278
     28 H          -4.6741    5.5410    0.2886 H       1  LIG1        0.0278
     29 H          -4.4067    4.6396    1.7745 H       1  LIG1        0.0278
     30 C          -9.3218    4.3922    0.1712 C.ar    1  LIG1        0.1261
     31 C          -7.9621    4.5750   -0.1886 C.ar    1  LIG1        0.0405
     32 C          -7.6069    5.8444   -0.6170 C.ar    1  LIG1       -0.0443
     33 C          -8.5151    6.9022   -0.6728 C.ar    1  LIG1       -0.0236
     34 C          -9.8257    6.6061   -0.2822 C.ar    1  LIG1        0.0793
     35 N         -10.2052    5.3898    0.1279 N.ar    1  LIG1       -0.2314
     36 H          -6.5822    6.0266   -0.9244 H       1  LIG1        0.0628
     37 N          -9.7911    3.1868    0.6271 N.pl3   1  LIG1       -0.3426
     38 H         -10.7981    3.1428    0.6676 H       1  LIG1        0.1437
     39 H          -9.3117    2.3782    0.2541 H       1  LIG1        0.1437
     40 C          -8.0714    8.2812   -1.0833 C.3     1  LIG1       -0.0377
     41 H          -8.3668    9.0287   -0.3414 H       1  LIG1        0.0278
     42 H          -8.5167    8.5855   -2.0344 H       1  LIG1        0.0278
     43 H          -6.9840    8.3191   -1.1826 H       1  LIG1        0.0278
     44 C         -11.3655    8.2886   -1.4225 C.ar    1  LIG1        0.1254
     45 C         -10.8994    7.6403   -0.2586 C.ar    1  LIG1        0.0404
     46 C         -11.5326    7.9529    0.9330 C.ar    1  LIG1       -0.0449
     47 C         -12.5429    8.9139    0.9876 C.ar    1  LIG1       -0.0316
     48 C         -12.8830    9.5075   -0.2197 C.ar    1  LIG1        0.0326
     49 N         -12.3322    9.2035   -1.3942 N.ar    1  LIG1       -0.2398
     50 H         -11.2219    7.4325    1.8348 H       1  LIG1        0.0628
     51 H         -13.6613   10.2691   -0.2477 H       1  LIG1        0.0833
     52 N         -10.8296    8.0144   -2.6696 N.pl3   1  LIG1       -0.3426
     53 H         -10.4568    7.0853   -2.7988 H       1  LIG1        0.1437
     54 H         -11.4158    8.3418   -3.4237 H       1  LIG1        0.1437
     55 C         -13.2257    9.2831    2.2757 C.3     1  LIG1       -0.0383
     56 H         -12.5200    9.6990    3.0018 H       1  LIG1        0.0278
     57 H         -13.6972    8.4135    2.7440 H       1  LIG1        0.0278
     58 H         -14.0042   10.0309    2.1062 H       1  LIG1        0.0278
@<TRIPOS>BOND
     1    54    52    1
     2    10     9    1
     3    11     9    1
     4    53    52    1
     5     9     1    1
     6    52    44    1
     7    42    40    1
     8    24    23    1
     9    25    23    1
    10     1     6   ar
    11     1     2   ar
    12    44    49   ar
    13    44    45   ar
    14    49    48   ar
    15     6     5   ar
    16    23    16    1
    17    43    40    1
    18    40    33    1
    19    40    41    1
    20    36    32    1
    21    33    32   ar
    22    33    34   ar
    23    16    21   ar
    24    16    17   ar
    25    21    20   ar
    26    32    31   ar
    27     8     2    1
    28     2     3   ar
    29    34    45    1
    30    34    35   ar
    31    45    46   ar
    32    51    48    1
    33    48    47   ar
    34    31    20    1
    35    31    30   ar
    36     5    17    1
    37     5     4   ar
    38    17    18   ar
    39    20    19   ar
    40    35    30   ar
    41    30    37    1
    42    39    37    1
    43    28    26    1
    44    18    19   ar
    45    18    22    1
    46    19    26    1
    47    37    38    1
    48     3     4   ar
    49     3     7    1
    50     4    12    1
    51    46    47   ar
    52    46    50    1
    53    47    55    1
    54    26    27    1
    55    26    29    1
    56    58    55    1
    57    12    14    1
    58    12    13    1
    59    12    15    1
    60    55    57    1
    61    55    56    1
