@<TRIPOS>MOLECULE
mol_data/opt/cam/geoms/mol2/6hi6ae-12eh12la-.out
 49 52 0 0 0
SMALL
GASTEIGER

@<TRIPOS>ATOM
      1 C          -3.9335   -1.7957   -1.1016 C.ar    1  LIG1        0.1168
      2 C          -2.9308   -2.0892   -0.1651 C.ar    1  LIG1       -0.0218
      3 C          -2.7149   -1.1824    0.8481 C.ar    1  LIG1       -0.0536
      4 C          -3.4530    0.0029    0.9418 C.ar    1  LIG1       -0.0243
      5 C          -4.4087    0.2104   -0.0601 C.ar    1  LIG1        0.0775
      6 N          -4.6423   -0.6737   -1.0419 N.ar    1  LIG1       -0.2321
      7 H          -1.9632   -1.3947    1.6035 H       1  LIG1        0.0622
      8 H          -2.3643   -3.0120   -0.2282 H       1  LIG1        0.0652
      9 N          -4.2624   -2.6785   -2.1069 N.pl3   1  LIG1       -0.3431
     10 H          -4.8262   -2.2766   -2.8407 H       1  LIG1        0.1437
     11 H          -3.5491   -3.3197   -2.4149 H       1  LIG1        0.1437
     12 C          -3.2115    0.9351    2.1016 C.3     1  LIG1       -0.0377
     13 H          -4.1274    1.4321    2.4269 H       1  LIG1        0.0278
     14 H          -2.4818    1.7171    1.8648 H       1  LIG1        0.0278
     15 H          -2.8144    0.3777    2.9535 H       1  LIG1        0.0278
     16 C          -6.6279    1.2652   -0.4894 C.ar    1  LIG1        0.0376
     17 C          -5.2831    1.4120   -0.1235 C.ar    1  LIG1        0.0200
     18 C          -4.8435    2.7025    0.1258 C.ar    1  LIG1       -0.0335
     19 C          -5.7231    3.7855    0.0152 C.ar    1  LIG1        0.0543
     20 C          -7.0452    3.5167   -0.3795 C.ar    1  LIG1        0.1226
     21 N          -7.4783    2.2715   -0.6092 N.ar    1  LIG1       -0.2500
     22 H          -3.8156    2.8994    0.4030 H       1  LIG1        0.0637
     23 H          -7.0119    0.2716   -0.6993 H       1  LIG1        0.0836
     24 C          -5.2596    5.0940    0.3562 C.1     1  LIG1       -0.0674
     25 C          -4.8280    6.1701    0.6781 C.1     1  LIG1       -0.1138
     26 H          -4.4687    7.1370    0.9451 H       1  LIG1        0.1232
     27 C          -8.0514    4.5727   -0.5539 C.ar    1  LIG1        0.1723
     28 C          -8.0508    5.7737   -1.2226 C.ar    1  LIG1        0.0933
     29 C          -9.3818    6.2978   -1.0905 C.ar    1  LIG1        0.0905
     30 C         -10.0859    5.3951   -0.3491 C.ar    1  LIG1        0.1960
     31 O          -9.2633    4.3350   -0.0304 O.2     1  LIG1       -0.4468
     32 C          -7.0334    6.3767   -2.0053 C.1     1  LIG1       -0.0639
     33 C          -6.2271    6.9340   -2.7058 C.1     1  LIG1       -0.1137
     34 H          -5.4901    7.4050   -3.3140 H       1  LIG1        0.1232
     35 N          -9.8040    7.5246   -1.5817 N.pl3   1  LIG1       -0.3540
     36 H          -9.2454    7.8532   -2.3586 H       1  LIG1        0.1425
     37 H         -10.7948    7.5648   -1.7810 H       1  LIG1        0.1425
     38 C         -11.4594    5.3638    0.0978 C.ar    1  LIG1        0.2128
     39 C         -12.2316    6.1232    0.9422 C.ar    1  LIG1        0.1687
     40 C         -13.5534    5.5791    0.9134 C.ar    1  LIG1        0.0187
     41 C         -13.4943    4.5225    0.0706 C.ar    1  LIG1        0.0964
     42 O         -12.2596    4.3700   -0.4369 O.2     1  LIG1       -0.4560
     43 H         -14.2315    3.8029   -0.2509 H       1  LIG1        0.1031
     44 O         -11.9424    7.1839    1.7183 O.3     1  LIG1       -0.4912
     45 C         -10.5796    7.5613    1.8507 C.3     1  LIG1        0.0790
     46 H         -10.5606    8.3452    2.6082 H       1  LIG1        0.0660
     47 H          -9.9692    6.7162    2.1849 H       1  LIG1        0.0660
     48 H         -10.1808    7.9504    0.9094 H       1  LIG1        0.0660
     49 H         -14.4033    5.9407    1.4708 H       1  LIG1        0.0686
@<TRIPOS>BOND
     1    34    33    1
     2    10     9    1
     3    33    32    3
     4    11     9    1
     5    36    35    1
     6     9     1    1
     7    32    28    1
     8    37    35    1
     9    35    29    1
    10    28    29   ar
    11    28    27   ar
    12     1     6   ar
    13     1     2   ar
    14    29    30   ar
    15     6     5   ar
    16    23    16    1
    17    21    16   ar
    18    21    20   ar
    19    27    20    1
    20    27    31   ar
    21    16    17   ar
    22    42    41   ar
    23    42    38   ar
    24    20    19   ar
    25    30    31   ar
    26    30    38    1
    27    43    41    1
    28     8     2    1
    29     2     3   ar
    30    17     5    1
    31    17    18   ar
    32     5     4   ar
    33    19    18   ar
    34    19    24    1
    35    41    40   ar
    36    38    39   ar
    37    18    22    1
    38    24    25    3
    39    25    26    1
    40     3     4   ar
    41     3     7    1
    42    48    45    1
    43    40    39   ar
    44    40    49    1
    45     4    12    1
    46    39    44    1
    47    44    45    1
    48    45    47    1
    49    45    46    1
    50    14    12    1
    51    12    13    1
    52    12    15    1
