@<TRIPOS>MOLECULE
mol_data/opt/cam/geoms/mol2/6hi6ai-12fa6fa.out
 46 49 0 0 0
SMALL
GASTEIGER

@<TRIPOS>ATOM
      1 C          -4.2656   -1.9483   -0.9592 C.ar    1  LIG1        0.1168
      2 C          -3.1190   -2.1904   -0.1885 C.ar    1  LIG1       -0.0218
      3 C          -2.6872   -1.1859    0.6489 C.ar    1  LIG1       -0.0536
      4 C          -3.3514    0.0430    0.7238 C.ar    1  LIG1       -0.0243
      5 C          -4.4675    0.1913   -0.1099 C.ar    1  LIG1        0.0774
      6 N          -4.9088   -0.7866   -0.9161 N.ar    1  LIG1       -0.2321
      7 H          -1.8181   -1.3530    1.2795 H       1  LIG1        0.0622
      8 H          -2.6085   -3.1462   -0.2357 H       1  LIG1        0.0652
      9 N          -4.8084   -2.9214   -1.7706 N.pl3   1  LIG1       -0.3431
     10 H          -5.4828   -2.5730   -2.4351 H       1  LIG1        0.1437
     11 H          -4.1879   -3.6333   -2.1214 H       1  LIG1        0.1437
     12 C          -2.8689    1.0856    1.6998 C.3     1  LIG1       -0.0377
     13 H          -3.6923    1.6703    2.1142 H       1  LIG1        0.0278
     14 H          -2.1637    1.7901    1.2454 H       1  LIG1        0.0278
     15 H          -2.3472    0.6065    2.5321 H       1  LIG1        0.0278
     16 C          -6.6845    1.3193   -0.2524 C.ar    1  LIG1        0.0376
     17 C          -5.2930    1.4267   -0.1653 C.ar    1  LIG1        0.0190
     18 C          -4.7694    2.7143   -0.1658 C.ar    1  LIG1       -0.0461
     19 C          -5.5932    3.8342   -0.2510 C.ar    1  LIG1       -0.0207
     20 C          -6.9717    3.5960   -0.3616 C.ar    1  LIG1        0.1125
     21 N          -7.4970    2.3591   -0.3426 N.ar    1  LIG1       -0.2508
     22 H          -3.6972    2.8651   -0.1025 H       1  LIG1        0.0628
     23 H          -7.1434    0.3354   -0.2527 H       1  LIG1        0.0836
     24 C          -5.0006    5.2137   -0.1785 C.3     1  LIG1       -0.0376
     25 H          -5.5819    5.8541    0.4904 H       1  LIG1        0.0278
     26 H          -4.9921    5.7063   -1.1524 H       1  LIG1        0.0278
     27 H          -3.9758    5.1675    0.1963 H       1  LIG1        0.0278
     28 C          -7.9710    4.6589   -0.4750 C.ar    1  LIG1        0.1951
     29 C          -8.0936    5.8676   -1.1058 C.ar    1  LIG1        0.1648
     30 C          -9.4300    6.3272   -0.9171 C.ar    1  LIG1        0.0267
     31 C         -10.0630    5.3640   -0.1874 C.ar    1  LIG1        0.1445
     32 O          -9.1922    4.3661    0.0833 O.2     1  LIG1       -0.4493
     33 O          -7.1246    6.4759   -1.8338 O.3     1  LIG1       -0.5031
     34 H          -7.4781    7.2893   -2.2097 H       1  LIG1        0.2923
     35 H          -9.8661    7.2321   -1.3148 H       1  LIG1        0.0692
     36 C         -11.9592    3.9473    0.6870 C.ar    1  LIG1        0.2232
     37 C         -11.4218    5.2064    0.3101 C.ar    1  LIG1        0.0787
     38 C         -12.2685    6.3093    0.3960 C.ar    1  LIG1       -0.0445
     39 C         -13.5770    6.1571    0.8221 C.ar    1  LIG1       -0.0427
     40 C         -13.9944    4.8761    1.1577 C.ar    1  LIG1        0.0314
     41 N         -13.2129    3.8037    1.0955 N.ar    1  LIG1       -0.2209
     42 H         -11.8857    7.2912    0.1353 H       1  LIG1        0.0627
     43 H         -15.0124    4.7005    1.4988 H       1  LIG1        0.0831
     44 O         -11.2609    2.8068    0.6562 O.3     1  LIG1       -0.4919
     45 H         -10.3359    2.9599    0.4013 H       1  LIG1        0.2937
     46 H         -14.2505    7.0020    0.8987 H       1  LIG1        0.0633
@<TRIPOS>BOND
     1    10     9    1
     2    34    33    1
     3    11     9    1
     4    33    29    1
     5     9     1    1
     6    35    30    1
     7    26    24    1
     8    29    30   ar
     9    29    28   ar
    10     1     6   ar
    11     1     2   ar
    12    30    31   ar
    13     6     5   ar
    14    28    20    1
    15    28    32   ar
    16    20    21   ar
    17    20    19   ar
    18    21    16   ar
    19    23    16    1
    20    16    17   ar
    21    19    24    1
    22    19    18   ar
    23     8     2    1
    24     2     3   ar
    25    31    32   ar
    26    31    37    1
    27    24    27    1
    28    24    25    1
    29    18    17   ar
    30    18    22    1
    31    17     5    1
    32     5     4   ar
    33    42    38    1
    34    37    38   ar
    35    37    36   ar
    36    38    39   ar
    37    45    44    1
    38     3     4   ar
    39     3     7    1
    40    44    36    1
    41    36    41   ar
    42     4    12    1
    43    39    46    1
    44    39    40   ar
    45    41    40   ar
    46    40    43    1
    47    14    12    1
    48    12    13    1
    49    12    15    1
