@<TRIPOS>MOLECULE
mol_data/opt/cam/geoms/mol2/6hi6hi6hi6hi.out
 58 61 0 0 0
SMALL
GASTEIGER

@<TRIPOS>ATOM
      1 C          -3.9379   -1.7888   -1.6425 C.ar    1  LIG1        0.1168
      2 C          -2.9512   -2.2149   -0.7428 C.ar    1  LIG1       -0.0218
      3 C          -2.7802   -1.4823    0.4102 C.ar    1  LIG1       -0.0536
      4 C          -3.5381   -0.3359    0.6739 C.ar    1  LIG1       -0.0242
      5 C          -4.4699    0.0306   -0.3061 C.ar    1  LIG1        0.0793
      6 N          -4.6664   -0.7000   -1.4197 N.ar    1  LIG1       -0.2321
      7 H          -2.0467   -1.8063    1.1435 H       1  LIG1        0.0622
      8 H          -2.3676   -3.1076   -0.9390 H       1  LIG1        0.0652
      9 N          -4.2337   -2.5060   -2.7833 N.pl3   1  LIG1       -0.3431
     10 H          -4.7436   -1.9833   -3.4796 H       1  LIG1        0.1437
     11 H          -3.5079   -3.1006   -3.1511 H       1  LIG1        0.1437
     12 C          -3.3447    0.3877    1.9822 C.3     1  LIG1       -0.0377
     13 H          -4.2662    0.8601    2.3257 H       1  LIG1        0.0278
     14 H          -2.5802    1.1696    1.9193 H       1  LIG1        0.0278
     15 H          -3.0185   -0.3150    2.7531 H       1  LIG1        0.0278
     16 C          -6.7003    1.2396   -0.5080 C.ar    1  LIG1        0.1261
     17 C          -5.3167    1.2488   -0.1977 C.ar    1  LIG1        0.0405
     18 C          -4.7944    2.4658    0.2031 C.ar    1  LIG1       -0.0443
     19 C          -5.5622    3.6268    0.3179 C.ar    1  LIG1       -0.0236
     20 C          -6.9187    3.5031   -0.0047 C.ar    1  LIG1        0.0793
     21 N          -7.4524    2.3313   -0.3895 N.ar    1  LIG1       -0.2314
     22 H          -3.7363    2.5264    0.4376 H       1  LIG1        0.0628
     23 N          -7.3446    0.0935   -0.8967 N.pl3   1  LIG1       -0.3426
     24 H          -8.2571    0.2601   -1.2933 H       1  LIG1        0.1437
     25 H          -6.7573   -0.5729   -1.3810 H       1  LIG1        0.1437
     26 C          -4.9093    4.8915    0.8154 C.3     1  LIG1       -0.0377
     27 H          -5.6008    5.5041    1.3964 H       1  LIG1        0.0278
     28 H          -4.5263    5.5153    0.0006 H       1  LIG1        0.0278
     29 H          -4.0579    4.6464    1.4556 H       1  LIG1        0.0278
     30 C          -9.1709    4.5182    0.6016 C.ar    1  LIG1        0.1261
     31 C          -7.8719    4.6434    0.0463 C.ar    1  LIG1        0.0405
     32 C          -7.5475    5.8906   -0.4577 C.ar    1  LIG1       -0.0443
     33 C          -8.4200    6.9805   -0.4198 C.ar    1  LIG1       -0.0236
     34 C          -9.6723    6.7491    0.1612 C.ar    1  LIG1        0.0793
     35 N         -10.0105    5.5491    0.6617 N.ar    1  LIG1       -0.2314
     36 H          -6.5709    6.0318   -0.9095 H       1  LIG1        0.0628
     37 N          -9.6092    3.3406    1.1511 N.pl3   1  LIG1       -0.3426
     38 H         -10.6057    3.3178    1.3068 H       1  LIG1        0.1437
     39 H          -9.1971    2.5117    0.7419 H       1  LIG1        0.1437
     40 C          -7.9536    8.3130   -0.9491 C.3     1  LIG1       -0.0377
     41 H          -8.3967    9.1448   -0.3992 H       1  LIG1        0.0278
     42 H          -8.1995    8.4541   -2.0071 H       1  LIG1        0.0278
     43 H          -6.8667    8.3916   -0.8616 H       1  LIG1        0.0278
     44 C         -11.4801    7.9909    1.4512 C.ar    1  LIG1        0.1254
     45 C         -10.7224    7.7984    0.2638 C.ar    1  LIG1        0.0404
     46 C         -11.0310    8.6162   -0.8118 C.ar    1  LIG1       -0.0449
     47 C         -12.0083    9.6096   -0.7254 C.ar    1  LIG1       -0.0316
     48 C         -12.6465    9.7230    0.5001 C.ar    1  LIG1        0.0326
     49 N         -12.4078    8.9440    1.5535 N.ar    1  LIG1       -0.2398
     50 H         -10.5069    8.4692   -1.7513 H       1  LIG1        0.0628
     51 H         -13.4130   10.4843    0.6417 H       1  LIG1        0.0833
     52 N         -11.2613    7.2322    2.5726 N.pl3   1  LIG1       -0.3426
     53 H         -11.9807    7.3430    3.2710 H       1  LIG1        0.1437
     54 H         -10.9398    6.2908    2.3902 H       1  LIG1        0.1437
     55 C         -12.3508   10.4973   -1.8900 C.3     1  LIG1       -0.0383
     56 H         -13.1264   11.2172   -1.6171 H       1  LIG1        0.0278
     57 H         -12.7222    9.9206   -2.7434 H       1  LIG1        0.0278
     58 H         -11.4814   11.0651   -2.2369 H       1  LIG1        0.0278
@<TRIPOS>BOND
     1    10     9    1
     2    11     9    1
     3     9     1    1
     4    57    55    1
     5    58    55    1
     6    42    40    1
     7    55    56    1
     8    55    47    1
     9    50    46    1
    10     1     6   ar
    11     1     2   ar
    12     6     5   ar
    13    25    23    1
    14    24    23    1
    15    40    43    1
    16    40    33    1
    17    40    41    1
    18     8     2    1
    19    36    32    1
    20    23    16    1
    21    46    47   ar
    22    46    45   ar
    23     2     3   ar
    24    47    48   ar
    25    16    21   ar
    26    16    17   ar
    27    32    33   ar
    28    32    31   ar
    29    33    34   ar
    30    21    20   ar
    31     5    17    1
    32     5     4   ar
    33    17    18   ar
    34    20    31    1
    35    20    19   ar
    36    28    26    1
    37    31    30   ar
    38    34    45    1
    39    34    35   ar
    40    18    19   ar
    41    18    22    1
    42    45    44   ar
    43    19    26    1
    44     3     4   ar
    45     3     7    1
    46    48    51    1
    47    48    49   ar
    48    30    35   ar
    49    30    37    1
    50     4    12    1
    51    39    37    1
    52    26    27    1
    53    26    29    1
    54    37    38    1
    55    44    49   ar
    56    44    52    1
    57    14    12    1
    58    12    13    1
    59    12    15    1
    60    54    52    1
    61    52    53    1
