@<TRIPOS>MOLECULE
mol_data/opt/cam/geoms/mol2/6hi6hi-6hi-6hi-.out
 58 61 0 0 0
SMALL
GASTEIGER

@<TRIPOS>ATOM
      1 C          -4.5214   -2.2150   -0.7292 C.ar    1  LIG1        0.1168
      2 C          -3.1401   -2.3438   -0.5243 C.ar    1  LIG1       -0.0218
      3 C          -2.4333   -1.2168   -0.1633 C.ar    1  LIG1       -0.0536
      4 C          -3.0665    0.0214   -0.0154 C.ar    1  LIG1       -0.0242
      5 C          -4.4422    0.0447   -0.2769 C.ar    1  LIG1        0.0793
      6 N          -5.1465   -1.0455   -0.6151 N.ar    1  LIG1       -0.2321
      7 H          -1.3664   -1.2914    0.0280 H       1  LIG1        0.0622
      8 H          -2.6523   -3.3074   -0.6257 H       1  LIG1        0.0652
      9 N          -5.3123   -3.3064   -1.0218 N.pl3   1  LIG1       -0.3431
     10 H          -6.2288   -3.0672   -1.3690 H       1  LIG1        0.1437
     11 H          -4.8721   -4.0897   -1.4776 H       1  LIG1        0.1437
     12 C          -2.3008    1.2305    0.4525 C.3     1  LIG1       -0.0377
     13 H          -2.8089    1.7211    1.2873 H       1  LIG1        0.0278
     14 H          -2.1938    1.9790   -0.3375 H       1  LIG1        0.0278
     15 H          -1.3026    0.9426    0.7903 H       1  LIG1        0.0278
     16 C          -5.0456    2.4271   -0.9608 C.ar    1  LIG1        0.1261
     17 C          -5.2488    1.2918   -0.1535 C.ar    1  LIG1        0.0405
     18 C          -6.2877    1.3655    0.7570 C.ar    1  LIG1       -0.0443
     19 C          -7.0795    2.5050    0.9061 C.ar    1  LIG1       -0.0236
     20 C          -6.7896    3.5785    0.0528 C.ar    1  LIG1        0.0793
     21 N          -5.7892    3.5221   -0.8430 N.ar    1  LIG1       -0.2314
     22 H          -6.4766    0.5017    1.3880 H       1  LIG1        0.0628
     23 N          -4.0462    2.4758   -1.9164 N.pl3   1  LIG1       -0.3426
     24 H          -3.7486    1.5872   -2.2913 H       1  LIG1        0.1437
     25 H          -4.1960    3.1935   -2.6104 H       1  LIG1        0.1437
     26 C          -8.1386    2.5276    1.9788 C.3     1  LIG1       -0.0377
     27 H          -7.8527    1.8654    2.7995 H       1  LIG1        0.0278
     28 H          -9.1107    2.1804    1.6127 H       1  LIG1        0.0278
     29 H          -8.2823    3.5293    2.3871 H       1  LIG1        0.0278
     30 C          -6.9210    6.1181   -0.0033 C.ar    1  LIG1        0.1261
     31 C          -7.5568    4.8525    0.0614 C.ar    1  LIG1        0.0405
     32 C          -8.9393    4.8726    0.1213 C.ar    1  LIG1       -0.0443
     33 C          -9.6859    6.0529    0.1347 C.ar    1  LIG1       -0.0236
     34 C          -8.9564    7.2462    0.0781 C.ar    1  LIG1        0.0793
     35 N          -7.6140    7.2539    0.0243 N.ar    1  LIG1       -0.2314
     36 H          -9.4733    3.9284    0.1556 H       1  LIG1        0.0628
     37 N          -5.5549    6.2384   -0.0468 N.pl3   1  LIG1       -0.3426
     38 H          -5.0815    5.4620   -0.4901 H       1  LIG1        0.1437
     39 H          -5.2439    7.1617   -0.3090 H       1  LIG1        0.1437
     40 C         -11.1867    5.9711    0.2536 C.3     1  LIG1       -0.0377
     41 H         -11.4718    5.0574    0.7817 H       1  LIG1        0.0278
     42 H         -11.6842    5.9444   -0.7219 H       1  LIG1        0.0278
     43 H         -11.5961    6.8199    0.8036 H       1  LIG1        0.0278
     44 C          -9.1129    9.6634    0.8566 C.ar    1  LIG1        0.1254
     45 C          -9.5998    8.5878    0.0645 C.ar    1  LIG1        0.0404
     46 C         -10.6873    8.8570   -0.7514 C.ar    1  LIG1       -0.0449
     47 C         -11.3035   10.1098   -0.7680 C.ar    1  LIG1       -0.0316
     48 C         -10.7582   11.0615    0.0798 C.ar    1  LIG1        0.0326
     49 N          -9.6981   10.8622    0.8608 N.ar    1  LIG1       -0.2398
     50 H         -11.0599    8.0749   -1.4060 H       1  LIG1        0.0628
     51 H         -11.1951   12.0587    0.1249 H       1  LIG1        0.0833
     52 N          -8.0393    9.5077    1.6957 N.pl3   1  LIG1       -0.3426
     53 H          -7.3552    8.8301    1.3866 H       1  LIG1        0.1437
     54 H          -7.6874   10.3827    2.0538 H       1  LIG1        0.1437
     55 C         -12.4824   10.4092   -1.6524 C.3     1  LIG1       -0.0383
     56 H         -13.3347    9.7604   -1.4260 H       1  LIG1        0.0278
     57 H         -12.2406   10.2683   -2.7109 H       1  LIG1        0.0278
     58 H         -12.8131   11.4429   -1.5252 H       1  LIG1        0.0278
@<TRIPOS>BOND
     1    57    55    1
     2    25    23    1
     3    24    23    1
     4    23    16    1
     5    55    58    1
     6    55    56    1
     7    55    47    1
     8    11     9    1
     9    50    46    1
    10    10     9    1
    11     9     1    1
    12    16    21   ar
    13    16    17   ar
    14    21    20   ar
    15    47    46   ar
    16    47    48   ar
    17    46    45   ar
    18     1     6   ar
    19     1     2   ar
    20    42    40    1
    21     8     2    1
    22     6     5   ar
    23     2     3   ar
    24    38    37    1
    25    14    12    1
    26    39    37    1
    27     5    17    1
    28     5     4   ar
    29     3     4   ar
    30     3     7    1
    31    17    18   ar
    32    37    30    1
    33     4    12    1
    34    30    35   ar
    35    30    31   ar
    36    35    34   ar
    37    20    31    1
    38    20    19   ar
    39    31    32   ar
    40    45    34    1
    41    45    44   ar
    42    34    33   ar
    43    48    51    1
    44    48    49   ar
    45    32    33   ar
    46    32    36    1
    47    33    40    1
    48    40    41    1
    49    40    43    1
    50    12    15    1
    51    12    13    1
    52    18    19   ar
    53    18    22    1
    54    44    49   ar
    55    44    52    1
    56    19    26    1
    57    53    52    1
    58    28    26    1
    59    52    54    1
    60    26    29    1
    61    26    27    1
