@<TRIPOS>MOLECULE
mol_data/opt/cam/geoms/mol2/6hl12aa4le4ai-.out
 53 56 0 0 0
SMALL
GASTEIGER

@<TRIPOS>ATOM
      1 C          -4.1934   -2.3114    0.3369 C.ar    1  LIG1        0.1172
      2 C          -2.7968   -2.3366    0.2784 C.ar    1  LIG1       -0.0186
      3 C          -2.1245   -1.1394    0.1012 C.ar    1  LIG1       -0.0145
      4 C          -2.8407    0.0477   -0.0043 C.ar    1  LIG1        0.1491
      5 C          -4.2435   -0.0182    0.0678 C.ar    1  LIG1        0.1495
      6 N          -4.8830   -1.1808    0.2280 N.ar    1  LIG1       -0.2257
      7 H          -1.0429   -1.1387    0.0512 H       1  LIG1        0.0656
      8 H          -2.2521   -3.2689    0.3782 H       1  LIG1        0.0653
      9 N          -4.9322   -3.4635    0.5589 N.pl3   1  LIG1       -0.3431
     10 H          -5.9135   -3.3436    0.3529 H       1  LIG1        0.1437
     11 H          -4.5404   -4.3209    0.2006 H       1  LIG1        0.1437
     12 O          -2.2717    1.2757   -0.1772 O.3     1  LIG1       -0.4929
     13 C          -0.8655    1.3503   -0.2412 C.3     1  LIG1        0.0789
     14 H          -0.6216    2.4042   -0.3739 H       1  LIG1        0.0660
     15 H          -0.3985    0.9881    0.6825 H       1  LIG1        0.0660
     16 H          -0.4678    0.7814   -1.0902 H       1  LIG1        0.0660
     17 C          -5.0806    1.1738   -0.0363 C.ar    1  LIG1        0.1575
     18 C          -4.8434    2.5096   -0.2056 C.ar    1  LIG1       -0.0136
     19 C          -6.1103    3.1505   -0.2245 C.ar    1  LIG1       -0.0151
     20 C          -7.0470    2.1672   -0.0656 C.ar    1  LIG1        0.1393
     21 O          -6.4217    0.9665    0.0483 O.2     1  LIG1       -0.4531
     22 H          -3.8746    2.9677   -0.3033 H       1  LIG1        0.0656
     23 H          -6.3130    4.2010   -0.3399 H       1  LIG1        0.0656
     24 C          -9.3051    3.2729   -0.0956 C.ar    1  LIG1        0.1314
     25 C         -10.6885    3.1687   -0.0232 C.ar    1  LIG1       -0.0104
     26 C          -8.5022    2.1201    0.0065 C.ar    1  LIG1        0.0600
     27 C         -11.3294    1.9402    0.1507 C.ar    1  LIG1        0.0010
     28 H         -11.3042    4.0522   -0.1255 H       1  LIG1        0.0661
     29 C          -9.1454    0.8994    0.1850 C.ar    1  LIG1       -0.0316
     30 C         -10.5364    0.7836    0.2594 C.ar    1  LIG1        0.0333
     31 H          -8.5390    0.0072    0.2779 H       1  LIG1        0.0638
     32 O          -8.6569    4.4520   -0.2731 O.3     1  LIG1       -0.4944
     33 C          -9.4178    5.6375   -0.3760 C.3     1  LIG1        0.0788
     34 H          -8.6993    6.4470   -0.5016 H       1  LIG1        0.0660
     35 H         -10.0872    5.6120   -1.2429 H       1  LIG1        0.0660
     36 H         -10.0078    5.8163    0.5297 H       1  LIG1        0.0660
     37 C         -11.0914   -0.5181    0.4883 C.1     1  LIG1       -0.0690
     38 C         -11.5079   -1.6304    0.6873 C.1     1  LIG1       -0.1139
     39 H         -11.8881   -2.6082    0.8718 H       1  LIG1        0.1232
     40 C         -13.4881    2.8319    1.0328 C.ar    1  LIG1       -0.0540
     41 C         -14.8753    2.8361    1.0796 C.ar    1  LIG1       -0.0609
     42 C         -12.8128    1.9186    0.2193 C.ar    1  LIG1       -0.0164
     43 C         -15.6036    1.9359    0.3131 C.ar    1  LIG1       -0.0588
     44 H         -15.3917    3.5394    1.7254 H       1  LIG1        0.0618
     45 C         -13.5613    1.0206   -0.5440 C.ar    1  LIG1       -0.0511
     46 C         -14.9536    1.0183   -0.5118 C.ar    1  LIG1       -0.0499
     47 H         -13.0448    0.3105   -1.1807 H       1  LIG1        0.0626
     48 H         -16.6891    1.9414    0.3567 H       1  LIG1        0.0620
     49 H         -12.9200    3.5217    1.6485 H       1  LIG1        0.0624
     50 C         -15.7373    0.0626   -1.3732 C.3     1  LIG1       -0.0397
     51 H         -15.1797   -0.8597   -1.5522 H       1  LIG1        0.0278
     52 H         -15.9612    0.5042   -2.3504 H       1  LIG1        0.0278
     53 H         -16.6909   -0.2015   -0.9093 H       1  LIG1        0.0278
@<TRIPOS>BOND
     1    52    50    1
     2    51    50    1
     3    50    53    1
     4    50    46    1
     5    35    33    1
     6    47    45    1
     7    16    13    1
     8    45    46   ar
     9    45    42   ar
    10    46    43   ar
    11    34    33    1
    12    33    32    1
    13    33    36    1
    14    14    13    1
    15    23    19    1
    16    22    18    1
    17    32    24    1
    18    13    12    1
    19    13    15    1
    20    19    18   ar
    21    19    20   ar
    22    18    17   ar
    23    12     4    1
    24    28    25    1
    25    24    25   ar
    26    24    26   ar
    27    20    26    1
    28    20    21   ar
    29    17    21   ar
    30    17     5    1
    31    25    27   ar
    32     4     5   ar
    33     4     3   ar
    34    26    29   ar
    35     7     3    1
    36     5     6   ar
    37     3     2   ar
    38    27    42    1
    39    27    30   ar
    40    29    30   ar
    41    29    31    1
    42    11     9    1
    43    42    40   ar
    44     6     1   ar
    45    30    37    1
    46     2     1   ar
    47     2     8    1
    48    43    48    1
    49    43    41   ar
    50     1     9    1
    51    10     9    1
    52    37    38    3
    53    38    39    1
    54    40    41   ar
    55    40    49    1
    56    41    44    1
