@<TRIPOS>MOLECULE
mol_data/opt/cam/geoms/mol2/6hl13la6ea-6ia4dd-4aa4af4ae-.out
 97 104 0 0 0
SMALL
GASTEIGER

@<TRIPOS>ATOM
      1 C          -3.7965   -1.3655   -2.0496 C.ar    1  LIG1        0.1171
      2 C          -2.4718   -1.6710   -1.7286 C.ar    1  LIG1       -0.0186
      3 C          -1.8447   -0.9203   -0.7486 C.ar    1  LIG1       -0.0145
      4 C          -2.5300    0.1108   -0.1126 C.ar    1  LIG1        0.1476
      5 C          -3.8498    0.3729   -0.5128 C.ar    1  LIG1        0.1342
      6 N          -4.4474   -0.3713   -1.4558 N.ar    1  LIG1       -0.2272
      7 H          -0.8233   -1.1516   -0.4732 H       1  LIG1        0.0656
      8 H          -1.9517   -2.4835   -2.2236 H       1  LIG1        0.0653
      9 N          -4.5185   -2.1088   -2.9741 N.pl3   1  LIG1       -0.3431
     10 H          -5.3181   -1.6093   -3.3365 H       1  LIG1        0.1437
     11 H          -3.9743   -2.5640   -3.6915 H       1  LIG1        0.1437
     12 O          -2.0171    0.8749    0.8859 O.3     1  LIG1       -0.4929
     13 C          -0.7306    0.5698    1.3713 C.3     1  LIG1        0.0789
     14 H          -0.5436    1.2697    2.1851 H       1  LIG1        0.0660
     15 H          -0.6770   -0.4553    1.7574 H       1  LIG1        0.0660
     16 H           0.0388    0.7015    0.6002 H       1  LIG1        0.0660
     17 C          -4.7148    1.3991    0.0776 C.ar    1  LIG1        0.1113
     18 C          -4.5769    2.5754    0.8230 C.ar    1  LIG1        0.1475
     19 C          -5.8633    3.0891    1.0584 C.ar    1  LIG1        0.0062
     20 C          -6.7798    2.2350    0.4557 C.ar    1  LIG1        0.0532
     21 N          -6.0576    1.2411   -0.1293 N.ar    1  LIG1       -0.3499
     22 H          -6.4164    0.4761   -0.6834 H       1  LIG1        0.1661
     23 O          -3.4500    3.1925    1.2753 O.3     1  LIG1       -0.4929
     24 C          -2.6615    3.7907    0.2630 C.3     1  LIG1        0.0789
     25 H          -1.8421    4.3060    0.7673 H       1  LIG1        0.0660
     26 H          -2.2453    3.0417   -0.4179 H       1  LIG1        0.0660
     27 H          -3.2454    4.5184   -0.3137 H       1  LIG1        0.0660
     28 H          -6.0675    3.9861    1.6226 H       1  LIG1        0.0676
     29 C          -9.1126    1.3583   -0.1105 C.ar    1  LIG1        0.1229
     30 C          -8.2346    2.3334    0.4142 C.ar    1  LIG1        0.0323
     31 C          -8.8519    3.4775    0.9396 C.ar    1  LIG1       -0.0479
     32 C         -10.2215    3.6165    0.9259 C.ar    1  LIG1       -0.0349
     33 C         -11.0034    2.5977    0.3671 C.ar    1  LIG1        0.0741
     34 N         -10.4443    1.4994   -0.1295 N.ar    1  LIG1       -0.2377
     35 H          -8.2384    4.2631    1.3643 H       1  LIG1        0.0626
     36 C          -8.6542    0.1130   -0.6690 C.1     1  LIG1       -0.0491
     37 C          -8.3014   -0.9383   -1.1389 C.1     1  LIG1       -0.1124
     38 H          -7.9777   -1.8723   -1.5392 H       1  LIG1        0.1232
     39 H         -10.6875    4.4960    1.3548 H       1  LIG1        0.0639
     40 C         -13.3588    1.6419    0.5306 C.ar    1  LIG1        0.0480
     41 C         -12.4804    2.7211    0.2881 C.ar    1  LIG1        0.0214
     42 C         -13.0495    3.9501   -0.0267 C.ar    1  LIG1       -0.0488
     43 C         -14.4252    4.0934   -0.1190 C.ar    1  LIG1       -0.0350
     44 C         -15.2136    2.9703    0.1037 C.ar    1  LIG1        0.0726
     45 N         -14.6780    1.7901    0.4384 N.ar    1  LIG1       -0.2512
     46 H         -12.4101    4.8052   -0.2201 H       1  LIG1        0.0625
     47 C         -12.8871    0.2714    0.9276 C.3     1  LIG1       -0.0217
     48 H         -12.1380    0.3187    1.7214 H       1  LIG1        0.0293
     49 H         -12.4128   -0.2346    0.0850 H       1  LIG1        0.0293
     50 H         -13.7453   -0.3086    1.2663 H       1  LIG1        0.0293
     51 H         -14.8563    5.0557   -0.3575 H       1  LIG1        0.0639
     52 C         -17.4688    3.8358   -0.7708 C.ar    1  LIG1        0.0616
     53 C         -18.8650    3.7870   -0.7443 C.ar    1  LIG1       -0.0348
     54 C         -16.7016    2.9884    0.0479 C.ar    1  LIG1        0.0189
     55 C         -19.5603    2.9052    0.0753 C.ar    1  LIG1        0.0007
     56 H         -19.4202    4.4688   -1.3775 H       1  LIG1        0.0637
     57 C         -17.3972    2.0875    0.8510 C.ar    1  LIG1       -0.0333
     58 C         -18.7884    2.0395    0.8749 C.ar    1  LIG1        0.0602
     59 H         -16.8217    1.3984    1.4556 H       1  LIG1        0.0637
     60 N         -16.4705    5.5349   -2.4559 N.1     1  LIG1       -0.1908
     61 C         -16.8853    4.7683   -1.6954 C.1     1  LIG1        0.0998
     62 N         -19.8548    0.2473    2.4171 N.1     1  LIG1       -0.1908
     63 C         -19.4004    1.0520    1.7220 C.1     1  LIG1        0.0998
     64 C         -21.7314    2.9478   -1.1529 C.ar    1  LIG1       -0.0534
     65 C         -23.1166    2.9642   -1.1851 C.ar    1  LIG1       -0.0535
     66 C         -21.0425    2.9000    0.0622 C.ar    1  LIG1       -0.0166
     67 C         -23.8633    2.9377   -0.0041 C.ar    1  LIG1       -0.0177
     68 H         -23.6288    2.9665   -2.1413 H       1  LIG1        0.0624
     69 C         -21.7858    2.8776    1.2445 C.ar    1  LIG1       -0.0534
     70 C         -23.1711    2.8972    1.2090 C.ar    1  LIG1       -0.0535
     71 H         -21.2804    2.8648    2.2033 H       1  LIG1        0.0624
     72 H         -21.1756    2.9398   -2.0851 H       1  LIG1        0.0624
     73 H         -23.7251    2.9092    2.1415 H       1  LIG1        0.0624
     74 C         -26.0389    3.7301   -0.9649 C.ar    1  LIG1       -0.0532
     75 C         -27.4257    3.7261   -0.9772 C.ar    1  LIG1       -0.0500
     76 C         -25.3448    2.9505   -0.0396 C.ar    1  LIG1       -0.0144
     77 C         -28.1793    2.9587   -0.0881 C.ar    1  LIG1        0.0236
     78 H         -27.9515    4.3302   -1.7092 H       1  LIG1        0.0625
     79 C         -26.0818    2.1751    0.8560 C.ar    1  LIG1       -0.0119
     80 C         -27.4718    2.1727    0.8359 C.ar    1  LIG1        0.1251
     81 H         -25.5632    1.5395    1.5692 H       1  LIG1        0.0660
     82 H         -25.4948    4.3568   -1.6626 H       1  LIG1        0.0624
     83 O         -28.1850    1.4134    1.7117 O.3     1  LIG1       -0.5061
     84 H         -27.5777    0.9494    2.2999 H       1  LIG1        0.2922
     85 C         -30.3154    4.2295   -0.3030 C.ar    1  LIG1       -0.0538
     86 C         -31.7002    4.2938   -0.3901 C.ar    1  LIG1       -0.0600
     87 C         -29.6630    3.0049   -0.1314 C.ar    1  LIG1       -0.0132
     88 C         -32.4610    3.1385   -0.3066 C.ar    1  LIG1       -0.0463
     89 H         -32.1883    5.2544   -0.5176 H       1  LIG1        0.0618
     90 C         -30.4350    1.8461   -0.0417 C.ar    1  LIG1       -0.0385
     91 C         -31.8280    1.9032   -0.1298 C.ar    1  LIG1        0.0253
     92 H         -29.9547    0.8869    0.0993 H       1  LIG1        0.0636
     93 H         -33.5424    3.1791   -0.3720 H       1  LIG1        0.0630
     94 H         -29.7303    5.1421   -0.3499 H       1  LIG1        0.0624
     95 C         -32.6029    0.7004   -0.0442 C.1     1  LIG1       -0.0696
     96 C         -33.2571   -0.3077    0.0264 C.1     1  LIG1       -0.1139
     97 H         -33.8344   -1.2010    0.0892 H       1  LIG1        0.1232
@<TRIPOS>BOND
     1    11     9    1
     2    10     9    1
     3     9     1    1
     4    60    61    3
     5     8     2    1
     6    68    65    1
     7    72    64    1
     8     1     2   ar
     9     1     6   ar
    10     2     3   ar
    11    78    75    1
    12    61    52    1
    13    82    74    1
    14    38    37    1
    15     6     5   ar
    16    56    53    1
    17    65    64   ar
    18    65    67   ar
    19    64    66   ar
    20    37    36    3
    21    75    74   ar
    22    75    77   ar
    23    74    76   ar
    24    52    53   ar
    25    52    54   ar
    26     3     7    1
    27     3     4   ar
    28    53    55   ar
    29    22    21    1
    30    36    29    1
    31    89    86    1
    32     5     4   ar
    33     5    17    1
    34    26    24    1
    35    86    88   ar
    36    86    85   ar
    37    93    88    1
    38    51    43    1
    39    94    85    1
    40    27    24    1
    41    88    91   ar
    42    85    87   ar
    43    46    42    1
    44    87    77    1
    45    87    90   ar
    46    91    95    1
    47    91    90   ar
    48    34    29   ar
    49    34    33   ar
    50    21    17   ar
    51    21    20   ar
    52    43    42   ar
    53    43    44   ar
    54     4    12    1
    55    29    30   ar
    56    77    80   ar
    57    95    96    3
    58    90    92    1
    59    76    67    1
    60    76    79   ar
    61    42    41   ar
    62    67    70   ar
    63    96    97    1
    64    54    44    1
    65    54    57   ar
    66    66    55    1
    67    66    69   ar
    68    55    58   ar
    69    17    18   ar
    70    49    47    1
    71    44    45   ar
    72    24    25    1
    73    24    23    1
    74    41    33    1
    75    41    40   ar
    76    33    32   ar
    77    30    20    1
    78    30    31   ar
    79    45    40   ar
    80    20    19   ar
    81    40    47    1
    82    16    13    1
    83    18    19   ar
    84    18    23    1
    85    80    79   ar
    86    80    83    1
    87    57    58   ar
    88    57    59    1
    89    79    81    1
    90    58    63    1
    91    12    13    1
    92    32    31   ar
    93    32    39    1
    94    47    50    1
    95    47    48    1
    96    31    35    1
    97    19    28    1
    98    70    69   ar
    99    70    73    1
   100    69    71    1
   101    13    15    1
   102    13    14    1
   103    83    84    1
   104    63    62    3
