@<TRIPOS>MOLECULE
mol_data/opt/cam/geoms/mol2/6hl6hl6hl.out
 47 49 0 0 0
SMALL
GASTEIGER

@<TRIPOS>ATOM
      1 C          -4.3127   -2.0673   -1.1999 C.ar    1  LIG1        0.1170
      2 C          -3.0204   -2.2368   -0.7013 C.ar    1  LIG1       -0.0186
      3 C          -2.4635   -1.2046    0.0317 C.ar    1  LIG1       -0.0146
      4 C          -3.1812   -0.0323    0.2494 C.ar    1  LIG1        0.1462
      5 C          -4.4731    0.0748   -0.3009 C.ar    1  LIG1        0.1179
      6 N          -4.9970   -0.9438   -0.9980 N.ar    1  LIG1       -0.2287
      7 H          -1.4669   -1.3222    0.4382 H       1  LIG1        0.0656
      8 H          -2.4734   -3.1576   -0.8699 H       1  LIG1        0.0653
      9 N          -4.9682   -3.0744   -1.8894 N.pl3   1  LIG1       -0.3431
     10 H          -5.7440   -2.7444   -2.4445 H       1  LIG1        0.1437
     11 H          -4.3820   -3.7412   -2.3674 H       1  LIG1        0.1437
     12 O          -2.6996    1.0181    0.9781 O.3     1  LIG1       -0.4930
     13 C          -1.5016    0.8328    1.6998 C.3     1  LIG1        0.0789
     14 H          -1.3566    1.7410    2.2846 H       1  LIG1        0.0660
     15 H          -1.5695   -0.0249    2.3790 H       1  LIG1        0.0660
     16 H          -0.6401    0.6963    1.0348 H       1  LIG1        0.0660
     17 C          -6.7252    1.2168   -0.0268 C.ar    1  LIG1        0.1264
     18 C          -5.3175    1.2843   -0.1469 C.ar    1  LIG1        0.0470
     19 C          -4.7593    2.5609   -0.1346 C.ar    1  LIG1       -0.0052
     20 C          -5.5418    3.6968    0.0004 C.ar    1  LIG1        0.1468
     21 C          -6.9338    3.5420    0.1260 C.ar    1  LIG1        0.1180
     22 N          -7.4681    2.3160    0.1122 N.ar    1  LIG1       -0.2280
     23 H          -3.6875    2.6522   -0.2216 H       1  LIG1        0.0662
     24 N          -7.4100    0.0260    0.0088 N.pl3   1  LIG1       -0.3426
     25 H          -8.4025    0.1319   -0.1349 H       1  LIG1        0.1437
     26 H          -6.9566   -0.7324   -0.4827 H       1  LIG1        0.1437
     27 O          -5.0222    4.9637    0.0300 O.3     1  LIG1       -0.4929
     28 C          -3.6226    5.1019    0.1134 C.3     1  LIG1        0.0789
     29 H          -3.4295    6.1674    0.2398 H       1  LIG1        0.0660
     30 H          -3.2137    4.5560    0.9719 H       1  LIG1        0.0660
     31 H          -3.1207    4.7551   -0.7986 H       1  LIG1        0.0660
     32 C          -9.0427    4.5969    1.0637 C.ar    1  LIG1        0.1257
     33 C          -7.8695    4.6840    0.2734 C.ar    1  LIG1        0.0469
     34 C          -7.6369    5.8881   -0.3955 C.ar    1  LIG1       -0.0059
     35 C          -8.5214    6.9467   -0.2599 C.ar    1  LIG1        0.1389
     36 C          -9.6319    6.7619    0.5562 C.ar    1  LIG1        0.0713
     37 N          -9.8877    5.6286    1.1907 N.ar    1  LIG1       -0.2364
     38 H          -6.7539    5.9775   -1.0104 H       1  LIG1        0.0662
     39 H         -10.3394    7.5786    0.6813 H       1  LIG1        0.0868
     40 N          -9.3639    3.4768    1.7913 N.pl3   1  LIG1       -0.3426
     41 H         -10.3083    3.4953    2.1443 H       1  LIG1        0.1437
     42 H          -9.0279    2.6068    1.4016 H       1  LIG1        0.1437
     43 O          -8.3994    8.1671   -0.8656 O.3     1  LIG1       -0.4936
     44 C          -7.2716    8.3723   -1.6815 C.3     1  LIG1        0.0789
     45 H          -7.3433    9.3942   -2.0550 H       1  LIG1        0.0660
     46 H          -6.3360    8.2604   -1.1189 H       1  LIG1        0.0660
     47 H          -7.2533    7.6810   -2.5338 H       1  LIG1        0.0660
@<TRIPOS>BOND
     1    47    44    1
     2    10     9    1
     3    11     9    1
     4    45    44    1
     5     9     1    1
     6    44    46    1
     7    44    43    1
     8     1     6   ar
     9     1     2   ar
    10    38    34    1
    11     6     5   ar
    12     8     2    1
    13    43    35    1
    14    31    28    1
    15     2     3   ar
    16    26    24    1
    17    34    35   ar
    18    34    33   ar
    19     5    18    1
    20     5     4   ar
    21    35    36   ar
    22    23    19    1
    23    18    19   ar
    24    18    17   ar
    25    25    24    1
    26    19    20   ar
    27    17    24    1
    28    17    22   ar
    29    20    27    1
    30    20    21   ar
    31    27    28    1
    32     3     4   ar
    33     3     7    1
    34    22    21   ar
    35    28    29    1
    36    28    30    1
    37    21    33    1
    38     4    12    1
    39    33    32   ar
    40    36    39    1
    41    36    37   ar
    42    12    13    1
    43    16    13    1
    44    32    37   ar
    45    32    40    1
    46    42    40    1
    47    13    14    1
    48    13    15    1
    49    40    41    1
