@<TRIPOS>MOLECULE
mol_data/opt/cam/geoms/mol2/6hl6hl6hl6hl-.out
 62 65 0 0 0
SMALL
GASTEIGER

@<TRIPOS>ATOM
      1 C          -3.8186   -1.9172   -1.4741 C.ar    1  LIG1        0.1170
      2 C          -2.7450   -2.1795   -0.6220 C.ar    1  LIG1       -0.0186
      3 C          -2.4806   -1.2764    0.3914 C.ar    1  LIG1       -0.0146
      4 C          -3.2668   -0.1374    0.5387 C.ar    1  LIG1        0.1462
      5 C          -4.3214    0.0710   -0.3709 C.ar    1  LIG1        0.1179
      6 N          -4.5663   -0.8247   -1.3384 N.ar    1  LIG1       -0.2287
      7 H          -1.6599   -1.4691    1.0708 H       1  LIG1        0.0656
      8 H          -2.1440   -3.0741   -0.7406 H       1  LIG1        0.0653
      9 N          -4.1908   -2.8004   -2.4742 N.pl3   1  LIG1       -0.3431
     10 H          -4.7615   -2.3802   -3.1929 H       1  LIG1        0.1437
     11 H          -3.4640   -3.4008   -2.8320 H       1  LIG1        0.1437
     12 O          -3.0731    0.7854    1.5273 O.3     1  LIG1       -0.4930
     13 C          -2.1586    0.4758    2.5560 C.3     1  LIG1        0.0789
     14 H          -2.2346    1.2846    3.2825 H       1  LIG1        0.0660
     15 H          -2.4098   -0.4720    3.0460 H       1  LIG1        0.0660
     16 H          -1.1275    0.4260    2.1854 H       1  LIG1        0.0660
     17 C          -6.5799    1.1966   -0.6630 C.ar    1  LIG1        0.1264
     18 C          -5.2090    1.2581   -0.3186 C.ar    1  LIG1        0.0470
     19 C          -4.7242    2.5089    0.0565 C.ar    1  LIG1       -0.0052
     20 C          -5.5449    3.6253    0.1016 C.ar    1  LIG1        0.1468
     21 C          -6.8994    3.4764   -0.2442 C.ar    1  LIG1        0.1180
     22 N          -7.3629    2.2750   -0.6069 N.ar    1  LIG1       -0.2280
     23 H          -3.6835    2.5944    0.3284 H       1  LIG1        0.0662
     24 N          -7.2019    0.0254   -1.0217 N.pl3   1  LIG1       -0.3426
     25 H          -8.1019    0.1660   -1.4542 H       1  LIG1        0.1437
     26 H          -6.5921   -0.6594   -1.4477 H       1  LIG1        0.1437
     27 O          -5.1006    4.8641    0.4798 O.3     1  LIG1       -0.4929
     28 C          -3.8035    4.9648    1.0217 C.3     1  LIG1        0.0789
     29 H          -3.6943    5.9961    1.3579 H       1  LIG1        0.0660
     30 H          -3.6700    4.2899    1.8754 H       1  LIG1        0.0660
     31 H          -3.0292    4.7499    0.2749 H       1  LIG1        0.0660
     32 C          -9.2361    4.4093    0.1083 C.ar    1  LIG1        0.1264
     33 C          -7.8724    4.5961   -0.2343 C.ar    1  LIG1        0.0470
     34 C          -7.4866    5.8890   -0.5838 C.ar    1  LIG1       -0.0052
     35 C          -8.4022    6.9322   -0.5860 C.ar    1  LIG1        0.1468
     36 C          -9.7337    6.6459   -0.2620 C.ar    1  LIG1        0.1180
     37 N         -10.1129    5.4163    0.0855 N.ar    1  LIG1       -0.2280
     38 H          -6.4520    6.0717   -0.8317 H       1  LIG1        0.0662
     39 N          -9.7332    3.2002    0.5276 N.pl3   1  LIG1       -0.3426
     40 H         -10.7410    3.1741    0.5504 H       1  LIG1        0.1437
     41 H          -9.2524    2.3920    0.1566 H       1  LIG1        0.1437
     42 O          -8.0924    8.2331   -0.8520 O.3     1  LIG1       -0.4929
     43 C          -6.7989    8.5218   -1.3228 C.3     1  LIG1        0.0789
     44 H          -6.7832    9.5913   -1.5318 H       1  LIG1        0.0660
     45 H          -6.0303    8.2902   -0.5744 H       1  LIG1        0.0660
     46 H          -6.5691    7.9727   -2.2448 H       1  LIG1        0.0660
     47 C         -11.1146    8.4973   -1.3616 C.ar    1  LIG1        0.1257
     48 C         -10.7867    7.6955   -0.2396 C.ar    1  LIG1        0.0469
     49 C         -11.5491    7.8563    0.9009 C.ar    1  LIG1       -0.0059
     50 C         -12.5620    8.8131    0.9463 C.ar    1  LIG1        0.1389
     51 C         -12.7873    9.5656   -0.1952 C.ar    1  LIG1        0.0713
     52 N         -12.0895    9.3980   -1.3230 N.ar    1  LIG1       -0.2364
     53 H         -11.3619    7.2368    1.7707 H       1  LIG1        0.0662
     54 H         -13.5609   10.3262   -0.2302 H       1  LIG1        0.0868
     55 N         -10.4450    8.3870   -2.5660 N.pl3   1  LIG1       -0.3426
     56 H          -9.9831    7.5096   -2.7468 H       1  LIG1        0.1437
     57 H         -10.9710    8.7603   -3.3417 H       1  LIG1        0.1437
     58 O         -13.2528    8.9229    2.1199 O.3     1  LIG1       -0.4936
     59 C         -14.2807    9.8838    2.1758 C.3     1  LIG1        0.0789
     60 H         -14.7069    9.8208    3.1773 H       1  LIG1        0.0660
     61 H         -13.8976   10.8989    2.0121 H       1  LIG1        0.0660
     62 H         -15.0671    9.6811    1.4378 H       1  LIG1        0.0660
@<TRIPOS>BOND
     1    57    55    1
     2    10     9    1
     3    11     9    1
     4    56    55    1
     5    55    47    1
     6     9     1    1
     7    46    43    1
     8    44    43    1
     9     1     6   ar
    10     1     2   ar
    11    25    24    1
    12    26    24    1
    13    47    52   ar
    14    47    48   ar
    15     6     5   ar
    16    52    51   ar
    17    43    42    1
    18    43    45    1
    19    24    17    1
    20    42    35    1
    21    38    34    1
    22     8     2    1
    23    17    22   ar
    24    17    18   ar
    25     2     3   ar
    26    22    21   ar
    27    35    34   ar
    28    35    36   ar
    29    34    33   ar
    30     5    18    1
    31     5     4   ar
    32    18    19   ar
    33    36    48    1
    34    36    37   ar
    35    21    33    1
    36    21    20   ar
    37    48    49   ar
    38    33    32   ar
    39    54    51    1
    40    51    50   ar
    41    19    20   ar
    42    19    23    1
    43    37    32   ar
    44    20    27    1
    45    32    39    1
    46    41    39    1
    47    31    28    1
    48     3     4   ar
    49     3     7    1
    50    27    28    1
    51    39    40    1
    52     4    12    1
    53    49    50   ar
    54    49    53    1
    55    50    58    1
    56    28    29    1
    57    28    30    1
    58    62    59    1
    59    12    13    1
    60    61    59    1
    61    58    59    1
    62    59    60    1
    63    16    13    1
    64    13    15    1
    65    13    14    1
