@<TRIPOS>MOLECULE
mol_data/opt/cam/geoms/mol2/6hl6hl-.out
 32 33 0 0 0
SMALL
GASTEIGER

@<TRIPOS>ATOM
      1 C          -4.4780   -2.0529   -0.6598 C.ar    1  LIG1        0.1170
      2 C          -3.1592   -2.1589   -0.2083 C.ar    1  LIG1       -0.0186
      3 C          -2.5293   -1.0237    0.2708 C.ar    1  LIG1       -0.0146
      4 C          -3.2172    0.1878    0.2879 C.ar    1  LIG1        0.1462
      5 C          -4.5213    0.2158   -0.2281 C.ar    1  LIG1        0.1179
      6 N          -5.1259   -0.8890   -0.6740 N.ar    1  LIG1       -0.2287
      7 H          -1.5157   -1.0918    0.6468 H       1  LIG1        0.0656
      8 H          -2.6461   -3.1146   -0.2161 H       1  LIG1        0.0653
      9 N          -5.1956   -3.1614   -1.0816 N.pl3   1  LIG1       -0.3431
     10 H          -6.0266   -2.9182   -1.6009 H       1  LIG1        0.1437
     11 H          -4.6618   -3.9132   -1.4897 H       1  LIG1        0.1437
     12 O          -2.7304    1.3499    0.7975 O.3     1  LIG1       -0.4930
     13 C          -1.3745    1.3949    1.1745 C.3     1  LIG1        0.0789
     14 H          -1.1778    2.4226    1.4777 H       1  LIG1        0.0660
     15 H          -1.1637    0.7259    2.0182 H       1  LIG1        0.0660
     16 H          -0.7124    1.1343    0.3394 H       1  LIG1        0.0660
     17 C          -4.9065    2.6396   -0.9412 C.ar    1  LIG1        0.1257
     18 C          -5.3219    1.4686   -0.2609 C.ar    1  LIG1        0.0469
     19 C          -6.5688    1.4857    0.3335 C.ar    1  LIG1       -0.0059
     20 C          -7.3516    2.6388    0.3017 C.ar    1  LIG1        0.1389
     21 C          -6.8429    3.7425   -0.3649 C.ar    1  LIG1        0.0713
     22 N          -5.6575    3.7333   -0.9824 N.ar    1  LIG1       -0.2364
     23 H          -6.9459    0.6004    0.8330 H       1  LIG1        0.0662
     24 H          -7.3984    4.6727   -0.4284 H       1  LIG1        0.0868
     25 N          -3.6951    2.7145   -1.6056 N.pl3   1  LIG1       -0.3426
     26 H          -3.3052    1.8427   -1.9282 H       1  LIG1        0.1437
     27 H          -3.6692    3.4638   -2.2811 H       1  LIG1        0.1437
     28 O          -8.5612    2.5785    0.9314 O.3     1  LIG1       -0.4936
     29 C          -9.3610    3.7382    0.9079 C.3     1  LIG1        0.0789
     30 H         -10.2714    3.4948    1.4558 H       1  LIG1        0.0660
     31 H          -8.8631    4.5846    1.3971 H       1  LIG1        0.0660
     32 H          -9.6254    4.0284   -0.1166 H       1  LIG1        0.0660
@<TRIPOS>BOND
     1    27    25    1
     2    26    25    1
     3    25    17    1
     4    10     9    1
     5    11     9    1
     6     9     1    1
     7    22    17   ar
     8    22    21   ar
     9    17    18   ar
    10     6     1   ar
    11     6     5   ar
    12     1     2   ar
    13    24    21    1
    14    21    20   ar
    15    18     5    1
    16    18    19   ar
    17     5     4   ar
    18     8     2    1
    19     2     3   ar
    20    32    29    1
    21     3     4   ar
    22     3     7    1
    23     4    12    1
    24    20    19   ar
    25    20    28    1
    26    19    23    1
    27    16    13    1
    28    12    13    1
    29    29    28    1
    30    29    31    1
    31    29    30    1
    32    13    14    1
    33    13    15    1
