@<TRIPOS>MOLECULE
mol_data/opt/cam/geoms/mol2/6hl6hl.out
 32 33 0 0 0
SMALL
GASTEIGER

@<TRIPOS>ATOM
      1 C          -4.4981   -2.1078   -0.6509 C.ar    1  LIG1        0.1170
      2 C          -3.1238   -2.1898   -0.4258 C.ar    1  LIG1       -0.0186
      3 C          -2.4629   -1.0509   -0.0015 C.ar    1  LIG1       -0.0146
      4 C          -3.1629    0.1375    0.1823 C.ar    1  LIG1        0.1462
      5 C          -4.5464    0.1484   -0.0814 C.ar    1  LIG1        0.1179
      6 N          -5.1673   -0.9698   -0.4810 N.ar    1  LIG1       -0.2287
      7 H          -1.3984   -1.0978    0.1908 H       1  LIG1        0.0656
      8 H          -2.5902   -3.1236   -0.5640 H       1  LIG1        0.0653
      9 N          -5.2470   -3.2155   -1.0174 N.pl3   1  LIG1       -0.3431
     10 H          -6.1367   -2.9776   -1.4311 H       1  LIG1        0.1437
     11 H          -4.7519   -3.9408   -1.5132 H       1  LIG1        0.1437
     12 O          -2.5797    1.2947    0.6146 O.3     1  LIG1       -0.4930
     13 C          -1.2421    1.2392    1.0566 C.3     1  LIG1        0.0789
     14 H          -1.0074    2.2328    1.4381 H       1  LIG1        0.0660
     15 H          -1.1131    0.5058    1.8613 H       1  LIG1        0.0660
     16 H          -0.5503    0.9991    0.2398 H       1  LIG1        0.0660
     17 C          -6.7185    1.3060    0.5321 C.ar    1  LIG1        0.1257
     18 C          -5.3836    1.3659    0.0634 C.ar    1  LIG1        0.0469
     19 C          -4.8842    2.6210   -0.2916 C.ar    1  LIG1       -0.0059
     20 C          -5.6759    3.7514   -0.1609 C.ar    1  LIG1        0.1389
     21 C          -6.9659    3.5840    0.3311 C.ar    1  LIG1        0.0713
     22 N          -7.4720    2.4059    0.6601 N.ar    1  LIG1       -0.2364
     23 H          -3.8716    2.6924   -0.6599 H       1  LIG1        0.0662
     24 H          -7.6056    4.4559    0.4476 H       1  LIG1        0.0868
     25 N          -7.3106    0.1329    0.9363 N.pl3   1  LIG1       -0.3426
     26 H          -8.3068    0.2227    1.0663 H       1  LIG1        0.1437
     27 H          -6.9796   -0.6960    0.4632 H       1  LIG1        0.1437
     28 O          -5.2994    5.0269   -0.4772 O.3     1  LIG1       -0.4936
     29 C          -3.9905    5.2141   -0.9583 C.3     1  LIG1        0.0789
     30 H          -3.8771    6.2840   -1.1346 H       1  LIG1        0.0660
     31 H          -3.2380    4.8887   -0.2287 H       1  LIG1        0.0660
     32 H          -3.8215    4.6772   -1.9006 H       1  LIG1        0.0660
@<TRIPOS>BOND
     1    32    29    1
     2    11     9    1
     3    10     9    1
     4    30    29    1
     5     9     1    1
     6    29    28    1
     7    29    31    1
     8    23    19    1
     9     1     6   ar
    10     1     2   ar
    11     8     2    1
    12     6     5   ar
    13    28    20    1
    14     2     3   ar
    15    19    20   ar
    16    19    18   ar
    17    20    21   ar
    18     5    18    1
    19     5     4   ar
    20     3     4   ar
    21     3     7    1
    22    18    17   ar
    23     4    12    1
    24    16    13    1
    25    21    24    1
    26    21    22   ar
    27    27    25    1
    28    17    22   ar
    29    17    25    1
    30    12    13    1
    31    25    26    1
    32    13    14    1
    33    13    15    1
