@<TRIPOS>MOLECULE
mol_data/opt/cam/geoms/mol2/6hl6hl6hl6hl.out
 62 65 0 0 0
SMALL
GASTEIGER

@<TRIPOS>ATOM
      1 C          -4.0414   -1.9598   -1.6782 C.ar    1  LIG1        0.1170
      2 C          -2.8896   -2.2593   -0.9491 C.ar    1  LIG1       -0.0186
      3 C          -2.4987   -1.3797    0.0437 C.ar    1  LIG1       -0.0146
      4 C          -3.2387   -0.2270    0.2910 C.ar    1  LIG1        0.1462
      5 C          -4.3793    0.0186   -0.4973 C.ar    1  LIG1        0.1179
      6 N          -4.7457   -0.8548   -1.4466 N.ar    1  LIG1       -0.2287
      7 H          -1.6150   -1.6014    0.6287 H       1  LIG1        0.0656
      8 H          -2.3250   -3.1641   -1.1444 H       1  LIG1        0.0653
      9 N          -4.5371   -2.8171   -2.6464 N.pl3   1  LIG1       -0.3431
     10 H          -5.1709   -2.3728   -3.2942 H       1  LIG1        0.1437
     11 H          -3.8664   -3.4270   -3.0879 H       1  LIG1        0.1437
     12 O          -2.9196    0.6746    1.2664 O.3     1  LIG1       -0.4930
     13 C          -1.9048    0.3300    2.1842 C.3     1  LIG1        0.0789
     14 H          -1.8810    1.1298    2.9241 H       1  LIG1        0.0660
     15 H          -2.1232   -0.6188    2.6879 H       1  LIG1        0.0660
     16 H          -0.9225    0.2622    1.7012 H       1  LIG1        0.0660
     17 C          -6.6307    1.1951   -0.5329 C.ar    1  LIG1        0.1264
     18 C          -5.2301    1.2224   -0.3330 C.ar    1  LIG1        0.0470
     19 C          -4.6819    2.4562    0.0090 C.ar    1  LIG1       -0.0052
     20 C          -5.4681    3.5885    0.1566 C.ar    1  LIG1        0.1468
     21 C          -6.8543    3.4745   -0.0493 C.ar    1  LIG1        0.1180
     22 N          -7.3790    2.2884   -0.3794 N.ar    1  LIG1       -0.2280
     23 H          -3.6169    2.5161    0.1725 H       1  LIG1        0.0662
     24 N          -7.3125    0.0435   -0.8415 N.pl3   1  LIG1       -0.3426
     25 H          -8.2486    0.2089   -1.1779 H       1  LIG1        0.1437
     26 H          -6.7649   -0.6478   -1.3363 H       1  LIG1        0.1437
     27 O          -4.9580    4.8106    0.5063 O.3     1  LIG1       -0.4929
     28 C          -3.6130    4.8710    0.9239 C.3     1  LIG1        0.0789
     29 H          -3.4468    5.8926    1.2663 H       1  LIG1        0.0660
     30 H          -3.4160    4.1767    1.7492 H       1  LIG1        0.0660
     31 H          -2.9185    4.6532    0.1031 H       1  LIG1        0.0660
     32 C          -9.1259    4.4534    0.5318 C.ar    1  LIG1        0.1264
     33 C          -7.7947    4.6133    0.0774 C.ar    1  LIG1        0.0470
     34 C          -7.4162    5.9085   -0.2701 C.ar    1  LIG1       -0.0052
     35 C          -8.2927    6.9773   -0.1655 C.ar    1  LIG1        0.1468
     36 C          -9.5957    6.7341    0.3022 C.ar    1  LIG1        0.1180
     37 N          -9.9585    5.4906    0.6357 N.ar    1  LIG1       -0.2280
     38 H          -6.4078    6.0702   -0.6180 H       1  LIG1        0.0662
     39 N          -9.6275    3.2428    0.9419 N.pl3   1  LIG1       -0.3426
     40 H         -10.6334    3.2279    1.0109 H       1  LIG1        0.1437
     41 H          -9.1827    2.4411    0.5140 H       1  LIG1        0.1437
     42 O          -7.9443    8.2632   -0.4863 O.3     1  LIG1       -0.4929
     43 C          -6.5873    8.5315   -0.7528 C.3     1  LIG1        0.0789
     44 H          -6.5083    9.6128   -0.8691 H       1  LIG1        0.0660
     45 H          -5.9423    8.2084    0.0730 H       1  LIG1        0.0660
     46 H          -6.2469    8.0483   -1.6771 H       1  LIG1        0.0660
     47 C         -11.5881    7.7723    1.4837 C.ar    1  LIG1        0.1257
     48 C         -10.6210    7.7970    0.4477 C.ar    1  LIG1        0.0469
     49 C         -10.6880    8.8533   -0.4636 C.ar    1  LIG1       -0.0059
     50 C         -11.6569    9.8355   -0.3279 C.ar    1  LIG1        0.1389
     51 C         -12.5454    9.7258    0.7355 C.ar    1  LIG1        0.0713
     52 N         -12.5172    8.7293    1.6069 N.ar    1  LIG1       -0.2364
     53 H          -9.9677    8.8914   -1.2669 H       1  LIG1        0.0662
     54 H         -13.3135   10.4851    0.8652 H       1  LIG1        0.0868
     55 N         -11.6056    6.8019    2.4561 N.pl3   1  LIG1       -0.3426
     56 H         -12.4545    6.8070    3.0006 H       1  LIG1        0.1437
     57 H         -11.2429    5.9044    2.1643 H       1  LIG1        0.1437
     58 O         -11.8196   10.9112   -1.1578 O.3     1  LIG1       -0.4936
     59 C         -10.9142   11.0435   -2.2265 C.3     1  LIG1        0.0789
     60 H         -11.1909   11.9570   -2.7537 H       1  LIG1        0.0660
     61 H          -9.8785   11.1316   -1.8744 H       1  LIG1        0.0660
     62 H         -10.9771   10.1968   -2.9221 H       1  LIG1        0.0660
@<TRIPOS>BOND
     1    10     9    1
     2    11     9    1
     3    62    59    1
     4    60    59    1
     5     9     1    1
     6    59    61    1
     7    59    58    1
     8     1     6   ar
     9     1     2   ar
    10    46    43    1
    11     6     5   ar
    12    26    24    1
    13    53    49    1
    14    25    24    1
    15    58    50    1
    16     8     2    1
    17     2     3   ar
    18    44    43    1
    19    24    17    1
    20    43    42    1
    21    43    45    1
    22    38    34    1
    23    17    22   ar
    24    17    18   ar
    25     5    18    1
    26     5     4   ar
    27    42    35    1
    28    49    50   ar
    29    49    48   ar
    30    22    21   ar
    31    18    19   ar
    32    50    51   ar
    33    34    35   ar
    34    34    33   ar
    35    35    36   ar
    36    21    33    1
    37    21    20   ar
    38    19    20   ar
    39    19    23    1
    40     3     4   ar
    41     3     7    1
    42    33    32   ar
    43    31    28    1
    44    20    27    1
    45     4    12    1
    46    36    48    1
    47    36    37   ar
    48    48    47   ar
    49    27    28    1
    50    41    39    1
    51    32    37   ar
    52    32    39    1
    53    51    54    1
    54    51    52   ar
    55    28    29    1
    56    28    30    1
    57    39    40    1
    58    12    13    1
    59    47    52   ar
    60    47    55    1
    61    16    13    1
    62    57    55    1
    63    13    15    1
    64    13    14    1
    65    55    56    1
