@<TRIPOS>MOLECULE
mol_data/opt/cam/geoms/mol2/6ia12ha4fd-6fi.out
 48 51 0 0 0
SMALL
GASTEIGER

@<TRIPOS>ATOM
      1 C          -4.2820   -2.0317   -0.6883 C.ar    1  LIG1        0.0390
      2 C          -2.9269   -2.0658   -0.3579 C.ar    1  LIG1       -0.0406
      3 C          -2.3457   -0.9312    0.1906 C.ar    1  LIG1       -0.0580
      4 C          -3.1177    0.2022    0.3813 C.ar    1  LIG1       -0.0326
      5 C          -4.4646    0.1585   -0.0039 C.ar    1  LIG1        0.1081
      6 N          -5.0299   -0.9403   -0.5192 N.ar    1  LIG1       -0.2487
      7 H          -1.2997   -0.9349    0.4810 H       1  LIG1        0.0619
      8 H          -2.3488   -2.9688   -0.5189 H       1  LIG1        0.0635
      9 C          -4.9841   -3.2320   -1.2600 C.3     1  LIG1       -0.0223
     10 H          -4.3021   -4.0727   -1.4009 H       1  LIG1        0.0292
     11 H          -5.4381   -2.9810   -2.2218 H       1  LIG1        0.0292
     12 H          -5.7941   -3.5456   -0.5962 H       1  LIG1        0.0292
     13 H          -2.7095    1.0851    0.8582 H       1  LIG1        0.0640
     14 C          -5.3191    1.3261    0.1517 C.ar    1  LIG1        0.1743
     15 C          -5.0661    2.6671    0.3142 C.ar    1  LIG1        0.0731
     16 C          -6.3343    3.3078    0.4176 C.ar    1  LIG1        0.0057
     17 C          -7.2747    2.3238    0.3011 C.ar    1  LIG1        0.1411
     18 O          -6.6706    1.1275    0.1321 O.2     1  LIG1       -0.4513
     19 N          -3.8258    3.3013    0.3911 N.pl3   1  LIG1       -0.3550
     20 H          -3.1257    2.8986   -0.2182 H       1  LIG1        0.1424
     21 H          -3.8867    4.2992    0.2432 H       1  LIG1        0.1424
     22 H          -6.5250    4.3593    0.5543 H       1  LIG1        0.0674
     23 C          -9.5110    3.4444    0.5120 C.ar    1  LIG1        0.1281
     24 C         -10.8991    3.3674    0.5259 C.ar    1  LIG1       -0.0104
     25 C          -8.7302    2.2925    0.3120 C.ar    1  LIG1        0.0599
     26 C         -11.5695    2.1628    0.3370 C.ar    1  LIG1        0.0080
     27 H         -11.4807    4.2684    0.7011 H       1  LIG1        0.0661
     28 C          -9.3990    1.0864    0.1163 C.ar    1  LIG1       -0.0296
     29 C         -10.7922    1.0085    0.1230 C.ar    1  LIG1        0.0605
     30 H          -8.8136    0.1915   -0.0558 H       1  LIG1        0.0639
     31 O          -8.8696    4.6230    0.6983 O.3     1  LIG1       -0.5060
     32 H          -9.5155    5.3257    0.8403 H       1  LIG1        0.2922
     33 N         -11.8947   -1.2888   -0.3536 N.1     1  LIG1       -0.1908
     34 C         -11.4136   -0.2593   -0.1382 C.1     1  LIG1        0.0998
     35 C         -13.7834    1.4508    1.3429 C.ar    1  LIG1        0.2202
     36 C         -13.0546    2.1364    0.3484 C.ar    1  LIG1        0.0451
     37 C         -13.7871    2.8354   -0.6013 C.ar    1  LIG1       -0.0446
     38 C         -15.1805    2.8354   -0.5769 C.ar    1  LIG1       -0.0315
     39 C         -15.7707    2.1130    0.4532 C.ar    1  LIG1        0.0343
     40 N         -15.1014    1.4456    1.3906 N.ar    1  LIG1       -0.2207
     41 H         -13.2556    3.3755   -1.3807 H       1  LIG1        0.0628
     42 H         -16.8560    2.0722    0.5303 H       1  LIG1        0.0833
     43 O         -13.1815    0.7703    2.3400 O.3     1  LIG1       -0.4920
     44 H         -12.2226    0.8132    2.2374 H       1  LIG1        0.2937
     45 C         -15.9986    3.5640   -1.6068 C.3     1  LIG1       -0.0383
     46 H         -17.0654    3.4827   -1.3869 H       1  LIG1        0.0278
     47 H         -15.8355    3.1568   -2.6093 H       1  LIG1        0.0278
     48 H         -15.7471    4.6284   -1.6422 H       1  LIG1        0.0278
@<TRIPOS>BOND
     1    47    45    1
     2    11     9    1
     3    48    45    1
     4    45    46    1
     5    45    38    1
     6    10     9    1
     7    41    37    1
     8     9     1    1
     9     9    12    1
    10     1     6   ar
    11     1     2   ar
    12    37    38   ar
    13    37    36   ar
    14    38    39   ar
    15     6     5   ar
    16     8     2    1
    17     2     3   ar
    18    33    34    3
    19    20    19    1
    20    34    29    1
    21    30    28    1
    22     5    14    1
    23     5     4   ar
    24    28    29   ar
    25    28    25   ar
    26    29    26   ar
    27    18    14   ar
    28    18    17   ar
    29    14    15   ar
    30     3     4   ar
    31     3     7    1
    32    21    19    1
    33    17    25    1
    34    17    16   ar
    35    25    23   ar
    36    15    19    1
    37    15    16   ar
    38    26    36    1
    39    26    24   ar
    40    36    35   ar
    41     4    13    1
    42    16    22    1
    43    39    42    1
    44    39    40   ar
    45    23    24   ar
    46    23    31    1
    47    24    27    1
    48    31    32    1
    49    35    40   ar
    50    35    43    1
    51    44    43    1
