@<TRIPOS>MOLECULE
mol_data/opt/cam/geoms/mol2/6ia6ia-6ia-6ia.out
 50 53 0 0 0
SMALL
GASTEIGER

@<TRIPOS>ATOM
      1 C          -4.3677   -2.1647    0.3981 C.ar    1  LIG1        0.0389
      2 C          -3.2477   -2.4083   -0.3957 C.ar    1  LIG1       -0.0406
      3 C          -2.7505   -1.3782   -1.1793 C.ar    1  LIG1       -0.0581
      4 C          -3.3673   -0.1375   -1.1383 C.ar    1  LIG1       -0.0356
      5 C          -4.4714    0.0342   -0.3004 C.ar    1  LIG1        0.0730
      6 N          -4.9613   -0.9700    0.4360 N.ar    1  LIG1       -0.2518
      7 H          -1.8936   -1.5420   -1.8251 H       1  LIG1        0.0619
      8 H          -2.7869   -3.3898   -0.4028 H       1  LIG1        0.0635
      9 C          -4.9705   -3.2348    1.2653 C.3     1  LIG1       -0.0223
     10 H          -4.4856   -4.2009    1.1129 H       1  LIG1        0.0292
     11 H          -6.0371   -3.3372    1.0517 H       1  LIG1        0.0292
     12 H          -4.8790   -2.9626    2.3204 H       1  LIG1        0.0292
     13 H          -3.0158    0.6743   -1.7614 H       1  LIG1        0.0639
     14 C          -4.6322    2.5927   -0.2099 C.ar    1  LIG1        0.0480
     15 C          -5.2220    1.3165   -0.2161 C.ar    1  LIG1        0.0214
     16 C          -6.6110    1.2534   -0.1006 C.ar    1  LIG1       -0.0488
     17 C          -7.3611    2.4114   -0.0455 C.ar    1  LIG1       -0.0350
     18 C          -6.6966    3.6385   -0.0972 C.ar    1  LIG1        0.0730
     19 N          -5.3654    3.7087   -0.1557 N.ar    1  LIG1       -0.2512
     20 H          -7.0809    0.2781   -0.0454 H       1  LIG1        0.0625
     21 C          -3.1438    2.8291   -0.2249 C.3     1  LIG1       -0.0217
     22 H          -2.9395    3.7779    0.2716 H       1  LIG1        0.0293
     23 H          -2.7645    2.9124   -1.2489 H       1  LIG1        0.0293
     24 H          -2.5904    2.0312    0.2722 H       1  LIG1        0.0293
     25 H          -8.4394    2.3723    0.0558 H       1  LIG1        0.0639
     26 C          -7.0792    6.0506    0.6388 C.ar    1  LIG1        0.0480
     27 C          -7.4607    4.9124   -0.1008 C.ar    1  LIG1        0.0214
     28 C          -8.6155    5.0112   -0.8713 C.ar    1  LIG1       -0.0488
     29 C          -9.3520    6.1837   -0.8933 C.ar    1  LIG1       -0.0350
     30 C          -8.9149    7.2554   -0.1191 C.ar    1  LIG1        0.0730
     31 N          -7.7980    7.1726    0.6156 N.ar    1  LIG1       -0.2512
     32 H          -8.9237    4.1686   -1.4824 H       1  LIG1        0.0625
     33 C          -5.8616    6.0860    1.5207 C.3     1  LIG1       -0.0217
     34 H          -5.9148    6.9739    2.1504 H       1  LIG1        0.0293
     35 H          -4.9502    6.1167    0.9207 H       1  LIG1        0.0293
     36 H          -5.7913    5.1935    2.1467 H       1  LIG1        0.0293
     37 H         -10.2288    6.2697   -1.5213 H       1  LIG1        0.0639
     38 C         -11.0003    8.7461   -0.1039 C.ar    1  LIG1        0.0473
     39 C          -9.6038    8.5742   -0.0956 C.ar    1  LIG1        0.0214
     40 C          -8.8091    9.7203   -0.0372 C.ar    1  LIG1       -0.0494
     41 C          -9.3958   10.9726   -0.0385 C.ar    1  LIG1       -0.0430
     42 C         -10.7815   11.0370   -0.0840 C.ar    1  LIG1        0.0279
     43 N         -11.5616    9.9613   -0.1011 N.ar    1  LIG1       -0.2595
     44 H          -7.7330    9.5998    0.0124 H       1  LIG1        0.0625
     45 H         -11.2919   11.9978   -0.0943 H       1  LIG1        0.0829
     46 C         -11.9878    7.6079   -0.0736 C.3     1  LIG1       -0.0217
     47 H         -11.6136    6.7451    0.4797 H       1  LIG1        0.0293
     48 H         -12.2417    7.2725   -1.0849 H       1  LIG1        0.0293
     49 H         -12.9084    7.9663    0.3873 H       1  LIG1        0.0293
     50 H          -8.7988   11.8770   -0.0034 H       1  LIG1        0.0633
@<TRIPOS>BOND
     1     7     3    1
     2    13     4    1
     3    37    29    1
     4    32    28    1
     5    23    21    1
     6     3     4   ar
     7     3     2   ar
     8     4     5   ar
     9    48    46    1
    10    29    28   ar
    11    29    30   ar
    12    28    27   ar
    13     8     2    1
    14     2     1   ar
    15     5    15    1
    16     5     6   ar
    17    21    14    1
    18    21    22    1
    19    21    24    1
    20    15    14   ar
    21    15    16   ar
    22    14    19   ar
    23    19    18   ar
    24    30    39    1
    25    30    31   ar
    26    38    43   ar
    27    38    39   ar
    28    38    46    1
    29    43    42   ar
    30    27    18    1
    31    27    26   ar
    32    16    17   ar
    33    16    20    1
    34    18    17   ar
    35    39    40   ar
    36    45    42    1
    37    42    41   ar
    38    46    49    1
    39    46    47    1
    40    17    25    1
    41    41    40   ar
    42    41    50    1
    43    40    44    1
    44     1     6   ar
    45     1     9    1
    46    31    26   ar
    47    26    33    1
    48    35    33    1
    49    11     9    1
    50    10     9    1
    51     9    12    1
    52    33    36    1
    53    33    34    1
