@<TRIPOS>MOLECULE
mol_data/opt/cam/geoms/mol2/6ia6ia-6ia.out
 38 40 0 0 0
SMALL
GASTEIGER

@<TRIPOS>ATOM
      1 C          -4.4205   -2.1275    0.0456 C.ar    1  LIG1        0.0389
      2 C          -3.0551   -2.1838   -0.2303 C.ar    1  LIG1       -0.0406
      3 C          -2.3813   -1.0022   -0.4986 C.ar    1  LIG1       -0.0581
      4 C          -3.0766    0.1965   -0.4672 C.ar    1  LIG1       -0.0356
      5 C          -4.4388    0.1735   -0.1584 C.ar    1  LIG1        0.0730
      6 N          -5.0889   -0.9726    0.0761 N.ar    1  LIG1       -0.2518
      7 H          -1.3230   -1.0143   -0.7393 H       1  LIG1        0.0619
      8 H          -2.5399   -3.1378   -0.2437 H       1  LIG1        0.0635
      9 C          -5.2228   -3.3677    0.3259 C.3     1  LIG1       -0.0223
     10 H          -4.6093   -4.2687    0.2684 H       1  LIG1        0.0292
     11 H          -6.0439   -3.4564   -0.3902 H       1  LIG1        0.0292
     12 H          -5.6702   -3.3115    1.3216 H       1  LIG1        0.0292
     13 H          -2.5792    1.1283   -0.7012 H       1  LIG1        0.0639
     14 C          -4.8686    2.6480    0.3723 C.ar    1  LIG1        0.0480
     15 C          -5.2791    1.4014   -0.1324 C.ar    1  LIG1        0.0214
     16 C          -6.5796    1.3125   -0.6283 C.ar    1  LIG1       -0.0488
     17 C          -7.4038    2.4211   -0.6442 C.ar    1  LIG1       -0.0350
     18 C          -6.9129    3.6236   -0.1347 C.ar    1  LIG1        0.0730
     19 N          -5.6736    3.7133    0.3574 N.ar    1  LIG1       -0.2512
     20 H          -6.9251    0.3563   -1.0040 H       1  LIG1        0.0625
     21 C          -3.5243    2.8974    1.0068 C.3     1  LIG1       -0.0217
     22 H          -3.6246    3.7234    1.7108 H       1  LIG1        0.0293
     23 H          -2.7803    3.1955    0.2602 H       1  LIG1        0.0293
     24 H          -3.1398    2.0190    1.5274 H       1  LIG1        0.0293
     25 H          -8.3994    2.3592   -1.0630 H       1  LIG1        0.0639
     26 C          -9.0728    4.9812    0.1207 C.ar    1  LIG1        0.0473
     27 C          -7.6945    4.8900   -0.1478 C.ar    1  LIG1        0.0214
     28 C          -7.0072    6.0732   -0.4231 C.ar    1  LIG1       -0.0494
     29 C          -7.6877    7.2761   -0.4740 C.ar    1  LIG1       -0.0430
     30 C          -9.0538    7.2560   -0.2294 C.ar    1  LIG1        0.0279
     31 N          -9.7246    6.1494    0.0732 N.ar    1  LIG1       -0.2595
     32 H          -5.9374    6.0218   -0.5899 H       1  LIG1        0.0625
     33 H          -9.6370    8.1738   -0.2649 H       1  LIG1        0.0829
     34 C          -9.9298    3.8089    0.5235 C.3     1  LIG1       -0.0217
     35 H          -9.3764    3.0642    1.0978 H       1  LIG1        0.0293
     36 H         -10.3564    3.3071   -0.3517 H       1  LIG1        0.0293
     37 H         -10.7634    4.1831    1.1180 H       1  LIG1        0.0293
     38 H          -7.1768    8.2064   -0.6953 H       1  LIG1        0.0633
@<TRIPOS>BOND
     1    25    17    1
     2    20    16    1
     3     7     3    1
     4    13     4    1
     5    38    29    1
     6    17    16   ar
     7    17    18   ar
     8    16    15   ar
     9    32    28    1
    10     3     4   ar
    11     3     2   ar
    12    29    28   ar
    13    29    30   ar
    14     4     5   ar
    15    28    27   ar
    16    11     9    1
    17    36    34    1
    18    33    30    1
    19     8     2    1
    20     2     1   ar
    21    30    31   ar
    22     5    15    1
    23     5     6   ar
    24    27    18    1
    25    27    26   ar
    26    18    19   ar
    27    15    14   ar
    28     1     6   ar
    29     1     9    1
    30    31    26   ar
    31    26    34    1
    32    23    21    1
    33    10     9    1
    34     9    12    1
    35    19    14   ar
    36    14    21    1
    37    34    35    1
    38    34    37    1
    39    21    24    1
    40    21    22    1
