@<TRIPOS>MOLECULE
mol_data/opt/cam/geoms/mol2/6ia6df6di-4ae13ia13ai13ei-12ie-.out
 97 104 0 0 0
SMALL
GASTEIGER

@<TRIPOS>ATOM
      1 C          -4.0357   -2.3785    0.3581 C.ar    1  LIG1        0.0389
      2 C          -2.6744   -2.3652    0.0498 C.ar    1  LIG1       -0.0406
      3 C          -2.0837   -1.1740   -0.3435 C.ar    1  LIG1       -0.0581
      4 C          -2.8600   -0.0271   -0.4197 C.ar    1  LIG1       -0.0356
      5 C          -4.2140   -0.1306   -0.1016 C.ar    1  LIG1        0.0741
      6 N          -4.7822   -1.2762    0.2725 N.ar    1  LIG1       -0.2518
      7 H          -1.0247   -1.1360   -0.5775 H       1  LIG1        0.0619
      8 H          -2.0921   -3.2767    0.1264 H       1  LIG1        0.0635
      9 C          -4.7450   -3.6253    0.8015 C.3     1  LIG1       -0.0223
     10 H          -4.0499   -4.4502    0.9683 H       1  LIG1        0.0292
     11 H          -5.4762   -3.9322    0.0484 H       1  LIG1        0.0292
     12 H          -5.2968   -3.4267    1.7230 H       1  LIG1        0.0292
     13 H          -2.4248    0.9267   -0.6940 H       1  LIG1        0.0639
     14 C          -6.1362    1.2700    0.7764 C.ar    1  LIG1        0.1501
     15 C          -5.1103    1.0512   -0.1627 C.ar    1  LIG1        0.0397
     16 C          -4.9732    1.9917   -1.1745 C.ar    1  LIG1       -0.0061
     17 C          -5.8229    3.0873   -1.2302 C.ar    1  LIG1        0.1435
     18 C          -6.8109    3.2202   -0.2424 C.ar    1  LIG1        0.1165
     19 N          -6.9502    2.3219    0.7256 N.ar    1  LIG1       -0.2319
     20 H          -4.2293    1.8706   -1.9533 H       1  LIG1        0.0662
     21 N          -6.5224   -0.2205    2.8704 N.1     1  LIG1       -0.1893
     22 C          -6.3422    0.4047    1.9155 C.1     1  LIG1        0.1198
     23 O          -5.6595    3.9654   -2.2452 O.3     1  LIG1       -0.5046
     24 H          -6.3967    4.5906   -2.2577 H       1  LIG1        0.2922
     25 C          -9.1296    4.2340   -0.1772 C.ar    1  LIG1        0.1500
     26 C          -7.7378    4.3807   -0.2323 C.ar    1  LIG1        0.0401
     27 C          -7.2619    5.6897   -0.2233 C.ar    1  LIG1       -0.0448
     28 C          -8.1181    6.7853   -0.1731 C.ar    1  LIG1       -0.0238
     29 C          -9.5022    6.5143   -0.1500 C.ar    1  LIG1        0.0754
     30 N          -9.9697    5.2620   -0.1370 N.ar    1  LIG1       -0.2354
     31 H          -6.1885    5.8603   -0.2102 H       1  LIG1        0.0628
     32 N         -10.2673    1.8974   -0.2661 N.1     1  LIG1       -0.1893
     33 C          -9.7479    2.9272   -0.2039 C.1     1  LIG1        0.1198
     34 C          -7.5298    8.1682   -0.0856 C.3     1  LIG1       -0.0377
     35 H          -8.1448    8.8293    0.5265 H       1  LIG1        0.0278
     36 H          -7.4317    8.6327   -1.0718 H       1  LIG1        0.0278
     37 H          -6.5302    8.1250    0.3520 H       1  LIG1        0.0278
     38 C         -10.4849    8.7488   -0.8368 C.ar    1  LIG1       -0.0519
     39 C         -11.5115    9.6752   -0.7850 C.ar    1  LIG1       -0.0508
     40 C         -10.5510    7.5650   -0.0992 C.ar    1  LIG1        0.0018
     41 C         -12.6445    9.4914    0.0187 C.ar    1  LIG1        0.0140
     42 H         -11.4535   10.5547   -1.4123 H       1  LIG1        0.0625
     43 C         -11.6890    7.3429    0.6709 C.ar    1  LIG1       -0.0365
     44 C         -12.7192    8.2811    0.7529 C.ar    1  LIG1        0.0344
     45 H         -11.7772    6.4161    1.2246 H       1  LIG1        0.0636
     46 H          -9.6491    8.9347   -1.5008 H       1  LIG1        0.0624
     47 C         -13.8154    7.9590    1.6207 C.1     1  LIG1       -0.0690
     48 C         -14.7134    7.6381    2.3578 C.1     1  LIG1       -0.1139
     49 H         -15.4860    7.3614    3.0385 H       1  LIG1        0.1232
     50 C         -13.6775   10.5244    0.0450 C.ar    1  LIG1        0.0511
     51 C         -13.5861   11.9019   -0.1351 C.ar    1  LIG1       -0.0245
     52 C         -14.8954   12.4225   -0.0187 C.ar    1  LIG1       -0.0315
     53 C         -15.7581   11.3747    0.2294 C.ar    1  LIG1        0.0636
     54 N         -15.0094   10.2318    0.2549 N.ar    1  LIG1       -0.3528
     55 H         -15.3334    9.3409    0.5993 H       1  LIG1        0.1660
     56 C         -12.3630   12.7330   -0.3790 C.3     1  LIG1       -0.0377
     57 H         -12.5261   13.7523   -0.0210 H       1  LIG1        0.0278
     58 H         -12.1113   12.8046   -1.4434 H       1  LIG1        0.0278
     59 H         -11.4876   12.3345    0.1396 H       1  LIG1        0.0278
     60 H         -15.1829   13.4584   -0.1285 H       1  LIG1        0.0642
     61 C         -17.1928   11.3540    0.4259 C.ar    1  LIG1        0.0636
     62 C         -18.0461   12.2967    0.9504 C.ar    1  LIG1       -0.0314
     63 C         -19.3705   11.7839    0.9011 C.ar    1  LIG1       -0.0231
     64 C         -19.2898   10.5265    0.3361 C.ar    1  LIG1        0.0675
     65 N         -17.9536   10.2588    0.0833 N.ar    1  LIG1       -0.3516
     66 H         -17.6503    9.5570   -0.5743 H       1  LIG1        0.1660
     67 H         -17.7439   13.2426    1.3770 H       1  LIG1        0.0642
     68 C         -20.5975   12.4592    1.4265 C.3     1  LIG1       -0.0376
     69 H         -21.3759   11.7332    1.6690 H       1  LIG1        0.0278
     70 H         -21.0240   13.1486    0.6919 H       1  LIG1        0.0278
     71 H         -20.3676   13.0312    2.3294 H       1  LIG1        0.0278
     72 C         -20.2988    9.5236    0.0578 C.ar    1  LIG1        0.0795
     73 C         -21.5672    9.6110   -0.5042 C.ar    1  LIG1        0.0549
     74 C         -22.1265    8.2935   -0.5405 C.ar    1  LIG1       -0.0061
     75 C         -21.1717    7.4425   -0.0287 C.ar    1  LIG1        0.0870
     76 N         -20.0727    8.2011    0.3198 N.ar    1  LIG1       -0.3494
     77 H         -19.2921    7.8479    0.8499 H       1  LIG1        0.1661
     78 C         -22.1981   10.7806   -1.0058 C.1     1  LIG1       -0.0672
     79 C         -22.7603   11.7508   -1.4475 C.1     1  LIG1       -0.1138
     80 H         -23.2479   12.6111   -1.8436 H       1  LIG1        0.1232
     81 C         -23.5030    7.9546   -1.0124 C.3     1  LIG1       -0.0364
     82 H         -23.8382    7.0030   -0.5950 H       1  LIG1        0.0279
     83 H         -23.5598    7.8816   -2.1034 H       1  LIG1        0.0279
     84 H         -24.2082    8.7319   -0.7083 H       1  LIG1        0.0279
     85 C         -21.1662    6.0114    0.1959 C.ar    1  LIG1        0.1552
     86 C         -21.6078    4.9346   -0.5106 C.ar    1  LIG1        0.0121
     87 C         -21.2712    3.7796    0.2891 C.ar    1  LIG1        0.0659
     88 C         -20.6359    4.2508    1.3955 C.ar    1  LIG1        0.1082
     89 O         -20.5627    5.5971    1.3606 O.2     1  LIG1       -0.4599
     90 H         -20.1989    3.7611    2.2509 H       1  LIG1        0.1042
     91 C         -22.2422    4.9012   -1.8614 C.3     1  LIG1       -0.0349
     92 H         -21.8348    4.0750   -2.4494 H       1  LIG1        0.0279
     93 H         -22.0616    5.8328   -2.4002 H       1  LIG1        0.0279
     94 H         -23.3245    4.7506   -1.8006 H       1  LIG1        0.0279
     95 C         -21.5275    2.4203   -0.0386 C.1     1  LIG1       -0.0662
     96 C         -21.7513    1.2754   -0.3354 C.1     1  LIG1       -0.1138
     97 H         -21.9454    0.2592   -0.5908 H       1  LIG1        0.1232
@<TRIPOS>BOND
     1    92    91    1
     2    93    91    1
     3    24    23    1
     4    23    17    1
     5    83    81    1
     6    20    16    1
     7    91    94    1
     8    91    86    1
     9    80    79    1
    10    46    38    1
    11    79    78    3
    12    58    56    1
    13    42    39    1
    14    17    16   ar
    15    17    18   ar
    16    16    15   ar
    17    36    34    1
    18    81    84    1
    19    81    82    1
    20    81    74    1
    21    78    73    1
    22    38    39   ar
    23    38    40   ar
    24    39    41   ar
    25    13     4    1
    26    97    96    1
    27     7     3    1
    28    66    65    1
    29    74    73   ar
    30    74    75   ar
    31    86    85   ar
    32    86    87   ar
    33    73    72   ar
    34     4     3   ar
    35     4     5   ar
    36    56    51    1
    37    56    57    1
    38    56    59    1
    39     3     2   ar
    40    96    95    3
    41    32    33    3
    42    18    26    1
    43    18    19   ar
    44    26    27   ar
    45    26    25   ar
    46    27    31    1
    47    27    28   ar
    48    33    25    1
    49    25    30   ar
    50    28    29   ar
    51    28    34    1
    52    15     5    1
    53    15    14   ar
    54    29    30   ar
    55    29    40    1
    56    51    52   ar
    57    51    50   ar
    58    60    52    1
    59     5     6   ar
    60    40    43   ar
    61    34    37    1
    62    34    35    1
    63    95    87    1
    64    75    85    1
    65    75    76   ar
    66    52    53   ar
    67    41    50    1
    68    41    44   ar
    69    50    54   ar
    70    11     9    1
    71     2     8    1
    72     2     1   ar
    73    72    76   ar
    74    72    64    1
    75    65    64   ar
    76    65    61   ar
    77    85    89   ar
    78    53    54   ar
    79    53    61    1
    80    54    55    1
    81     6     1   ar
    82    87    88   ar
    83    76    77    1
    84    64    63   ar
    85     1     9    1
    86    61    62   ar
    87    43    44   ar
    88    43    45    1
    89    70    68    1
    90    19    14   ar
    91    44    47    1
    92    14    22    1
    93     9    10    1
    94     9    12    1
    95    63    62   ar
    96    63    68    1
    97    62    67    1
    98    89    88   ar
    99    88    90    1
   100    68    69    1
   101    68    71    1
   102    47    48    3
   103    22    21    3
   104    48    49    1
