@<TRIPOS>MOLECULE
mol_data/opt/cam/geoms/mol2/6ia6ia6ia-6ia-.out
 50 53 0 0 0
SMALL
GASTEIGER

@<TRIPOS>ATOM
      1 C          -4.5020   -2.3359   -0.1943 C.ar    1  LIG1        0.0389
      2 C          -3.1085   -2.3428   -0.1658 C.ar    1  LIG1       -0.0406
      3 C          -2.4350   -1.1321   -0.0959 C.ar    1  LIG1       -0.0581
      4 C          -3.1661    0.0443   -0.0645 C.ar    1  LIG1       -0.0356
      5 C          -4.5611   -0.0323   -0.1089 C.ar    1  LIG1        0.0730
      6 N          -5.2062   -1.2010   -0.1668 N.ar    1  LIG1       -0.2518
      7 H          -1.3505   -1.1064   -0.0591 H       1  LIG1        0.0619
      8 H          -2.5680   -3.2824   -0.1913 H       1  LIG1        0.0635
      9 C          -5.2983   -3.6093   -0.2600 C.3     1  LIG1       -0.0223
     10 H          -4.6535   -4.4892   -0.2992 H       1  LIG1        0.0292
     11 H          -5.9427   -3.6066   -1.1428 H       1  LIG1        0.0292
     12 H          -5.9506   -3.6928    0.6134 H       1  LIG1        0.0292
     13 H          -2.6736    1.0067    0.0116 H       1  LIG1        0.0639
     14 C          -6.5623    1.3609    0.6341 C.ar    1  LIG1        0.0480
     15 C          -5.3805    1.2080   -0.1195 C.ar    1  LIG1        0.0214
     16 C          -4.9858    2.2823   -0.9106 C.ar    1  LIG1       -0.0488
     17 C          -5.7308    3.4498   -0.9393 C.ar    1  LIG1       -0.0350
     18 C          -6.8761    3.5242   -0.1508 C.ar    1  LIG1        0.0730
     19 N          -7.2691    2.4899    0.6045 N.ar    1  LIG1       -0.2512
     20 H          -4.1011    2.1917   -1.5330 H       1  LIG1        0.0625
     21 C          -7.1021    0.2861    1.5370 C.3     1  LIG1       -0.0217
     22 H          -6.3198   -0.1338    2.1740 H       1  LIG1        0.0293
     23 H          -7.5052   -0.5432    0.9530 H       1  LIG1        0.0293
     24 H          -7.8883    0.7154    2.1575 H       1  LIG1        0.0293
     25 H          -5.4420    4.2690   -1.5841 H       1  LIG1        0.0639
     26 C          -7.3430    6.0464   -0.1818 C.ar    1  LIG1        0.0480
     27 C          -7.7747    4.7090   -0.1333 C.ar    1  LIG1        0.0214
     28 C          -9.1482    4.4843   -0.0303 C.ar    1  LIG1       -0.0488
     29 C         -10.0325    5.5447   -0.0394 C.ar    1  LIG1       -0.0350
     30 C          -9.5197    6.8393   -0.1434 C.ar    1  LIG1        0.0730
     31 N          -8.2058    7.0668   -0.1900 N.ar    1  LIG1       -0.2512
     32 H          -9.4976    3.4629    0.0663 H       1  LIG1        0.0625
     33 C          -5.8942    6.4615   -0.1903 C.3     1  LIG1       -0.0217
     34 H          -5.8178    7.4558    0.2501 H       1  LIG1        0.0293
     35 H          -5.5054    6.5302   -1.2119 H       1  LIG1        0.0293
     36 H          -5.2590    5.7679    0.3627 H       1  LIG1        0.0293
     37 H         -11.1001    5.3807    0.0509 H       1  LIG1        0.0639
     38 C         -10.2054    9.2111    0.4866 C.ar    1  LIG1        0.0473
     39 C         -10.4305    8.0116   -0.2202 C.ar    1  LIG1        0.0214
     40 C         -11.5672    7.9328   -1.0214 C.ar    1  LIG1       -0.0494
     41 C         -12.4296    9.0140   -1.1162 C.ar    1  LIG1       -0.0430
     42 C         -12.1164   10.1510   -0.3894 C.ar    1  LIG1        0.0279
     43 N         -11.0431   10.2477    0.3931 N.ar    1  LIG1       -0.2595
     44 H         -11.7603    7.0263   -1.5867 H       1  LIG1        0.0625
     45 H         -12.7569   11.0293   -0.4315 H       1  LIG1        0.0829
     46 C          -9.0346    9.4116    1.4088 C.3     1  LIG1       -0.0217
     47 H          -9.2157   10.3038    2.0080 H       1  LIG1        0.0293
     48 H          -8.1111    9.5366    0.8403 H       1  LIG1        0.0293
     49 H          -8.8830    8.5509    2.0643 H       1  LIG1        0.0293
     50 H         -13.3153    8.9783   -1.7404 H       1  LIG1        0.0633
@<TRIPOS>BOND
     1    50    41    1
     2    44    40    1
     3    25    17    1
     4    20    16    1
     5    35    33    1
     6    11     9    1
     7    41    40   ar
     8    41    42   ar
     9    40    39   ar
    10    17    16   ar
    11    17    18   ar
    12    16    15   ar
    13    45    42    1
    14    42    43   ar
    15    10     9    1
    16     9     1    1
    17     9    12    1
    18    39    30    1
    19    39    38   ar
    20     1     6   ar
    21     1     2   ar
    22     8     2    1
    23    33    26    1
    24    33    34    1
    25    33    36    1
    26    31    26   ar
    27    31    30   ar
    28    26    27   ar
    29     6     5   ar
    30     2     3   ar
    31    18    27    1
    32    18    19   ar
    33    30    29   ar
    34    27    28   ar
    35    15     5    1
    36    15    14   ar
    37     5     4   ar
    38     3     4   ar
    39     3     7    1
    40     4    13    1
    41    29    28   ar
    42    29    37    1
    43    28    32    1
    44    43    38   ar
    45    38    46    1
    46    19    14   ar
    47    14    21    1
    48    48    46    1
    49    23    21    1
    50    46    47    1
    51    46    49    1
    52    21    24    1
    53    21    22    1
