@<TRIPOS>MOLECULE
mol_data/opt/cam/geoms/mol2/6ia6ia6ia-6ia.out
 50 53 0 0 0
SMALL
GASTEIGER

@<TRIPOS>ATOM
      1 C          -4.2944   -2.2309   -0.4461 C.ar    1  LIG1        0.0389
      2 C          -2.9712   -2.2420   -0.0079 C.ar    1  LIG1       -0.0406
      3 C          -2.4188   -1.0672    0.4811 C.ar    1  LIG1       -0.0581
      4 C          -3.1948    0.0801    0.5116 C.ar    1  LIG1       -0.0356
      5 C          -4.5099    0.0122    0.0427 C.ar    1  LIG1        0.0730
      6 N          -5.0412   -1.1236   -0.4187 N.ar    1  LIG1       -0.2518
      7 H          -1.3952   -1.0482    0.8417 H       1  LIG1        0.0619
      8 H          -2.3928   -3.1584   -0.0454 H       1  LIG1        0.0635
      9 C          -4.9609   -3.4676   -0.9813 C.3     1  LIG1       -0.0223
     10 H          -4.2908   -4.3291   -0.9642 H       1  LIG1        0.0292
     11 H          -5.2931   -3.3027   -2.0096 H       1  LIG1        0.0292
     12 H          -5.8499   -3.7035   -0.3906 H       1  LIG1        0.0292
     13 H          -2.8028    1.0099    0.9068 H       1  LIG1        0.0639
     14 C          -6.7182    1.2339    0.4031 C.ar    1  LIG1        0.0480
     15 C          -5.3615    1.2305    0.0195 C.ar    1  LIG1        0.0214
     16 C          -4.8168    2.4380   -0.4059 C.ar    1  LIG1       -0.0488
     17 C          -5.5874    3.5887   -0.4373 C.ar    1  LIG1       -0.0350
     18 C          -6.9147    3.5087   -0.0237 C.ar    1  LIG1        0.0730
     19 N          -7.4497    2.3471    0.3754 N.ar    1  LIG1       -0.2512
     20 H          -3.7858    2.4700   -0.7442 H       1  LIG1        0.0625
     21 C          -7.4344    0.0043    0.8899 C.3     1  LIG1       -0.0217
     22 H          -6.8502   -0.5289    1.6439 H       1  LIG1        0.0293
     23 H          -7.5985   -0.6978    0.0707 H       1  LIG1        0.0293
     24 H          -8.3919    0.3050    1.3144 H       1  LIG1        0.0293
     25 H          -5.1712    4.5169   -0.8049 H       1  LIG1        0.0639
     26 C          -7.5013    5.9902    0.2713 C.ar    1  LIG1        0.0480
     27 C          -7.8480    4.6660   -0.0518 C.ar    1  LIG1        0.0214
     28 C          -9.1744    4.4251   -0.4103 C.ar    1  LIG1       -0.0488
     29 C         -10.0860    5.4613   -0.4711 C.ar    1  LIG1       -0.0350
     30 C          -9.6552    6.7480   -0.1466 C.ar    1  LIG1        0.0730
     31 N          -8.3902    6.9849    0.2142 N.ar    1  LIG1       -0.2512
     32 H          -9.4694    3.4086   -0.6436 H       1  LIG1        0.0625
     33 C          -6.1335    6.4098    0.7455 C.3     1  LIG1       -0.0217
     34 H          -6.2410    7.3099    1.3507 H       1  LIG1        0.0293
     35 H          -5.4788    6.6601   -0.0963 H       1  LIG1        0.0293
     36 H          -5.6400    5.6326    1.3313 H       1  LIG1        0.0293
     37 H         -11.1049    5.2782   -0.7854 H       1  LIG1        0.0639
     38 C         -11.8904    7.9658    0.1585 C.ar    1  LIG1        0.0473
     39 C         -10.5373    7.9438   -0.2270 C.ar    1  LIG1        0.0214
     40 C          -9.9769    9.1329   -0.6963 C.ar    1  LIG1       -0.0494
     41 C         -10.7571   10.2685   -0.8167 C.ar    1  LIG1       -0.0430
     42 C         -12.0908   10.1783   -0.4434 C.ar    1  LIG1        0.0279
     43 N         -12.6389    9.0695    0.0427 N.ar    1  LIG1       -0.2595
     44 H          -8.9247    9.1400   -0.9569 H       1  LIG1        0.0625
     45 H         -12.7492   11.0405   -0.5259 H       1  LIG1        0.0829
     46 C         -12.6094    6.7901    0.7684 C.3     1  LIG1       -0.0217
     47 H         -11.9492    6.1613    1.3678 H       1  LIG1        0.0293
     48 H         -13.0650    6.1580   -0.0013 H       1  LIG1        0.0293
     49 H         -13.4179    7.1703    1.3929 H       1  LIG1        0.0293
     50 H         -10.3461   11.2007   -1.1878 H       1  LIG1        0.0633
@<TRIPOS>BOND
     1    11     9    1
     2    50    41    1
     3     9    10    1
     4     9     1    1
     5     9    12    1
     6    44    40    1
     7    41    40   ar
     8    41    42   ar
     9    25    17    1
    10    37    29    1
    11    20    16    1
    12    40    39   ar
    13    32    28    1
    14    45    42    1
    15    29    28   ar
    16    29    30   ar
    17     1     6   ar
    18     1     2   ar
    19    42    43   ar
    20    17    16   ar
    21    17    18   ar
    22     6     5   ar
    23    28    27   ar
    24    16    15   ar
    25    39    30    1
    26    39    38   ar
    27    30    31   ar
    28    35    33    1
    29    27    18    1
    30    27    26   ar
    31     8     2    1
    32    18    19   ar
    33     2     3   ar
    34    48    46    1
    35    15     5    1
    36    15    14   ar
    37     5     4   ar
    38    43    38   ar
    39    23    21    1
    40    38    46    1
    41    31    26   ar
    42    26    33    1
    43    19    14   ar
    44    14    21    1
    45     3     4   ar
    46     3     7    1
    47     4    13    1
    48    33    36    1
    49    33    34    1
    50    46    47    1
    51    46    49    1
    52    21    24    1
    53    21    22    1
