@<TRIPOS>MOLECULE
mol_data/opt/cam/geoms/mol2/6ia6ia6ia.out
 38 40 0 0 0
SMALL
GASTEIGER

@<TRIPOS>ATOM
      1 C          -4.1069   -2.0332   -0.5434 C.ar    1  LIG1        0.0389
      2 C          -3.0048   -2.1129    0.3063 C.ar    1  LIG1       -0.0406
      3 C          -2.7344   -1.0471    1.1522 C.ar    1  LIG1       -0.0581
      4 C          -3.5613    0.0641    1.1211 C.ar    1  LIG1       -0.0356
      5 C          -4.6395    0.0723    0.2317 C.ar    1  LIG1        0.0730
      6 N          -4.9021   -0.9603   -0.5748 N.ar    1  LIG1       -0.2518
      7 H          -1.8912   -1.0857    1.8345 H       1  LIG1        0.0619
      8 H          -2.3790   -2.9984    0.3051 H       1  LIG1        0.0635
      9 C          -4.4662   -3.1528   -1.4802 C.3     1  LIG1       -0.0223
     10 H          -3.7684   -3.9884   -1.3999 H       1  LIG1        0.0292
     11 H          -4.4678   -2.7952   -2.5131 H       1  LIG1        0.0292
     12 H          -5.4743   -3.5168   -1.2650 H       1  LIG1        0.0292
     13 H          -3.3923    0.9053    1.7831 H       1  LIG1        0.0639
     14 C          -6.9309    1.1701    0.0510 C.ar    1  LIG1        0.0480
     15 C          -5.5269    1.2613    0.1364 C.ar    1  LIG1        0.0214
     16 C          -4.9667    2.5355    0.1394 C.ar    1  LIG1       -0.0488
     17 C          -5.7734    3.6566    0.0419 C.ar    1  LIG1       -0.0350
     18 C          -7.1510    3.4748   -0.0592 C.ar    1  LIG1        0.0730
     19 N          -7.7003    2.2555   -0.0409 N.ar    1  LIG1       -0.2512
     20 H          -3.8888    2.6465    0.2037 H       1  LIG1        0.0625
     21 C          -7.6668   -0.1412    0.0755 C.3     1  LIG1       -0.0217
     22 H          -7.3026   -0.7926    0.8737 H       1  LIG1        0.0293
     23 H          -7.5206   -0.6837   -0.8602 H       1  LIG1        0.0293
     24 H          -8.7286    0.0571    0.2197 H       1  LIG1        0.0293
     25 H          -5.3471    4.6529    0.0546 H       1  LIG1        0.0639
     26 C          -9.2736    4.7685    0.4913 C.ar    1  LIG1        0.0473
     27 C          -8.0604    4.6403   -0.2160 C.ar    1  LIG1        0.0214
     28 C          -7.7075    5.6629   -1.0932 C.ar    1  LIG1       -0.0494
     29 C          -8.5426    6.7571   -1.2592 C.ar    1  LIG1       -0.0430
     30 C          -9.7167    6.7865   -0.5247 C.ar    1  LIG1        0.0279
     31 N         -10.0711    5.8279    0.3293 N.ar    1  LIG1       -0.2595
     32 H          -6.7855    5.5852   -1.6610 H       1  LIG1        0.0625
     33 H         -10.4093    7.6200   -0.6206 H       1  LIG1        0.0829
     34 C          -9.7504    3.7489    1.4885 C.3     1  LIG1       -0.0217
     35 H          -8.9498    3.4383    2.1641 H       1  LIG1        0.0293
     36 H         -10.0984    2.8463    0.9827 H       1  LIG1        0.0293
     37 H         -10.5688    4.1827    2.0627 H       1  LIG1        0.0293
     38 H          -8.2933    7.5603   -1.9433 H       1  LIG1        0.0633
@<TRIPOS>BOND
     1    11     9    1
     2    38    29    1
     3    32    28    1
     4     9    10    1
     5     9    12    1
     6     9     1    1
     7    29    28   ar
     8    29    30   ar
     9    28    27   ar
    10    23    21    1
    11    33    30    1
    12     6     1   ar
    13     6     5   ar
    14     1     2   ar
    15    30    31   ar
    16    27    18    1
    17    27    26   ar
    18    18    19   ar
    19    18    17   ar
    20    19    14   ar
    21    17    25    1
    22    17    16   ar
    23    14    21    1
    24    14    15   ar
    25    21    24    1
    26    21    22    1
    27    15    16   ar
    28    15     5    1
    29    16    20    1
    30     5     4   ar
    31     8     2    1
    32     2     3   ar
    33    31    26   ar
    34    26    34    1
    35    36    34    1
    36     4     3   ar
    37     4    13    1
    38     3     7    1
    39    34    37    1
    40    34    35    1
