@<TRIPOS>MOLECULE
mol_data/opt/cam/geoms/mol2/6ia6ia-.out
 26 27 0 0 0
SMALL
GASTEIGER

@<TRIPOS>ATOM
      1 C          -4.4913   -2.0497    0.1721 C.ar    1  LIG1        0.0389
      2 C          -3.1632   -2.1246   -0.2446 C.ar    1  LIG1       -0.0406
      3 C          -2.5300   -0.9634   -0.6611 C.ar    1  LIG1       -0.0581
      4 C          -3.2267    0.2346   -0.6348 C.ar    1  LIG1       -0.0356
      5 C          -4.5481    0.2320   -0.1819 C.ar    1  LIG1        0.0730
      6 N          -5.1612   -0.8954    0.1966 N.ar    1  LIG1       -0.2518
      7 H          -1.5035   -0.9917   -1.0127 H       1  LIG1        0.0619
      8 H          -2.6458   -3.0775   -0.2503 H       1  LIG1        0.0635
      9 C          -5.2487   -3.2673    0.6242 C.3     1  LIG1       -0.0223
     10 H          -4.6565   -4.1776    0.5126 H       1  LIG1        0.0292
     11 H          -6.1709   -3.3737    0.0477 H       1  LIG1        0.0292
     12 H          -5.5365   -3.1655    1.6740 H       1  LIG1        0.0292
     13 H          -2.7646    1.1498   -0.9807 H       1  LIG1        0.0639
     14 C          -4.9280    2.7318    0.2419 C.ar    1  LIG1        0.0473
     15 C          -5.3874    1.4617   -0.1515 C.ar    1  LIG1        0.0214
     16 C          -6.7295    1.3404   -0.5148 C.ar    1  LIG1       -0.0494
     17 C          -7.5486    2.4546   -0.5281 C.ar    1  LIG1       -0.0430
     18 C          -6.9913    3.6704   -0.1569 C.ar    1  LIG1        0.0279
     19 N          -5.7273    3.8056    0.2303 N.ar    1  LIG1       -0.2595
     20 H          -7.1061    0.3590   -0.7793 H       1  LIG1        0.0625
     21 H          -7.5907    4.5784   -0.1576 H       1  LIG1        0.0829
     22 C          -3.5340    3.0026    0.7472 C.3     1  LIG1       -0.0217
     23 H          -3.5736    3.8634    1.4148 H       1  LIG1        0.0293
     24 H          -2.8555    3.2608   -0.0729 H       1  LIG1        0.0293
     25 H          -3.1077    2.1489    1.2764 H       1  LIG1        0.0293
     26 H          -8.5917    2.3866   -0.8158 H       1  LIG1        0.0633
@<TRIPOS>BOND
     1     7     3    1
     2    13     4    1
     3    26    17    1
     4    20    16    1
     5     3     4   ar
     6     3     2   ar
     7     4     5   ar
     8    17    16   ar
     9    17    18   ar
    10    16    15   ar
    11     8     2    1
    12     2     1   ar
    13     5    15    1
    14     5     6   ar
    15    21    18    1
    16    18    19   ar
    17    15    14   ar
    18    24    22    1
    19    11     9    1
    20     1     6   ar
    21     1     9    1
    22    19    14   ar
    23    14    22    1
    24    10     9    1
    25     9    12    1
    26    22    25    1
    27    22    23    1
