@<TRIPOS>MOLECULE
mol_data/opt/cam/geoms/mol2/6ia6ia-6ia-6ia-.out
 50 53 0 0 0
SMALL
GASTEIGER

@<TRIPOS>ATOM
      1 C          -4.3086   -2.1007    0.6949 C.ar    1  LIG1        0.0389
      2 C          -3.4851   -2.5414   -0.3403 C.ar    1  LIG1       -0.0406
      3 C          -3.2459   -1.6906   -1.4085 C.ar    1  LIG1       -0.0581
      4 C          -3.8149   -0.4266   -1.4085 C.ar    1  LIG1       -0.0356
      5 C          -4.6097   -0.0496   -0.3237 C.ar    1  LIG1        0.0730
      6 N          -4.8563   -0.8837    0.6934 N.ar    1  LIG1       -0.2518
      7 H          -2.6279   -2.0121   -2.2408 H       1  LIG1        0.0619
      8 H          -3.0531   -3.5355   -0.3085 H       1  LIG1        0.0635
      9 C          -4.6235   -2.9706    1.8800 C.3     1  LIG1       -0.0223
     10 H          -4.2184   -3.9774    1.7625 H       1  LIG1        0.0292
     11 H          -5.7047   -3.0387    2.0214 H       1  LIG1        0.0292
     12 H          -4.2073   -2.5330    2.7917 H       1  LIG1        0.0292
     13 H          -3.6667    0.2447   -2.2440 H       1  LIG1        0.0639
     14 C          -4.7270    2.4914   -0.6586 C.ar    1  LIG1        0.0480
     15 C          -5.2927    1.2706   -0.2501 C.ar    1  LIG1        0.0214
     16 C          -6.5768    1.3113    0.2941 C.ar    1  LIG1       -0.0488
     17 C          -7.2701    2.5036    0.3618 C.ar    1  LIG1       -0.0350
     18 C          -6.6523    3.6610   -0.1164 C.ar    1  LIG1        0.0730
     19 N          -5.4051    3.6409   -0.5898 N.ar    1  LIG1       -0.2512
     20 H          -7.0080    0.3901    0.6687 H       1  LIG1        0.0625
     21 C          -3.3163    2.6341   -1.1692 C.3     1  LIG1       -0.0217
     22 H          -2.9683    3.6426   -0.9449 H       1  LIG1        0.0293
     23 H          -3.2722    2.5119   -2.2566 H       1  LIG1        0.0293
     24 H          -2.6364    1.9065   -0.7237 H       1  LIG1        0.0293
     25 H          -8.2634    2.5464    0.7932 H       1  LIG1        0.0639
     26 C          -6.7807    6.1810    0.2468 C.ar    1  LIG1        0.0480
     27 C          -7.3758    4.9586   -0.1261 C.ar    1  LIG1        0.0214
     28 C          -8.7135    4.9888   -0.5111 C.ar    1  LIG1       -0.0488
     29 C          -9.4085    6.1856   -0.5404 C.ar    1  LIG1       -0.0350
     30 C          -8.7366    7.3508   -0.1770 C.ar    1  LIG1        0.0730
     31 N          -7.4588    7.3291    0.2167 N.ar    1  LIG1       -0.2512
     32 H          -9.2068    4.0673   -0.8041 H       1  LIG1        0.0625
     33 C          -5.3576    6.2877    0.7211 C.3     1  LIG1       -0.0217
     34 H          -5.2131    7.2699    1.1706 H       1  LIG1        0.0293
     35 H          -4.6629    6.1637   -0.1117 H       1  LIG1        0.0293
     36 H          -5.1144    5.5094    1.4481 H       1  LIG1        0.0293
     37 H         -10.4528    6.2171   -0.8283 H       1  LIG1        0.0639
     38 C          -9.3051    9.6426    0.7759 C.ar    1  LIG1        0.0473
     39 C          -9.4188    8.6702   -0.2391 C.ar    1  LIG1        0.0214
     40 C         -10.2147    8.9707   -1.3417 C.ar    1  LIG1       -0.0494
     41 C         -10.8569   10.1967   -1.4239 C.ar    1  LIG1       -0.0430
     42 C         -10.6762   11.0878   -0.3787 C.ar    1  LIG1        0.0279
     43 N          -9.9302   10.8203    0.6916 N.ar    1  LIG1       -0.2595
     44 H         -10.3100    8.2467   -2.1451 H       1  LIG1        0.0625
     45 H         -11.1540   12.0651   -0.3952 H       1  LIG1        0.0829
     46 C          -8.5013    9.4273    2.0284 C.3     1  LIG1       -0.0217
     47 H          -8.7604   10.2070    2.7443 H       1  LIG1        0.0293
     48 H          -7.4318    9.4699    1.8140 H       1  LIG1        0.0293
     49 H          -8.6918    8.4451    2.4676 H       1  LIG1        0.0293
     50 H         -11.4739   10.4561   -2.2767 H       1  LIG1        0.0633
@<TRIPOS>BOND
     1    50    41    1
     2    23    21    1
     3    13     4    1
     4     7     3    1
     5    44    40    1
     6    41    40   ar
     7    41    42   ar
     8     4     3   ar
     9     4     5   ar
    10     3     2   ar
    11    40    39   ar
    12    21    22    1
    13    21    24    1
    14    21    14    1
    15    37    29    1
    16    32    28    1
    17    14    19   ar
    18    14    15   ar
    19    19    18   ar
    20    29    28   ar
    21    29    30   ar
    22    28    27   ar
    23    45    42    1
    24    42    43   ar
    25     2     8    1
    26     2     1   ar
    27     5    15    1
    28     5     6   ar
    29    15    16   ar
    30    39    30    1
    31    39    38   ar
    32    30    31   ar
    33    27    18    1
    34    27    26   ar
    35    18    17   ar
    36    35    33    1
    37    31    26   ar
    38    26    33    1
    39    16    17   ar
    40    16    20    1
    41    17    25    1
    42    43    38   ar
    43     6     1   ar
    44     1     9    1
    45    33    34    1
    46    33    36    1
    47    38    46    1
    48    10     9    1
    49    48    46    1
    50     9    11    1
    51     9    12    1
    52    46    49    1
    53    46    47    1
