@<TRIPOS>MOLECULE
mol_data/opt/cam/geoms/mol2/6ia6ia6ia6ia-.out
 50 53 0 0 0
SMALL
GASTEIGER

@<TRIPOS>ATOM
      1 C          -4.0531   -2.0948   -0.6831 C.ar    1  LIG1        0.0389
      2 C          -2.9178   -2.1905    0.1200 C.ar    1  LIG1       -0.0406
      3 C          -2.6272   -1.1528    0.9935 C.ar    1  LIG1       -0.0581
      4 C          -3.4676   -0.0522    1.0352 C.ar    1  LIG1       -0.0356
      5 C          -4.5796   -0.0260    0.1887 C.ar    1  LIG1        0.0730
      6 N          -4.8614   -1.0320   -0.6443 N.ar    1  LIG1       -0.2518
      7 H          -1.7577   -1.2050    1.6410 H       1  LIG1        0.0619
      8 H          -2.2821   -3.0671    0.0622 H       1  LIG1        0.0635
      9 C          -4.4349   -3.1841   -1.6463 C.3     1  LIG1       -0.0223
     10 H          -3.7294   -4.0165   -1.6173 H       1  LIG1        0.0292
     11 H          -4.4719   -2.7913   -2.6657 H       1  LIG1        0.0292
     12 H          -5.4332   -3.5630   -1.4119 H       1  LIG1        0.0292
     13 H          -3.2826    0.7665    1.7208 H       1  LIG1        0.0639
     14 C          -6.8887    1.0479    0.1321 C.ar    1  LIG1        0.0480
     15 C          -5.4837    1.1541    0.1706 C.ar    1  LIG1        0.0214
     16 C          -4.9387    2.4345    0.2013 C.ar    1  LIG1       -0.0488
     17 C          -5.7609    3.5479    0.1745 C.ar    1  LIG1       -0.0350
     18 C          -7.1392    3.3523    0.1149 C.ar    1  LIG1        0.0730
     19 N          -7.6732    2.1261    0.1075 N.ar    1  LIG1       -0.2512
     20 H          -3.8605    2.5569    0.2314 H       1  LIG1        0.0625
     21 C          -7.6082   -0.2727    0.1342 C.3     1  LIG1       -0.0217
     22 H          -7.2045   -0.9501    0.8905 H       1  LIG1        0.0293
     23 H          -7.4940   -0.7762   -0.8274 H       1  LIG1        0.0293
     24 H          -8.6655   -0.0942    0.3284 H       1  LIG1        0.0293
     25 H          -5.3453    4.5481    0.2102 H       1  LIG1        0.0639
     26 C          -9.2736    4.5914    0.7544 C.ar    1  LIG1        0.0480
     27 C          -8.0654    4.5109    0.0320 C.ar    1  LIG1        0.0214
     28 C          -7.7476    5.5809   -0.7992 C.ar    1  LIG1       -0.0488
     29 C          -8.5908    6.6754   -0.8952 C.ar    1  LIG1       -0.0350
     30 C          -9.7571    6.6821   -0.1344 C.ar    1  LIG1        0.0730
     31 N         -10.0758    5.6511    0.6591 N.ar    1  LIG1       -0.2512
     32 H          -6.8442    5.5412   -1.3997 H       1  LIG1        0.0625
     33 C          -9.7388    3.5145    1.6953 C.3     1  LIG1       -0.0217
     34 H          -8.9362    3.1865    2.3601 H       1  LIG1        0.0293
     35 H         -10.0630    2.6313    1.1421 H       1  LIG1        0.0293
     36 H         -10.5684    3.9033    2.2854 H       1  LIG1        0.0293
     37 H          -8.3598    7.4888   -1.5702 H       1  LIG1        0.0639
     38 C         -10.4352    9.1504   -0.2753 C.ar    1  LIG1        0.0473
     39 C         -10.7564    7.7833   -0.1902 C.ar    1  LIG1        0.0214
     40 C         -12.1072    7.4363   -0.1308 C.ar    1  LIG1       -0.0494
     41 C         -13.0797    8.4169   -0.2045 C.ar    1  LIG1       -0.0430
     42 C         -12.6607    9.7349   -0.3222 C.ar    1  LIG1        0.0279
     43 N         -11.3816   10.0948   -0.3420 N.ar    1  LIG1       -0.2595
     44 H         -12.3665    6.3894   -0.0228 H       1  LIG1        0.0625
     45 H         -13.3858   10.5432   -0.3909 H       1  LIG1        0.0829
     46 C          -9.0263    9.6854   -0.2570 C.3     1  LIG1       -0.0217
     47 H          -9.0511   10.6999    0.1410 H       1  LIG1        0.0293
     48 H          -8.6083    9.7443   -1.2677 H       1  LIG1        0.0293
     49 H          -8.3549    9.0721    0.3462 H       1  LIG1        0.0293
     50 H         -14.1349    8.1707   -0.1702 H       1  LIG1        0.0633
@<TRIPOS>BOND
     1    11     9    1
     2     9    10    1
     3     9    12    1
     4     9     1    1
     5    37    29    1
     6    32    28    1
     7    48    46    1
     8    29    28   ar
     9    29    30   ar
    10    23    21    1
    11    28    27   ar
    12     1     6   ar
    13     1     2   ar
    14     6     5   ar
    15    45    42    1
    16    43    42   ar
    17    43    38   ar
    18    42    41   ar
    19    38    46    1
    20    38    39   ar
    21    46    47    1
    22    46    49    1
    23    41    50    1
    24    41    40   ar
    25    39    30    1
    26    39    40   ar
    27    30    31   ar
    28    40    44    1
    29    27    18    1
    30    27    26   ar
    31     8     2    1
    32    19    18   ar
    33    19    14   ar
    34    18    17   ar
    35     2     3   ar
    36    14    21    1
    37    14    15   ar
    38    21    24    1
    39    21    22    1
    40    15     5    1
    41    15    16   ar
    42    17    16   ar
    43    17    25    1
    44     5     4   ar
    45    16    20    1
    46    31    26   ar
    47    26    33    1
    48     3     4   ar
    49     3     7    1
    50     4    13    1
    51    35    33    1
    52    33    36    1
    53    33    34    1
