@<TRIPOS>MOLECULE
mol_data/opt/cam/geoms/mol2/6ia6ia-4ia6ia.out
 51 54 0 0 0
SMALL
GASTEIGER

@<TRIPOS>ATOM
      1 C          -4.3427   -2.1633    0.3297 C.ar    1  LIG1        0.0389
      2 C          -3.2067   -2.3799   -0.4485 C.ar    1  LIG1       -0.0406
      3 C          -2.7059   -1.3289   -1.2019 C.ar    1  LIG1       -0.0581
      4 C          -3.3356   -0.0954   -1.1463 C.ar    1  LIG1       -0.0356
      5 C          -4.4558    0.0491   -0.3241 C.ar    1  LIG1        0.0730
      6 N          -4.9483   -0.9751    0.3826 N.ar    1  LIG1       -0.2518
      7 H          -1.8364   -1.4711   -1.8357 H       1  LIG1        0.0619
      8 H          -2.7362   -3.3567   -0.4676 H       1  LIG1        0.0635
      9 C          -4.9522   -3.2575    1.1616 C.3     1  LIG1       -0.0223
     10 H          -4.4419   -4.2112    1.0137 H       1  LIG1        0.0292
     11 H          -6.0083   -3.3798    0.9090 H       1  LIG1        0.0292
     12 H          -4.9040   -2.9975    2.2225 H       1  LIG1        0.0292
     13 H          -2.9819    0.7324   -1.7466 H       1  LIG1        0.0639
     14 C          -4.6417    2.6035   -0.1850 C.ar    1  LIG1        0.0480
     15 C          -5.2192    1.3225   -0.2261 C.ar    1  LIG1        0.0214
     16 C          -6.6095    1.2455   -0.1347 C.ar    1  LIG1       -0.0488
     17 C          -7.3704    2.3957   -0.0699 C.ar    1  LIG1       -0.0350
     18 C          -6.7175    3.6305   -0.0866 C.ar    1  LIG1        0.0716
     19 N          -5.3856    3.7119   -0.1201 N.ar    1  LIG1       -0.2512
     20 H          -7.0716    0.2654   -0.1066 H       1  LIG1        0.0625
     21 C          -3.1553    2.8533   -0.1710 C.3     1  LIG1       -0.0217
     22 H          -2.9678    3.7932    0.3487 H       1  LIG1        0.0293
     23 H          -2.7605    2.9622   -1.1868 H       1  LIG1        0.0293
     24 H          -2.6018    2.0502    0.3177 H       1  LIG1        0.0293
     25 H          -8.4499    2.3465    0.0109 H       1  LIG1        0.0639
     26 C          -7.1341    6.0080    0.7111 C.ar    1  LIG1       -0.0407
     27 C          -7.9304    7.1491    0.6477 C.ar    1  LIG1       -0.0504
     28 C          -7.4931    4.9000   -0.0789 C.ar    1  LIG1        0.0033
     29 C          -9.0619    7.2412   -0.1651 C.ar    1  LIG1       -0.0159
     30 H          -7.6695    7.9978    1.2736 H       1  LIG1        0.0626
     31 C          -8.6264    4.9872   -0.8904 C.ar    1  LIG1       -0.0517
     32 C          -9.4016    6.1347   -0.9416 C.ar    1  LIG1       -0.0533
     33 H          -8.8884    4.1419   -1.5188 H       1  LIG1        0.0624
     34 C          -5.9466    6.0010    1.6382 C.3     1  LIG1       -0.0391
     35 H          -5.9875    6.8583    2.3140 H       1  LIG1        0.0278
     36 H          -5.0110    6.0365    1.0778 H       1  LIG1        0.0278
     37 H          -5.9114    5.0899    2.2402 H       1  LIG1        0.0278
     38 H         -10.2583    6.1779   -1.6051 H       1  LIG1        0.0624
     39 C         -11.2318    8.5668   -0.0158 C.ar    1  LIG1        0.0459
     40 C          -9.8391    8.5070   -0.2169 C.ar    1  LIG1        0.0032
     41 C          -9.1706    9.7067   -0.4597 C.ar    1  LIG1       -0.0509
     42 C          -9.8757   10.8980   -0.5177 C.ar    1  LIG1       -0.0430
     43 C         -11.2478   10.8463   -0.3239 C.ar    1  LIG1        0.0279
     44 N         -11.9077    9.7188   -0.0726 N.ar    1  LIG1       -0.2596
     45 H          -8.0966    9.6918   -0.6176 H       1  LIG1        0.0625
     46 H         -11.8477   11.7528   -0.3647 H       1  LIG1        0.0829
     47 C         -12.0644    7.3526    0.3025 C.3     1  LIG1       -0.0218
     48 H         -11.5132    6.6186    0.8924 H       1  LIG1        0.0293
     49 H         -12.4021    6.8534   -0.6116 H       1  LIG1        0.0293
     50 H         -12.9531    7.6722    0.8471 H       1  LIG1        0.0293
     51 H          -9.3771   11.8410   -0.7118 H       1  LIG1        0.0633
@<TRIPOS>BOND
     1     7     3    1
     2    13     4    1
     3    38    32    1
     4    33    31    1
     5     3     4   ar
     6     3     2   ar
     7    23    21    1
     8     4     5   ar
     9    32    31   ar
    10    32    29   ar
    11    31    28   ar
    12    51    42    1
    13    45    41    1
    14    49    47    1
    15    42    41   ar
    16    42    43   ar
    17     8     2    1
    18    41    40   ar
    19     2     1   ar
    20    46    43    1
    21     5    15    1
    22     5     6   ar
    23    43    44   ar
    24    15    14   ar
    25    15    16   ar
    26    40    29    1
    27    40    39   ar
    28    14    21    1
    29    14    19   ar
    30    21    24    1
    31    21    22    1
    32    29    27   ar
    33    16    20    1
    34    16    17   ar
    35    19    18   ar
    36    18    28    1
    37    18    17   ar
    38    28    26   ar
    39    44    39   ar
    40    17    25    1
    41    39    47    1
    42    47    50    1
    43    47    48    1
    44     1     6   ar
    45     1     9    1
    46    27    26   ar
    47    27    30    1
    48    26    34    1
    49    11     9    1
    50    10     9    1
    51    36    34    1
    52     9    12    1
    53    34    37    1
    54    34    35    1
