@<TRIPOS>MOLECULE
mol_data/opt/cam/geoms/mol2/6ia6ia-6ia6ia-.out
 50 53 0 0 0
SMALL
GASTEIGER

@<TRIPOS>ATOM
      1 C          -4.3774   -2.2255    0.1092 C.ar    1  LIG1        0.0389
      2 C          -3.0493   -2.3019   -0.3078 C.ar    1  LIG1       -0.0406
      3 C          -2.4099   -1.1391   -0.7095 C.ar    1  LIG1       -0.0581
      4 C          -3.1000    0.0624   -0.6683 C.ar    1  LIG1       -0.0356
      5 C          -4.4213    0.0611   -0.2153 C.ar    1  LIG1        0.0730
      6 N          -5.0408   -1.0681    0.1484 N.ar    1  LIG1       -0.2518
      7 H          -1.3836   -1.1685   -1.0614 H       1  LIG1        0.0619
      8 H          -2.5369   -3.2574   -0.3254 H       1  LIG1        0.0635
      9 C          -5.1413   -3.4450    0.5447 C.3     1  LIG1       -0.0223
     10 H          -4.5532   -4.3566    0.4225 H       1  LIG1        0.0292
     11 H          -6.0630   -3.5399   -0.0345 H       1  LIG1        0.0292
     12 H          -5.4302   -3.3550    1.5954 H       1  LIG1        0.0292
     13 H          -2.6322    0.9783   -1.0041 H       1  LIG1        0.0639
     14 C          -4.7974    2.5616    0.2272 C.ar    1  LIG1        0.0480
     15 C          -5.2563    1.2918   -0.1666 C.ar    1  LIG1        0.0214
     16 C          -6.6009    1.1822   -0.5195 C.ar    1  LIG1       -0.0488
     17 C          -7.4245    2.2915   -0.5073 C.ar    1  LIG1       -0.0350
     18 C          -6.8855    3.5169   -0.1143 C.ar    1  LIG1        0.0730
     19 N          -5.6016    3.6273    0.2408 N.ar    1  LIG1       -0.2512
     20 H          -6.9819    0.2091   -0.8071 H       1  LIG1        0.0625
     21 C          -3.3946    2.8380    0.7041 C.3     1  LIG1       -0.0217
     22 H          -3.4212    3.7015    1.3686 H       1  LIG1        0.0293
     23 H          -2.7324    3.0905   -0.1310 H       1  LIG1        0.0293
     24 H          -2.9583    1.9868    1.2290 H       1  LIG1        0.0293
     25 H          -8.4574    2.2107   -0.8185 H       1  LIG1        0.0639
     26 C          -9.0097    4.9031    0.2794 C.ar    1  LIG1        0.0480
     27 C          -7.6630    4.7847   -0.1087 C.ar    1  LIG1        0.0214
     28 C          -7.0091    5.9523   -0.5014 C.ar    1  LIG1       -0.0488
     29 C          -7.6808    7.1592   -0.5315 C.ar    1  LIG1       -0.0350
     30 C          -9.0199    7.1861   -0.1410 C.ar    1  LIG1        0.0730
     31 N          -9.6497    6.0747    0.2518 N.ar    1  LIG1       -0.2512
     32 H          -5.9651    5.8891   -0.7859 H       1  LIG1        0.0625
     33 C          -9.8398    3.7560    0.7956 C.3     1  LIG1       -0.0217
     34 H          -9.2462    3.0316    1.3556 H       1  LIG1        0.0293
     35 H         -10.3337    3.2211   -0.0227 H       1  LIG1        0.0293
     36 H         -10.6226    4.1600    1.4375 H       1  LIG1        0.0293
     37 H          -7.1820    8.0570   -0.8717 H       1  LIG1        0.0639
     38 C          -9.3997    9.7009    0.1815 C.ar    1  LIG1        0.0473
     39 C          -9.8525    8.4189   -0.1811 C.ar    1  LIG1        0.0214
     40 C         -11.1826    8.2904   -0.5844 C.ar    1  LIG1       -0.0494
     41 C         -11.9949    9.4069   -0.6652 C.ar    1  LIG1       -0.0430
     42 C         -11.4436   10.6330   -0.3201 C.ar    1  LIG1        0.0279
     43 N         -10.1924   10.7768    0.1040 N.ar    1  LIG1       -0.2595
     44 H         -11.5555    7.3016   -0.8256 H       1  LIG1        0.0625
     45 H         -12.0377   11.5428   -0.3739 H       1  LIG1        0.0829
     46 C          -8.0223    9.9831    0.7238 C.3     1  LIG1       -0.0217
     47 H          -8.0778   10.8721    1.3523 H       1  LIG1        0.0293
     48 H          -7.3131   10.2005   -0.0821 H       1  LIG1        0.0293
     49 H          -7.6227    9.1497    1.3037 H       1  LIG1        0.0293
     50 H         -13.0282    9.3329   -0.9848 H       1  LIG1        0.0633
@<TRIPOS>BOND
     1     7     3    1
     2    13     4    1
     3    50    41    1
     4    37    29    1
     5    44    40    1
     6    25    17    1
     7    20    16    1
     8    32    28    1
     9     3     4   ar
    10     3     2   ar
    11     4     5   ar
    12    41    40   ar
    13    41    42   ar
    14    40    39   ar
    15    29    28   ar
    16    29    30   ar
    17    16    17   ar
    18    16    15   ar
    19    17    18   ar
    20    28    27   ar
    21    45    42    1
    22     8     2    1
    23    42    43   ar
    24     2     1   ar
    25     5    15    1
    26     5     6   ar
    27    39    30    1
    28    39    38   ar
    29    15    14   ar
    30    30    31   ar
    31    23    21    1
    32    18    27    1
    33    18    19   ar
    34    27    26   ar
    35    48    46    1
    36    11     9    1
    37    35    33    1
    38    43    38   ar
    39     1     6   ar
    40     1     9    1
    41    38    46    1
    42    14    19   ar
    43    14    21    1
    44    31    26   ar
    45    26    33    1
    46    10     9    1
    47     9    12    1
    48    21    24    1
    49    21    22    1
    50    46    49    1
    51    46    47    1
    52    33    34    1
    53    33    36    1
