@<TRIPOS>MOLECULE
mol_data/opt/cam/geoms/mol2/6ia6ia.out
 26 27 0 0 0
SMALL
GASTEIGER

@<TRIPOS>ATOM
      1 C          -4.3867   -2.0533   -0.3077 C.ar    1  LIG1        0.0389
      2 C          -3.0857   -2.0413    0.1920 C.ar    1  LIG1       -0.0406
      3 C          -2.5576   -0.8438    0.6524 C.ar    1  LIG1       -0.0581
      4 C          -3.3351    0.3014    0.5943 C.ar    1  LIG1       -0.0356
      5 C          -4.6267    0.2091    0.0678 C.ar    1  LIG1        0.0730
      6 N          -5.1346   -0.9480   -0.3661 N.ar    1  LIG1       -0.2518
      7 H          -1.5520   -0.8056    1.0591 H       1  LIG1        0.0619
      8 H          -2.5055   -2.9569    0.2230 H       1  LIG1        0.0635
      9 C          -5.0280   -3.3155   -0.8139 C.3     1  LIG1       -0.0223
     10 H          -4.3480   -4.1674   -0.7557 H       1  LIG1        0.0292
     11 H          -5.3441   -3.1882   -1.8523 H       1  LIG1        0.0292
     12 H          -5.9245   -3.5438   -0.2312 H       1  LIG1        0.0292
     13 H          -2.9628    1.2495    0.9642 H       1  LIG1        0.0639
     14 C          -6.8448    1.4379    0.2971 C.ar    1  LIG1        0.0473
     15 C          -5.4784    1.4231   -0.0505 C.ar    1  LIG1        0.0214
     16 C          -4.9134    2.6062   -0.5196 C.ar    1  LIG1       -0.0494
     17 C          -5.6904    3.7480   -0.6432 C.ar    1  LIG1       -0.0430
     18 C          -7.0249    3.6589   -0.2825 C.ar    1  LIG1        0.0279
     19 N          -7.5863    2.5429    0.1792 N.ar    1  LIG1       -0.2595
     20 H          -3.8667    2.6216   -0.8074 H       1  LIG1        0.0625
     21 H          -7.6796    4.5239   -0.3638 H       1  LIG1        0.0829
     22 C          -7.5628    0.2343    0.8427 C.3     1  LIG1       -0.0217
     23 H          -6.9922   -0.2489    1.6400 H       1  LIG1        0.0293
     24 H          -7.7073   -0.5166    0.0639 H       1  LIG1        0.0293
     25 H          -8.5310    0.5539    1.2273 H       1  LIG1        0.0293
     26 H          -5.2746    4.6777   -1.0146 H       1  LIG1        0.0633
@<TRIPOS>BOND
     1    11     9    1
     2    26    17    1
     3     9    10    1
     4     9     1    1
     5     9    12    1
     6    20    16    1
     7    17    16   ar
     8    17    18   ar
     9    16    15   ar
    10     6     1   ar
    11     6     5   ar
    12    21    18    1
    13     1     2   ar
    14    18    19   ar
    15    15     5    1
    16    15    14   ar
    17    24    22    1
    18     5     4   ar
    19    19    14   ar
    20     2     8    1
    21     2     3   ar
    22    14    22    1
    23     4     3   ar
    24     4    13    1
    25     3     7    1
    26    22    25    1
    27    22    23    1
