@<TRIPOS>MOLECULE
mol_data/opt/cam/geoms/mol2/6ia6ia6ia6ia.out
 50 53 0 0 0
SMALL
GASTEIGER

@<TRIPOS>ATOM
      1 C          -3.7156   -1.8901   -0.7185 C.ar    1  LIG1        0.0389
      2 C          -2.8734   -2.1527    0.3607 C.ar    1  LIG1       -0.0406
      3 C          -2.9299   -1.3225    1.4707 C.ar    1  LIG1       -0.0581
      4 C          -3.8139   -0.2558    1.4695 C.ar    1  LIG1       -0.0356
      5 C          -4.6164   -0.0521    0.3433 C.ar    1  LIG1        0.0730
      6 N          -4.5656   -0.8596   -0.7201 N.ar    1  LIG1       -0.2518
      7 H          -2.2958   -1.5098    2.3315 H       1  LIG1        0.0619
      8 H          -2.1939   -2.9971    0.3283 H       1  LIG1        0.0635
      9 C          -3.7166   -2.7528   -1.9496 C.3     1  LIG1       -0.0223
     10 H          -2.9898   -3.5641   -1.8768 H       1  LIG1        0.0292
     11 H          -3.4845   -2.1517   -2.8324 H       1  LIG1        0.0292
     12 H          -4.7083   -3.1850   -2.1072 H       1  LIG1        0.0292
     13 H          -3.8997    0.4000    2.3280 H       1  LIG1        0.0639
     14 C          -6.8665    1.0074   -0.2076 C.ar    1  LIG1        0.0480
     15 C          -5.5487    1.1045    0.2834 C.ar    1  LIG1        0.0214
     16 C          -5.1244    2.3500    0.7373 C.ar    1  LIG1       -0.0488
     17 C          -5.9722    3.4432    0.6822 C.ar    1  LIG1       -0.0350
     18 C          -7.2524    3.2627    0.1631 C.ar    1  LIG1        0.0730
     19 N          -7.6770    2.0653   -0.2551 N.ar    1  LIG1       -0.2512
     20 H          -4.1160    2.4647    1.1227 H       1  LIG1        0.0625
     21 C          -7.4643   -0.2843   -0.6931 C.3     1  LIG1       -0.0217
     22 H          -7.2707   -1.1043    0.0028 H       1  LIG1        0.0293
     23 H          -7.0266   -0.5773   -1.6490 H       1  LIG1        0.0293
     24 H          -8.5392   -0.1491   -0.8103 H       1  LIG1        0.0293
     25 H          -5.6537    4.4138    1.0440 H       1  LIG1        0.0639
     26 C          -9.5540    4.3330    0.3752 C.ar    1  LIG1        0.0480
     27 C          -8.1883    4.4095    0.0345 C.ar    1  LIG1        0.0214
     28 C          -7.7116    5.6315   -0.4317 C.ar    1  LIG1       -0.0488
     29 C          -8.5663    6.7123   -0.5666 C.ar    1  LIG1       -0.0350
     30 C          -9.9066    6.5437   -0.2256 C.ar    1  LIG1        0.0730
     31 N         -10.3695    5.3801    0.2438 N.ar    1  LIG1       -0.2512
     32 H          -6.6656    5.7291   -0.7049 H       1  LIG1        0.0625
     33 C         -10.1899    3.0865    0.9256 C.3     1  LIG1       -0.0217
     34 H          -9.5783    2.6339    1.7097 H       1  LIG1        0.0293
     35 H         -10.3010    2.3326    0.1441 H       1  LIG1        0.0293
     36 H         -11.1708    3.3423    1.3256 H       1  LIG1        0.0293
     37 H          -8.2021    7.6704   -0.9186 H       1  LIG1        0.0639
     38 C         -11.8495    7.9820    0.5729 C.ar    1  LIG1        0.0473
     39 C         -10.8785    7.6556   -0.3962 C.ar    1  LIG1        0.0214
     40 C         -10.8356    8.4223   -1.5582 C.ar    1  LIG1       -0.0494
     41 C         -11.7355    9.4611   -1.7406 C.ar    1  LIG1       -0.0430
     42 C         -12.6566    9.6976   -0.7332 C.ar    1  LIG1        0.0279
     43 N         -12.7106    8.9872    0.3920 N.ar    1  LIG1       -0.2595
     44 H         -10.1072    8.1856   -2.3276 H       1  LIG1        0.0625
     45 H         -13.3877   10.4976   -0.8280 H       1  LIG1        0.0829
     46 C         -11.9778    7.2505    1.8806 C.3     1  LIG1       -0.0217
     47 H         -11.0056    7.0936    2.3538 H       1  LIG1        0.0293
     48 H         -12.4132    6.2610    1.7292 H       1  LIG1        0.0293
     49 H         -12.6195    7.8329    2.5415 H       1  LIG1        0.0293
     50 H         -11.7273   10.0651   -2.6408 H       1  LIG1        0.0633
@<TRIPOS>BOND
     1    11     9    1
     2    50    41    1
     3    44    40    1
     4    12     9    1
     5     9    10    1
     6     9     1    1
     7    41    40   ar
     8    41    42   ar
     9    23    21    1
    10    40    39   ar
    11    37    29    1
    12    45    42    1
    13    24    21    1
    14    42    43   ar
    15     6     1   ar
    16     6     5   ar
    17     1     2   ar
    18    32    28    1
    19    21    14    1
    20    21    22    1
    21    29    28   ar
    22    29    30   ar
    23    28    27   ar
    24    39    30    1
    25    39    38   ar
    26    19    14   ar
    27    19    18   ar
    28    30    31   ar
    29    14    15   ar
    30    27    18    1
    31    27    26   ar
    32    35    33    1
    33    18    17   ar
    34    31    26   ar
    35    15     5    1
    36    15    16   ar
    37     8     2    1
    38     5     4   ar
    39     2     3   ar
    40    26    33    1
    41    43    38   ar
    42    38    46    1
    43    17    16   ar
    44    17    25    1
    45    16    20    1
    46    33    36    1
    47    33    34    1
    48     4     3   ar
    49     4    13    1
    50     3     7    1
    51    48    46    1
    52    46    47    1
    53    46    49    1
