@<TRIPOS>MOLECULE
mol_data/opt/cam/geoms/mol2/6id13el-13ah-4dd.out
 51 54 0 0 0
SMALL
GASTEIGER

@<TRIPOS>ATOM
      1 C          -4.6179   -2.1032    0.4471 C.ar    1  LIG1        0.0390
      2 C          -3.2580   -2.2923    0.1924 C.ar    1  LIG1       -0.0394
      3 C          -2.5041   -1.2070   -0.2070 C.ar    1  LIG1       -0.0405
      4 C          -3.0958    0.0551   -0.3032 C.ar    1  LIG1        0.0792
      5 C          -4.4493    0.1809    0.0679 C.ar    1  LIG1        0.1060
      6 N          -5.1796   -0.8970    0.3908 N.ar    1  LIG1       -0.2491
      7 H          -1.4600   -1.3226   -0.4759 H       1  LIG1        0.0632
      8 H          -2.8157   -3.2780    0.2727 H       1  LIG1        0.0636
      9 C          -5.5230   -3.2475    0.8013 C.3     1  LIG1       -0.0223
     10 H          -4.9791   -4.1916    0.8550 H       1  LIG1        0.0292
     11 H          -6.3165   -3.3450    0.0553 H       1  LIG1        0.0292
     12 H          -6.0050   -3.0629    1.7644 H       1  LIG1        0.0292
     13 N          -1.6596    1.8859   -1.4302 N.1     1  LIG1       -0.1908
     14 C          -2.3267    1.1091   -0.8921 C.1     1  LIG1        0.1014
     15 C          -5.1992    1.4330    0.0903 C.ar    1  LIG1        0.0859
     16 C          -4.8768    2.7713    0.3305 C.ar    1  LIG1        0.0937
     17 C          -6.0975    3.5007    0.2339 C.ar    1  LIG1        0.1626
     18 C          -7.1210    2.6073   -0.0305 C.ar    1  LIG1        0.1069
     19 N          -6.5482    1.3650   -0.0959 N.ar    1  LIG1       -0.3479
     20 H          -7.0044    0.4873   -0.2906 H       1  LIG1        0.1661
     21 C          -3.6413    3.3044    0.7806 C.1     1  LIG1       -0.0638
     22 C          -2.6136    3.7759    1.1944 C.1     1  LIG1       -0.1137
     23 H          -1.6905    4.1768    1.5442 H       1  LIG1        0.1232
     24 O          -6.2935    4.8255    0.4399 O.3     1  LIG1       -0.4917
     25 C          -5.5259    5.6955   -0.3885 C.3     1  LIG1        0.0789
     26 H          -5.8194    6.7098   -0.1176 H       1  LIG1        0.0660
     27 H          -4.4547    5.5683   -0.2170 H       1  LIG1        0.0660
     28 H          -5.7482    5.5197   -1.4468 H       1  LIG1        0.0660
     29 C          -8.5395    2.8275   -0.1804 C.ar    1  LIG1        0.0688
     30 C          -9.2376    3.9753   -0.4696 C.ar    1  LIG1       -0.0135
     31 C         -10.6241    3.6670   -0.4517 C.ar    1  LIG1        0.0509
     32 C         -10.7448    2.3096   -0.1478 C.ar    1  LIG1        0.0692
     33 N          -9.4436    1.8078   -0.0274 N.ar    1  LIG1       -0.3514
     34 H          -9.2466    1.0047    0.5512 H       1  LIG1        0.1660
     35 H          -8.7994    4.9378   -0.6850 H       1  LIG1        0.0658
     36 N         -11.6191    4.5538   -0.8341 N.pl3   1  LIG1       -0.3563
     37 H         -11.2638    5.4825   -1.0110 H       1  LIG1        0.1424
     38 H         -12.4326    4.5905   -0.2343 H       1  LIG1        0.1424
     39 C         -13.1484    1.6668    0.3350 C.ar    1  LIG1        0.0610
     40 C         -14.1837    0.7254    0.2664 C.ar    1  LIG1       -0.0425
     41 C         -11.8540    1.3763   -0.1525 C.ar    1  LIG1        0.0187
     42 C         -13.9597   -0.5370   -0.2410 C.ar    1  LIG1       -0.0431
     43 H         -15.1631    0.9968    0.6433 H       1  LIG1        0.0631
     44 C         -11.6497    0.0795   -0.6541 C.ar    1  LIG1       -0.0339
     45 C         -12.6728   -0.8583   -0.6916 C.ar    1  LIG1        0.0525
     46 H         -10.6787   -0.1807   -1.0569 H       1  LIG1        0.0637
     47 H         -14.7545   -1.2710   -0.2852 H       1  LIG1        0.0631
     48 N         -13.6671    3.9141    1.5091 N.1     1  LIG1       -0.1908
     49 C         -13.4301    2.9102    0.9823 C.1     1  LIG1        0.0998
     50 N         -12.1806   -3.2244   -1.6317 N.1     1  LIG1       -0.1909
     51 C         -12.4037   -2.1686   -1.2163 C.1     1  LIG1        0.0992
@<TRIPOS>BOND
     1    50    51    3
     2    28    25    1
     3    13    14    3
     4    51    45    1
     5    46    44    1
     6    37    36    1
     7    14     4    1
     8    36    31    1
     9    36    38    1
    10    45    44   ar
    11    45    42   ar
    12    35    30    1
    13    44    41   ar
    14     7     3    1
    15    30    31   ar
    16    30    29   ar
    17    31    32   ar
    18    25    27    1
    19    25    26    1
    20    25    24    1
    21     4     3   ar
    22     4     5   ar
    23    20    19    1
    24    47    42    1
    25    42    40   ar
    26     3     2   ar
    27    29    18    1
    28    29    33   ar
    29    41    32    1
    30    41    39   ar
    31    32    33   ar
    32    19    18   ar
    33    19    15   ar
    34    18    17   ar
    35    33    34    1
    36    11     9    1
    37     5    15    1
    38     5     6   ar
    39    15    16   ar
    40     2     8    1
    41     2     1   ar
    42    17    16   ar
    43    17    24    1
    44    40    39   ar
    45    40    43    1
    46    16    21    1
    47    39    49    1
    48     6     1   ar
    49     1     9    1
    50    21    22    3
    51     9    10    1
    52     9    12    1
    53    49    48    3
    54    22    23    1
