@<TRIPOS>MOLECULE
mol_data/opt/cam/geoms/mol2/6id6id6id6id.out
 54 57 0 0 0
SMALL
GASTEIGER

@<TRIPOS>ATOM
      1 C          -3.6583   -1.6512   -1.3062 C.ar    1  LIG1        0.0390
      2 C          -2.8938   -2.1673   -0.2585 C.ar    1  LIG1       -0.0394
      3 C          -2.9935   -1.5891    0.9919 C.ar    1  LIG1       -0.0406
      4 C          -3.8455   -0.4977    1.1699 C.ar    1  LIG1        0.0777
      5 C          -4.5670   -0.0244    0.0593 C.ar    1  LIG1        0.0903
      6 N          -4.4709   -0.6042   -1.1349 N.ar    1  LIG1       -0.2505
      7 H          -2.4275   -1.9721    1.8337 H       1  LIG1        0.0632
      8 H          -2.2389   -3.0144   -0.4257 H       1  LIG1        0.0636
      9 C          -3.6123   -2.2389   -2.6858 C.3     1  LIG1       -0.0223
     10 H          -2.9190   -3.0790   -2.7461 H       1  LIG1        0.0292
     11 H          -3.3084   -1.4769   -3.4077 H       1  LIG1        0.0292
     12 H          -4.6074   -2.5820   -2.9808 H       1  LIG1        0.0292
     13 N          -4.0824    0.5469    3.5278 N.1     1  LIG1       -0.1908
     14 C          -3.9836    0.0894    2.4701 C.1     1  LIG1        0.1013
     15 C          -6.8016    1.1193   -0.2854 C.ar    1  LIG1        0.0482
     16 C          -5.4613    1.1624    0.1488 C.ar    1  LIG1        0.0239
     17 C          -4.9786    2.3606    0.6481 C.ar    1  LIG1       -0.0313
     18 C          -5.8033    3.4854    0.6846 C.ar    1  LIG1        0.0784
     19 C          -7.1159    3.3628    0.2080 C.ar    1  LIG1        0.0904
     20 N          -7.5826    2.1982   -0.2427 N.ar    1  LIG1       -0.2499
     21 H          -3.9593    2.4400    1.0084 H       1  LIG1        0.0638
     22 C          -7.4399   -0.1334   -0.8103 C.3     1  LIG1       -0.0217
     23 H          -7.2517   -0.9846   -0.1509 H       1  LIG1        0.0293
     24 H          -7.0259   -0.3894   -1.7877 H       1  LIG1        0.0293
     25 H          -8.5134    0.0265   -0.9015 H       1  LIG1        0.0293
     26 N          -4.8700    5.7045    1.6390 N.1     1  LIG1       -0.1908
     27 C          -5.2969    4.7172    1.2143 C.1     1  LIG1        0.1013
     28 C          -9.3416    4.4570    0.7249 C.ar    1  LIG1        0.0482
     29 C          -8.0533    4.5165    0.1559 C.ar    1  LIG1        0.0239
     30 C          -7.6800    5.6858   -0.4856 C.ar    1  LIG1       -0.0313
     31 C          -8.5791    6.7482   -0.5806 C.ar    1  LIG1        0.0784
     32 C          -9.8521    6.5958   -0.0124 C.ar    1  LIG1        0.0904
     33 N         -10.1917    5.4786    0.6312 N.ar    1  LIG1       -0.2499
     34 H          -6.6939    5.7862   -0.9244 H       1  LIG1        0.0638
     35 C          -9.8359    3.2579    1.4800 C.3     1  LIG1       -0.0217
     36 H          -9.1007    2.9152    2.2127 H       1  LIG1        0.0293
     37 H         -10.0170    2.4259    0.7962 H       1  LIG1        0.0293
     38 H         -10.7634    3.5173    1.9883 H       1  LIG1        0.0293
     39 N          -7.8304    8.9158   -1.7836 N.1     1  LIG1       -0.1908
     40 C          -8.1757    7.9553   -1.2399 C.1     1  LIG1        0.1013
     41 C         -11.5695    8.1365    1.0297 C.ar    1  LIG1        0.0475
     42 C         -10.8964    7.6509   -0.1102 C.ar    1  LIG1        0.0238
     43 C         -11.2477    8.1583   -1.3527 C.ar    1  LIG1       -0.0319
     44 C         -12.2595    9.1128   -1.4411 C.ar    1  LIG1        0.0705
     45 C         -12.8745    9.5243   -0.2599 C.ar    1  LIG1        0.0452
     46 N         -12.5340    9.0559    0.9333 N.ar    1  LIG1       -0.2582
     47 H         -10.7529    7.8127   -2.2532 H       1  LIG1        0.0638
     48 H         -13.6706   10.2634   -0.2884 H       1  LIG1        0.0843
     49 C         -11.2431    7.6743    2.4200 C.3     1  LIG1       -0.0217
     50 H         -10.1651    7.6698    2.6003 H       1  LIG1        0.0293
     51 H         -11.5972    6.6530    2.5759 H       1  LIG1        0.0293
     52 H         -11.7290    8.3389    3.1330 H       1  LIG1        0.0293
     53 N         -13.0138   10.0808   -3.7207 N.1     1  LIG1       -0.1908
     54 C         -12.6706    9.6497   -2.7040 C.1     1  LIG1        0.1007
@<TRIPOS>BOND
     1    53    54    3
     2    11     9    1
     3    12     9    1
     4    10     9    1
     5    54    44    1
     6     9     1    1
     7    47    43    1
     8    24    22    1
     9    39    40    3
    10    44    43   ar
    11    44    45   ar
    12    43    42   ar
    13     1     6   ar
    14     1     2   ar
    15    40    31    1
    16     6     5   ar
    17    34    30    1
    18    25    22    1
    19    22    15    1
    20    22    23    1
    21    31    30   ar
    22    31    32   ar
    23    30    29   ar
    24     8     2    1
    25    48    45    1
    26    15    20   ar
    27    15    16   ar
    28    45    46   ar
    29     2     3   ar
    30    20    19   ar
    31    42    32    1
    32    42    41   ar
    33    32    33   ar
    34     5    16    1
    35     5     4   ar
    36    16    17   ar
    37    29    19    1
    38    29    28   ar
    39    19    18   ar
    40    33    28   ar
    41    17    18   ar
    42    17    21    1
    43    18    27    1
    44    28    35    1
    45    37    35    1
    46    46    41   ar
    47     3     4   ar
    48     3     7    1
    49    41    49    1
    50     4    14    1
    51    27    26    3
    52    35    38    1
    53    35    36    1
    54    49    51    1
    55    49    50    1
    56    49    52    1
    57    14    13    3
