@<TRIPOS>MOLECULE
mol_data/opt/cam/geoms/mol2/6id6id6id6id-.out
 54 57 0 0 0
SMALL
GASTEIGER

@<TRIPOS>ATOM
      1 C          -4.0616   -2.0048   -0.9489 C.ar    1  LIG1        0.0390
      2 C          -2.9814   -2.2429   -0.0974 C.ar    1  LIG1       -0.0394
      3 C          -2.6962   -1.3261    0.8956 C.ar    1  LIG1       -0.0406
      4 C          -3.4875   -0.1821    1.0120 C.ar    1  LIG1        0.0777
      5 C          -4.5458   -0.0055    0.1026 C.ar    1  LIG1        0.0903
      6 N          -4.8158   -0.9071   -0.8385 N.ar    1  LIG1       -0.2505
      7 H          -1.8749   -1.4841    1.5857 H       1  LIG1        0.0632
      8 H          -2.3826   -3.1388   -0.2119 H       1  LIG1        0.0636
      9 C          -4.4411   -2.9661   -2.0363 C.3     1  LIG1       -0.0223
     10 H          -3.7489   -3.8073   -2.0942 H       1  LIG1        0.0292
     11 H          -4.4584   -2.4532   -3.0008 H       1  LIG1        0.0292
     12 H          -5.4485   -3.3529   -1.8599 H       1  LIG1        0.0292
     13 N          -2.9916    1.5066    2.9118 N.1     1  LIG1       -0.1908
     14 C          -3.2220    0.7600    2.0589 C.1     1  LIG1        0.1013
     15 C          -6.8160    1.1177    0.1730 C.ar    1  LIG1        0.0482
     16 C          -5.4100    1.2065    0.1261 C.ar    1  LIG1        0.0239
     17 C          -4.8400    2.4679    0.0791 C.ar    1  LIG1       -0.0313
     18 C          -5.6530    3.6012    0.0531 C.ar    1  LIG1        0.0784
     19 C          -7.0435    3.4229    0.0781 C.ar    1  LIG1        0.0904
     20 N          -7.5839    2.2068    0.1519 N.ar    1  LIG1       -0.2499
     21 H          -3.7629    2.5885    0.0563 H       1  LIG1        0.0638
     22 C          -7.5393   -0.1942    0.2616 C.3     1  LIG1       -0.0217
     23 H          -7.1179   -0.8305    1.0443 H       1  LIG1        0.0293
     24 H          -7.4484   -0.7424   -0.6784 H       1  LIG1        0.0293
     25 H          -8.5911   -0.0061    0.4721 H       1  LIG1        0.0293
     26 N          -4.5539    5.9450   -0.0223 N.1     1  LIG1       -0.1908
     27 C          -5.0533    4.9025    0.0154 C.1     1  LIG1        0.1013
     28 C          -9.0268    4.7482    0.9387 C.ar    1  LIG1        0.0482
     29 C          -7.9870    4.5705    0.0039 C.ar    1  LIG1        0.0239
     30 C          -7.8833    5.4836   -1.0326 C.ar    1  LIG1       -0.0313
     31 C          -8.7828    6.5457   -1.1221 C.ar    1  LIG1        0.0784
     32 C          -9.7619    6.6745   -0.1270 C.ar    1  LIG1        0.0904
     33 N          -9.8695    5.7778    0.8545 N.ar    1  LIG1       -0.2499
     34 H          -7.1198    5.3714   -1.7940 H       1  LIG1        0.0638
     35 C          -9.2468    3.8153    2.0934 C.3     1  LIG1       -0.0217
     36 H          -8.3195    3.6371    2.6445 H       1  LIG1        0.0293
     37 H          -9.5976    2.8442    1.7385 H       1  LIG1        0.0293
     38 H          -9.9877    4.2510    2.7620 H       1  LIG1        0.0293
     39 N          -8.6589    8.1244   -3.1700 N.1     1  LIG1       -0.1908
     40 C          -8.7187    7.4291   -2.2477 C.1     1  LIG1        0.1013
     41 C         -10.4717    9.1327   -0.1136 C.ar    1  LIG1        0.0475
     42 C         -10.7801    7.7599   -0.1191 C.ar    1  LIG1        0.0238
     43 C         -12.1160    7.3809   -0.0488 C.ar    1  LIG1       -0.0319
     44 C         -13.1060    8.3565   -0.0411 C.ar    1  LIG1        0.0705
     45 C         -12.7043    9.6942   -0.0859 C.ar    1  LIG1        0.0452
     46 N         -11.4349   10.0637   -0.1032 N.ar    1  LIG1       -0.2582
     47 H         -12.3756    6.3299    0.0009 H       1  LIG1        0.0638
     48 H         -13.4482   10.4867   -0.0934 H       1  LIG1        0.0843
     49 C          -9.0709    9.6721   -0.0760 C.3     1  LIG1       -0.0217
     50 H          -9.0633   10.5790    0.5294 H       1  LIG1        0.0293
     51 H          -8.7416    9.9425   -1.0830 H       1  LIG1        0.0293
     52 H          -8.3558    8.9576    0.3340 H       1  LIG1        0.0293
     53 N         -15.6174    7.7350    0.0587 N.1     1  LIG1       -0.1908
     54 C         -14.4950    8.0105    0.0148 C.1     1  LIG1        0.1007
@<TRIPOS>BOND
     1    39    40    3
     2    11     9    1
     3    40    31    1
     4    10     9    1
     5     9    12    1
     6     9     1    1
     7    34    30    1
     8    31    30   ar
     9    31    32   ar
    10    51    49    1
    11    30    29   ar
    12     1     6   ar
    13     1     2   ar
    14     6     5   ar
    15    24    22    1
    16     8     2    1
    17    32    42    1
    18    32    33   ar
    19    42    41   ar
    20    42    43   ar
    21    41    46   ar
    22    41    49    1
    23    46    45   ar
    24     2     3   ar
    25    48    45    1
    26    45    44   ar
    27    49    52    1
    28    49    50    1
    29    43    44   ar
    30    43    47    1
    31    44    54    1
    32    26    27    3
    33    29    19    1
    34    29    28   ar
    35    54    53    3
    36    27    18    1
    37    18    19   ar
    38    18    17   ar
    39    21    17    1
    40    19    20   ar
    41    17    16   ar
    42     5    16    1
    43     5     4   ar
    44    16    15   ar
    45    20    15   ar
    46    15    22    1
    47    22    25    1
    48    22    23    1
    49    33    28   ar
    50     3     4   ar
    51     3     7    1
    52    28    35    1
    53     4    14    1
    54    37    35    1
    55    14    13    3
    56    35    36    1
    57    35    38    1
