@<TRIPOS>MOLECULE
mol_data/opt/cam/geoms/mol2/6id6id-6id-6id-.out
 54 57 0 0 0
SMALL
GASTEIGER

@<TRIPOS>ATOM
      1 C          -3.8255   -1.8710    0.8330 C.ar    1  LIG1        0.0390
      2 C          -3.2985   -2.4329   -0.3311 C.ar    1  LIG1       -0.0394
      3 C          -3.4587   -1.7642   -1.5290 C.ar    1  LIG1       -0.0406
      4 C          -4.1225   -0.5360   -1.5387 C.ar    1  LIG1        0.0777
      5 C          -4.5893   -0.0180   -0.3179 C.ar    1  LIG1        0.0903
      6 N          -4.4540   -0.6912    0.8230 N.ar    1  LIG1       -0.2505
      7 H          -3.0906   -2.1832   -2.4588 H       1  LIG1        0.0632
      8 H          -2.7874   -3.3877   -0.2942 H       1  LIG1        0.0636
      9 C          -3.7148   -2.5539    2.1639 C.3     1  LIG1       -0.0223
     10 H          -3.2687   -3.5456    2.0756 H       1  LIG1        0.0292
     11 H          -4.7031   -2.6469    2.6201 H       1  LIG1        0.0292
     12 H          -3.1034   -1.9537    2.8432 H       1  LIG1        0.0292
     13 N          -4.5361    0.6621   -3.7959 N.1     1  LIG1       -0.1908
     14 C          -4.3549    0.1342   -2.7827 C.1     1  LIG1        0.1013
     15 C          -4.8213    2.5143   -0.6402 C.ar    1  LIG1        0.0482
     16 C          -5.3262    1.2723   -0.2162 C.ar    1  LIG1        0.0239
     17 C          -6.5668    1.2547    0.4063 C.ar    1  LIG1       -0.0313
     18 C          -7.3078    2.4261    0.5249 C.ar    1  LIG1        0.0784
     19 C          -6.7590    3.6135    0.0090 C.ar    1  LIG1        0.0904
     20 N          -5.5421    3.6335   -0.5237 N.ar    1  LIG1       -0.2499
     21 H          -6.9525    0.3246    0.8070 H       1  LIG1        0.0638
     22 C          -3.4468    2.7027   -1.2140 C.3     1  LIG1       -0.0217
     23 H          -3.0508    3.6600   -0.8731 H       1  LIG1        0.0293
     24 H          -3.4936    2.7319   -2.3059 H       1  LIG1        0.0293
     25 H          -2.7616    1.9050   -0.9244 H       1  LIG1        0.0293
     26 N          -9.5991    2.3493    1.7294 N.1     1  LIG1       -0.1908
     27 C          -8.5777    2.3959    1.1887 C.1     1  LIG1        0.1013
     28 C          -6.9381    6.0873    0.5345 C.ar    1  LIG1        0.0482
     29 C          -7.5034    4.9009    0.0245 C.ar    1  LIG1        0.0239
     30 C          -8.7870    4.9638   -0.4927 C.ar    1  LIG1       -0.0313
     31 C          -9.4700    6.1795   -0.5230 C.ar    1  LIG1        0.0784
     32 C          -8.8248    7.3181   -0.0188 C.ar    1  LIG1        0.0904
     33 N          -7.6008    7.2429    0.5042 N.ar    1  LIG1       -0.2499
     34 H          -9.2702    4.0759   -0.8842 H       1  LIG1        0.0638
     35 C          -5.5713    6.1338    1.1530 C.3     1  LIG1       -0.0217
     36 H          -5.4487    7.0861    1.6672 H       1  LIG1        0.0293
     37 H          -4.8029    6.0366    0.3832 H       1  LIG1        0.0293
     38 H          -5.4212    5.3131    1.8588 H       1  LIG1        0.0293
     39 N         -11.8736    6.2423   -1.4851 N.1     1  LIG1       -0.1908
     40 C         -10.8022    6.2267   -1.0499 C.1     1  LIG1        0.1013
     41 C          -9.5526    9.4679    1.1019 C.ar    1  LIG1        0.0475
     42 C          -9.4517    8.6668   -0.0540 C.ar    1  LIG1        0.0238
     43 C          -9.9282    9.1736   -1.2544 C.ar    1  LIG1       -0.0319
     44 C         -10.4725   10.4562   -1.2877 C.ar    1  LIG1        0.0705
     45 C         -10.5204   11.1769   -0.0956 C.ar    1  LIG1        0.0452
     46 N         -10.0815   10.6939    1.0590 N.ar    1  LIG1       -0.2582
     47 H          -9.8710    8.5888   -2.1654 H       1  LIG1        0.0638
     48 H         -10.9334   12.1820   -0.0822 H       1  LIG1        0.0843
     49 C          -9.0947    9.0003    2.4528 C.3     1  LIG1       -0.0217
     50 H          -9.4724    9.6886    3.2078 H       1  LIG1        0.0293
     51 H          -8.0039    8.9743    2.4984 H       1  LIG1        0.0293
     52 H          -9.4482    7.9892    2.6703 H       1  LIG1        0.0293
     53 N         -11.3449   11.5037   -3.4887 N.1     1  LIG1       -0.1908
     54 C         -10.9584   11.0300   -2.5071 C.1     1  LIG1        0.1007
@<TRIPOS>BOND
     1    13    14    3
     2    53    54    3
     3    14     4    1
     4    54    44    1
     5     7     3    1
     6    24    22    1
     7    47    43    1
     8     4     3   ar
     9     4     5   ar
    10     3     2   ar
    11    39    40    3
    12    44    43   ar
    13    44    45   ar
    14    43    42   ar
    15    22    25    1
    16    22    23    1
    17    22    15    1
    18    40    31    1
    19    34    30    1
    20    15    20   ar
    21    15    16   ar
    22    20    19   ar
    23    31    30   ar
    24    31    32   ar
    25    30    29   ar
    26     2     8    1
    27     2     1   ar
    28     5    16    1
    29     5     6   ar
    30    16    17   ar
    31    45    48    1
    32    45    46   ar
    33    42    32    1
    34    42    41   ar
    35    32    33   ar
    36    19    29    1
    37    19    18   ar
    38    29    28   ar
    39    37    35    1
    40    17    18   ar
    41    17    21    1
    42    33    28   ar
    43    18    27    1
    44    28    35    1
    45     6     1   ar
    46     1     9    1
    47    46    41   ar
    48    41    49    1
    49    35    36    1
    50    35    38    1
    51    27    26    3
    52    10     9    1
    53     9    11    1
    54     9    12    1
    55    49    51    1
    56    49    52    1
    57    49    50    1
