@<TRIPOS>MOLECULE
mol_data/opt/cam/geoms/mol2/6id6id6id-6id-.out
 54 57 0 0 0
SMALL
GASTEIGER

@<TRIPOS>ATOM
      1 C          -4.5046   -2.3027   -0.0526 C.ar    1  LIG1        0.0390
      2 C          -3.1095   -2.3341   -0.0864 C.ar    1  LIG1       -0.0394
      3 C          -2.4125   -1.1416   -0.1011 C.ar    1  LIG1       -0.0406
      4 C          -3.1225    0.0602   -0.0937 C.ar    1  LIG1        0.0777
      5 C          -4.5281    0.0070   -0.0783 C.ar    1  LIG1        0.0903
      6 N          -5.1828   -1.1512   -0.0490 N.ar    1  LIG1       -0.2505
      7 H          -1.3284   -1.1257   -0.1119 H       1  LIG1        0.0632
      8 H          -2.5844   -3.2820   -0.0929 H       1  LIG1        0.0636
      9 C          -5.3255   -3.5581   -0.0220 C.3     1  LIG1       -0.0223
     10 H          -4.7002   -4.4519   -0.0123 H       1  LIG1        0.0292
     11 H          -5.9830   -3.5970   -0.8943 H       1  LIG1        0.0292
     12 H          -5.9662   -3.5658    0.8634 H       1  LIG1        0.0292
     13 N          -1.8202    2.2985   -0.0601 N.1     1  LIG1       -0.1908
     14 C          -2.4117    1.3047   -0.0758 C.1     1  LIG1        0.1013
     15 C          -6.3815    1.4869    0.8215 C.ar    1  LIG1        0.0482
     16 C          -5.3574    1.2428   -0.1157 C.ar    1  LIG1        0.0239
     17 C          -5.1615    2.1764   -1.1199 C.ar    1  LIG1       -0.0313
     18 C          -5.9534    3.3235   -1.1739 C.ar    1  LIG1        0.0784
     19 C          -6.9189    3.5121   -0.1755 C.ar    1  LIG1        0.0904
     20 N          -7.1193    2.5962    0.7730 N.ar    1  LIG1       -0.2499
     21 H          -4.4094    2.0168   -1.8842 H       1  LIG1        0.0638
     22 C          -6.7009    0.5370    1.9385 C.3     1  LIG1       -0.0217
     23 H          -5.8009    0.2580    2.4933 H       1  LIG1        0.0293
     24 H          -7.1296   -0.3860    1.5434 H       1  LIG1        0.0293
     25 H          -7.4101    1.0125    2.6143 H       1  LIG1        0.0293
     26 N          -5.6748    4.9578   -3.1620 N.1     1  LIG1       -0.1908
     27 C          -5.8010    4.2355   -2.2676 C.1     1  LIG1        0.1013
     28 C          -7.3927    6.0285   -0.0907 C.ar    1  LIG1        0.0482
     29 C          -7.8255    4.6908   -0.1288 C.ar    1  LIG1        0.0239
     30 C          -9.1897    4.4476   -0.0430 C.ar    1  LIG1       -0.0313
     31 C         -10.0892    5.5077   -0.0038 C.ar    1  LIG1        0.0784
     32 C          -9.5758    6.8167   -0.0429 C.ar    1  LIG1        0.0904
     33 N          -8.2661    7.0393   -0.0566 N.ar    1  LIG1       -0.2499
     34 H          -9.5503    3.4265    0.0018 H       1  LIG1        0.0638
     35 C          -5.9489    6.4376   -0.0445 C.3     1  LIG1       -0.0217
     36 H          -5.8530    7.3154    0.5956 H       1  LIG1        0.0293
     37 H          -5.6020    6.7156   -1.0433 H       1  LIG1        0.0293
     38 H          -5.3006    5.6450    0.3310 H       1  LIG1        0.0293
     39 N         -12.6192    4.9898    0.1917 N.1     1  LIG1       -0.1908
     40 C         -11.4927    5.2369    0.1043 C.1     1  LIG1        0.1013
     41 C         -10.2911    9.0897    0.8182 C.ar    1  LIG1        0.0475
     42 C         -10.4600    8.0126   -0.0764 C.ar    1  LIG1        0.0238
     43 C         -11.4661    8.0951   -1.0285 C.ar    1  LIG1       -0.0319
     44 C         -12.2645    9.2359   -1.0845 C.ar    1  LIG1        0.0705
     45 C         -12.0162   10.2526   -0.1640 C.ar    1  LIG1        0.0452
     46 N         -11.0666   10.1759    0.7586 N.ar    1  LIG1       -0.2582
     47 H         -11.6287    7.2892   -1.7351 H       1  LIG1        0.0638
     48 H         -12.6146   11.1597   -0.1786 H       1  LIG1        0.0843
     49 C          -9.2524    9.0905    1.9022 C.3     1  LIG1       -0.0217
     50 H          -9.4685    9.9053    2.5918 H       1  LIG1        0.0293
     51 H          -8.2567    9.2300    1.4759 H       1  LIG1        0.0293
     52 H          -9.2364    8.1432    2.4468 H       1  LIG1        0.0293
     53 N         -14.1406    9.4945   -2.8497 N.1     1  LIG1       -0.1908
     54 C         -13.3038    9.3731   -2.0609 C.1     1  LIG1        0.1007
@<TRIPOS>BOND
     1    26    27    3
     2    53    54    3
     3    27    18    1
     4    54    44    1
     5    21    17    1
     6    47    43    1
     7    18    17   ar
     8    18    19   ar
     9    17    16   ar
    10    44    43   ar
    11    44    45   ar
    12    37    35    1
    13    43    42   ar
    14    11     9    1
    15    48    45    1
    16    19    29    1
    17    19    20   ar
    18    45    46   ar
    19    29    28   ar
    20    29    30   ar
    21    16     5    1
    22    16    15   ar
    23     7     3    1
    24     3     4   ar
    25     3     2   ar
    26     4     5   ar
    27     4    14    1
    28     8     2    1
    29    28    33   ar
    30    28    35    1
    31     2     1   ar
    32     5     6   ar
    33    42    32    1
    34    42    41   ar
    35    14    13    3
    36    33    32   ar
    37     1     6   ar
    38     1     9    1
    39    35    38    1
    40    35    36    1
    41    30    31   ar
    42    30    34    1
    43    32    31   ar
    44     9    10    1
    45     9    12    1
    46    31    40    1
    47    40    39    3
    48    46    41   ar
    49    20    15   ar
    50    41    49    1
    51    15    22    1
    52    51    49    1
    53    24    22    1
    54    49    52    1
    55    49    50    1
    56    22    23    1
    57    22    25    1
