@<TRIPOS>MOLECULE
mol_data/opt/cam/geoms/mol2/6id6id-6id-6id.out
 54 57 0 0 0
SMALL
GASTEIGER

@<TRIPOS>ATOM
      1 C          -4.1450   -2.0348    0.7446 C.ar    1  LIG1        0.0390
      2 C          -3.1534   -2.3579   -0.1832 C.ar    1  LIG1       -0.0394
      3 C          -2.8407   -1.4469   -1.1733 C.ar    1  LIG1       -0.0406
      4 C          -3.5079   -0.2210   -1.2046 C.ar    1  LIG1        0.0777
      5 C          -4.4653    0.0454   -0.2101 C.ar    1  LIG1        0.0903
      6 N          -4.7771   -0.8573    0.7178 N.ar    1  LIG1       -0.2505
      7 H          -2.0985   -1.6740   -1.9304 H       1  LIG1        0.0632
      8 H          -2.6512   -3.3169   -0.1348 H       1  LIG1        0.0636
      9 C          -4.5567   -2.9859    1.8290 C.3     1  LIG1       -0.0223
     10 H          -4.0644   -3.9542    1.7282 H       1  LIG1        0.0292
     11 H          -5.6391   -3.1319    1.8077 H       1  LIG1        0.0292
     12 H          -4.3091   -2.5671    2.8082 H       1  LIG1        0.0292
     13 N          -3.0184    1.4374   -3.1312 N.1     1  LIG1       -0.1908
     14 C          -3.2426    0.7030   -2.2661 C.1     1  LIG1        0.1013
     15 C          -4.6817    2.5957   -0.0689 C.ar    1  LIG1        0.0482
     16 C          -5.2480    1.3116   -0.1592 C.ar    1  LIG1        0.0239
     17 C          -6.6319    1.2091   -0.1250 C.ar    1  LIG1       -0.0313
     18 C          -7.4182    2.3559   -0.0835 C.ar    1  LIG1        0.0784
     19 C          -6.7712    3.6045   -0.0668 C.ar    1  LIG1        0.0904
     20 N          -5.4462    3.6912   -0.0323 N.ar    1  LIG1       -0.2499
     21 H          -7.0973    0.2304   -0.1225 H       1  LIG1        0.0638
     22 C          -3.2053    2.8494    0.0303 C.3     1  LIG1       -0.0217
     23 H          -3.0378    3.7024    0.6888 H       1  LIG1        0.0293
     24 H          -2.7981    3.1023   -0.9523 H       1  LIG1        0.0293
     25 H          -2.6594    1.9858    0.4122 H       1  LIG1        0.0293
     26 N          -9.9948    2.1149    0.0166 N.1     1  LIG1       -0.1908
     27 C          -8.8453    2.2345   -0.0283 C.1     1  LIG1        0.1013
     28 C          -7.2897    5.9216    0.8297 C.ar    1  LIG1        0.0482
     29 C          -7.5310    4.8828   -0.0919 C.ar    1  LIG1        0.0239
     30 C          -8.4874    5.0947   -1.0720 C.ar    1  LIG1       -0.0313
     31 C          -9.1891    6.2989   -1.1170 C.ar    1  LIG1        0.0784
     32 C          -8.9210    7.2624   -0.1345 C.ar    1  LIG1        0.0904
     33 N          -7.9807    7.0612    0.7896 N.ar    1  LIG1       -0.2499
     34 H          -8.6840    4.3400   -1.8249 H       1  LIG1        0.0638
     35 C          -6.2651    5.8198    1.9216 C.3     1  LIG1       -0.0217
     36 H          -6.4005    6.6535    2.6091 H       1  LIG1        0.0293
     37 H          -5.2573    5.8497    1.5026 H       1  LIG1        0.0293
     38 H          -6.3540    4.8773    2.4679 H       1  LIG1        0.0293
     39 N         -10.8451    6.7158   -3.0627 N.1     1  LIG1       -0.1908
     40 C         -10.1117    6.5369   -2.1865 C.1     1  LIG1        0.1013
     41 C         -10.9953    8.7526    0.0141 C.ar    1  LIG1        0.0475
     42 C          -9.6015    8.5848   -0.0802 C.ar    1  LIG1        0.0238
     43 C          -8.7951    9.7173   -0.0573 C.ar    1  LIG1       -0.0319
     44 C          -9.3823   10.9761   -0.0079 C.ar    1  LIG1        0.0705
     45 C         -10.7774   11.0443    0.0360 C.ar    1  LIG1        0.0452
     46 N         -11.5494    9.9712    0.0640 N.ar    1  LIG1       -0.2582
     47 H          -7.7167    9.6109   -0.0765 H       1  LIG1        0.0638
     48 H         -11.2752   12.0101    0.0634 H       1  LIG1        0.0843
     49 C         -11.9674    7.6120    0.1093 C.3     1  LIG1       -0.0217
     50 H         -11.5081    6.6989    0.4904 H       1  LIG1        0.0293
     51 H         -12.3927    7.3934   -0.8740 H       1  LIG1        0.0293
     52 H         -12.7863    7.9065    0.7663 H       1  LIG1        0.0293
     53 N          -7.9551   13.1363    0.0122 N.1     1  LIG1       -0.1908
     54 C          -8.5905   12.1699    0.0032 C.1     1  LIG1        0.1007
@<TRIPOS>BOND
     1    13    14    3
     2    39    40    3
     3    14     4    1
     4    40    31    1
     5     7     3    1
     6    34    30    1
     7     4     3   ar
     8     4     5   ar
     9     3     2   ar
    10    31    30   ar
    11    31    32   ar
    12    30    29   ar
    13    24    22    1
    14    51    49    1
    15     5    16    1
    16     5     6   ar
    17     2     8    1
    18     2     1   ar
    19    16    17   ar
    20    16    15   ar
    21    32    42    1
    22    32    33   ar
    23    17    21    1
    24    17    18   ar
    25    29    19    1
    26    29    28   ar
    27    18    19   ar
    28    18    27    1
    29    42    43   ar
    30    42    41   ar
    31    47    43    1
    32    15    20   ar
    33    15    22    1
    34    19    20   ar
    35    43    44   ar
    36    27    26    3
    37    44    54    1
    38    44    45   ar
    39    54    53    3
    40    41    46   ar
    41    41    49    1
    42    22    25    1
    43    22    23    1
    44    45    48    1
    45    45    46   ar
    46    49    50    1
    47    49    52    1
    48     6     1   ar
    49     1     9    1
    50    33    28   ar
    51    28    35    1
    52    37    35    1
    53    10     9    1
    54    11     9    1
    55     9    12    1
    56    35    38    1
    57    35    36    1
