@<TRIPOS>MOLECULE
mol_data/opt/cam/geoms/mol2/6id6id.out
 28 29 0 0 0
SMALL
GASTEIGER

@<TRIPOS>ATOM
      1 C          -4.4186   -2.0242   -0.5113 C.ar    1  LIG1        0.0390
      2 C          -3.1138   -2.0854   -0.0198 C.ar    1  LIG1       -0.0394
      3 C          -2.5562   -0.9519    0.5389 C.ar    1  LIG1       -0.0406
      4 C          -3.3076    0.2235    0.5860 C.ar    1  LIG1        0.0777
      5 C          -4.6093    0.2090    0.0521 C.ar    1  LIG1        0.0903
      6 N          -5.1351   -0.8973   -0.4695 N.ar    1  LIG1       -0.2505
      7 H          -1.5511   -0.9635    0.9456 H       1  LIG1        0.0632
      8 H          -2.5531   -3.0113   -0.0703 H       1  LIG1        0.0636
      9 C          -5.0939   -3.2187   -1.1185 C.3     1  LIG1       -0.0223
     10 H          -4.4467   -4.0970   -1.1139 H       1  LIG1        0.0292
     11 H          -5.3860   -3.0004   -2.1488 H       1  LIG1        0.0292
     12 H          -6.0090   -3.4520   -0.5682 H       1  LIG1        0.0292
     13 N          -2.2676    2.3206    1.6938 N.1     1  LIG1       -0.1908
     14 C          -2.7466    1.3934    1.1952 C.1     1  LIG1        0.1013
     15 C          -6.7766    1.4281    0.5294 C.ar    1  LIG1        0.0475
     16 C          -5.4617    1.4292    0.0206 C.ar    1  LIG1        0.0238
     17 C          -4.9743    2.5969   -0.5483 C.ar    1  LIG1       -0.0319
     18 C          -5.7954    3.7212   -0.6146 C.ar    1  LIG1        0.0705
     19 C          -7.0839    3.6212   -0.0927 C.ar    1  LIG1        0.0452
     20 N          -7.5529    2.5133    0.4658 N.ar    1  LIG1       -0.2582
     21 H          -3.9687    2.6405   -0.9509 H       1  LIG1        0.0638
     22 H          -7.7553    4.4749   -0.1295 H       1  LIG1        0.0843
     23 C          -7.3888    0.2252    1.1869 C.3     1  LIG1       -0.0217
     24 H          -6.7092   -0.2251    1.9149 H       1  LIG1        0.0293
     25 H          -7.6146   -0.5424    0.4435 H       1  LIG1        0.0293
     26 H          -8.3083    0.5288    1.6854 H       1  LIG1        0.0293
     27 N          -4.9846    5.9287   -1.6973 N.1     1  LIG1       -0.1908
     28 C          -5.3416    4.9424   -1.2106 C.1     1  LIG1        0.1007
@<TRIPOS>BOND
     1    11     9    1
     2    27    28    3
     3    28    18    1
     4     9    10    1
     5     9    12    1
     6     9     1    1
     7    21    17    1
     8    18    17   ar
     9    18    19   ar
    10    17    16   ar
    11     1     6   ar
    12     1     2   ar
    13     6     5   ar
    14    22    19    1
    15    19    20   ar
    16     8     2    1
    17     2     3   ar
    18    16     5    1
    19    16    15   ar
    20     5     4   ar
    21    25    23    1
    22    20    15   ar
    23    15    23    1
    24     3     4   ar
    25     3     7    1
    26     4    14    1
    27    23    26    1
    28    23    24    1
    29    14    13    3
