@<TRIPOS>MOLECULE
mol_data/opt/cam/geoms/mol2/6id6df-4if-4fd.out
 52 55 0 0 0
SMALL
GASTEIGER

@<TRIPOS>ATOM
      1 C          -4.3565   -2.2113   -0.2222 C.ar    1  LIG1        0.0390
      2 C          -2.9882   -2.2451    0.0523 C.ar    1  LIG1       -0.0394
      3 C          -2.3324   -1.0626    0.3355 C.ar    1  LIG1       -0.0406
      4 C          -3.0522    0.1337    0.3406 C.ar    1  LIG1        0.0778
      5 C          -4.4252    0.0822    0.0401 C.ar    1  LIG1        0.0914
      6 N          -5.0390   -1.0639   -0.2345 N.ar    1  LIG1       -0.2505
      7 H          -1.2731   -1.0514    0.5664 H       1  LIG1        0.0632
      8 H          -2.4535   -3.1877    0.0510 H       1  LIG1        0.0636
      9 C          -5.1463   -3.4516   -0.5140 C.3     1  LIG1       -0.0223
     10 H          -4.5376   -4.3527   -0.4236 H       1  LIG1        0.0292
     11 H          -5.5596   -3.4045   -1.5250 H       1  LIG1        0.0292
     12 H          -5.9910   -3.5165    0.1762 H       1  LIG1        0.0292
     13 N          -1.8131    2.3250    0.9477 N.1     1  LIG1       -0.1908
     14 C          -2.3821    1.3549    0.6770 C.1     1  LIG1        0.1013
     15 C          -6.5408    1.3042    0.6553 C.ar    1  LIG1        0.1501
     16 C          -5.2871    1.2926    0.0210 C.ar    1  LIG1        0.0409
     17 C          -4.9101    2.4411   -0.6614 C.ar    1  LIG1       -0.0061
     18 C          -5.7621    3.5360   -0.6849 C.ar    1  LIG1        0.1434
     19 C          -6.9792    3.4703    0.0152 C.ar    1  LIG1        0.1141
     20 N          -7.3505    2.3630    0.6484 N.ar    1  LIG1       -0.2320
     21 H          -3.9736    2.4984   -1.2029 H       1  LIG1        0.0662
     22 N          -7.4356   -0.7076    2.0379 N.1     1  LIG1       -0.1893
     23 C          -7.0270    0.1700    1.4067 C.1     1  LIG1        0.1198
     24 O          -5.3920    4.6150   -1.4046 O.3     1  LIG1       -0.5046
     25 H          -6.1175    5.2575   -1.4071 H       1  LIG1        0.2922
     26 C          -7.5773    5.8758    0.5382 C.ar    1  LIG1       -0.0404
     27 C          -8.5230    6.8963    0.4530 C.ar    1  LIG1       -0.0469
     28 C          -7.9235    4.6228    0.0059 C.ar    1  LIG1        0.0104
     29 C          -9.7850    6.7291   -0.1128 C.ar    1  LIG1        0.0274
     30 H          -8.2714    7.8696    0.8583 H       1  LIG1        0.0628
     31 C          -9.1877    4.4267   -0.5452 C.ar    1  LIG1       -0.0100
     32 C         -10.1152    5.4573   -0.6040 C.ar    1  LIG1        0.1253
     33 H          -9.4475    3.4430   -0.9266 H       1  LIG1        0.0661
     34 C          -6.2691    6.1183    1.2529 C.3     1  LIG1       -0.0391
     35 H          -6.2812    7.0913    1.7468 H       1  LIG1        0.0278
     36 H          -5.4078    6.1010    0.5791 H       1  LIG1        0.0278
     37 H          -6.0917    5.3580    2.0183 H       1  LIG1        0.0278
     38 O         -11.3502    5.2744   -1.1444 O.3     1  LIG1       -0.5061
     39 H         -11.4455    4.3563   -1.4243 H       1  LIG1        0.2922
     40 C         -10.3848    9.1235   -0.6288 C.ar    1  LIG1        0.1247
     41 C         -11.3022   10.1737   -0.6528 C.ar    1  LIG1       -0.0184
     42 C         -10.7569    7.8520   -0.1597 C.ar    1  LIG1        0.0283
     43 C         -12.5996    9.9832   -0.2161 C.ar    1  LIG1       -0.0409
     44 H         -10.9906   11.1472   -1.0214 H       1  LIG1        0.0655
     45 C         -12.0686    7.6794    0.2714 C.ar    1  LIG1       -0.0330
     46 C         -12.9906    8.7270    0.2506 C.ar    1  LIG1        0.0526
     47 H         -12.3811    6.7055    0.6252 H       1  LIG1        0.0638
     48 H         -13.3108   10.8007   -0.2356 H       1  LIG1        0.0631
     49 O          -9.1109    9.2964   -1.0630 O.3     1  LIG1       -0.5062
     50 H          -9.0018   10.1990   -1.3859 H       1  LIG1        0.2922
     51 N         -15.4174    8.3458    1.0733 N.1     1  LIG1       -0.1909
     52 C         -14.3330    8.5131    0.7062 C.1     1  LIG1        0.0992
@<TRIPOS>BOND
     1    11     9    1
     2    39    38    1
     3    25    24    1
     4    24    18    1
     5    50    49    1
     6    21    17    1
     7    38    32    1
     8    49    40    1
     9    44    41    1
    10    33    31    1
    11    18    17   ar
    12    18    19   ar
    13    17    16   ar
    14    41    40   ar
    15    41    43   ar
    16    40    42   ar
    17    32    31   ar
    18    32    29   ar
    19    31    28   ar
    20     9    10    1
    21     9     1    1
    22     9    12    1
    23    48    43    1
    24     6     1   ar
    25     6     5   ar
    26     1     2   ar
    27    43    46   ar
    28    42    29    1
    29    42    45   ar
    30    29    27   ar
    31    28    19    1
    32    28    26   ar
    33    19    20   ar
    34    16     5    1
    35    16    15   ar
    36     5     4   ar
    37     8     2    1
    38     2     3   ar
    39    46    45   ar
    40    46    52    1
    41    45    47    1
    42     3     4   ar
    43     3     7    1
    44     4    14    1
    45    27    26   ar
    46    27    30    1
    47    26    34    1
    48    36    34    1
    49    20    15   ar
    50    15    23    1
    51    14    13    3
    52    52    51    3
    53    34    35    1
    54    34    37    1
    55    23    22    3
