@<TRIPOS>MOLECULE
mol_data/opt/cam/geoms/mol2/6id6id6id.out
 41 43 0 0 0
SMALL
GASTEIGER

@<TRIPOS>ATOM
      1 C          -4.1121   -1.9128   -0.9734 C.ar    1  LIG1        0.0390
      2 C          -3.0419   -2.1584   -0.1116 C.ar    1  LIG1       -0.0394
      3 C          -2.7660   -1.2479    0.8898 C.ar    1  LIG1       -0.0406
      4 C          -3.5563   -0.1029    1.0041 C.ar    1  LIG1        0.0777
      5 C          -4.6041    0.0818    0.0840 C.ar    1  LIG1        0.0903
      6 N          -4.8652   -0.8143   -0.8651 N.ar    1  LIG1       -0.2505
      7 H          -1.9531   -1.4117    1.5884 H       1  LIG1        0.0632
      8 H          -2.4439   -3.0551   -0.2245 H       1  LIG1        0.0636
      9 C          -4.4799   -2.8654   -2.0725 C.3     1  LIG1       -0.0223
     10 H          -3.8095   -3.7254   -2.1056 H       1  LIG1        0.0292
     11 H          -4.4476   -2.3541   -3.0378 H       1  LIG1        0.0292
     12 H          -5.5035   -3.2225   -1.9323 H       1  LIG1        0.0292
     13 N          -3.0760    1.5680    2.9234 N.1     1  LIG1       -0.1908
     14 C          -3.3003    0.8306    2.0610 C.1     1  LIG1        0.1013
     15 C          -6.8721    1.2106    0.1347 C.ar    1  LIG1        0.0482
     16 C          -5.4656    1.2955    0.1054 C.ar    1  LIG1        0.0239
     17 C          -4.8923    2.5558    0.0740 C.ar    1  LIG1       -0.0313
     18 C          -5.7019    3.6917    0.0466 C.ar    1  LIG1        0.0784
     19 C          -7.0934    3.5177    0.0542 C.ar    1  LIG1        0.0904
     20 N          -7.6367    2.3016    0.1128 N.ar    1  LIG1       -0.2499
     21 H          -3.8148    2.6740    0.0648 H       1  LIG1        0.0638
     22 C          -7.6005   -0.0999    0.2049 C.3     1  LIG1       -0.0217
     23 H          -7.1890   -0.7447    0.9858 H       1  LIG1        0.0293
     24 H          -7.5029   -0.6399   -0.7392 H       1  LIG1        0.0293
     25 H          -8.6536    0.0906    0.4070 H       1  LIG1        0.0293
     26 N          -4.5808    6.0256   -0.0006 N.1     1  LIG1       -0.1908
     27 C          -5.0940    4.9895    0.0247 C.1     1  LIG1        0.1013
     28 C          -9.0778    4.8319    0.9152 C.ar    1  LIG1        0.0475
     29 C          -8.0373    4.6652   -0.0216 C.ar    1  LIG1        0.0238
     30 C          -7.9201    5.5870   -1.0518 C.ar    1  LIG1       -0.0319
     31 C          -8.8366    6.6331   -1.1415 C.ar    1  LIG1        0.0705
     32 C          -9.8375    6.7099   -0.1745 C.ar    1  LIG1        0.0452
     33 N          -9.9472    5.8419    0.8223 N.ar    1  LIG1       -0.2582
     34 H          -7.1330    5.4956   -1.7915 H       1  LIG1        0.0638
     35 H         -10.5734    7.5085   -0.2134 H       1  LIG1        0.0843
     36 C          -9.2714    3.9075    2.0820 C.3     1  LIG1       -0.0217
     37 H          -8.3298    3.7109    2.6008 H       1  LIG1        0.0293
     38 H          -9.6583    2.9433    1.7453 H       1  LIG1        0.0293
     39 H          -9.9808    4.3604    2.7733 H       1  LIG1        0.0293
     40 N          -8.7238    8.3728   -3.0555 N.1     1  LIG1       -0.1908
     41 C          -8.7679    7.5967   -2.1994 C.1     1  LIG1        0.1007
@<TRIPOS>BOND
     1    40    41    3
     2    11     9    1
     3    41    31    1
     4    10     9    1
     5     9    12    1
     6     9     1    1
     7    34    30    1
     8    31    30   ar
     9    31    32   ar
    10    30    29   ar
    11     1     6   ar
    12     1     2   ar
    13     6     5   ar
    14    24    22    1
    15     8     2    1
    16    35    32    1
    17    32    33   ar
    18     2     3   ar
    19    29    19    1
    20    29    28   ar
    21    26    27    3
    22    27    18    1
    23    18    19   ar
    24    18    17   ar
    25    19    20   ar
    26    21    17    1
    27    17    16   ar
    28     5    16    1
    29     5     4   ar
    30    16    15   ar
    31    20    15   ar
    32    15    22    1
    33    22    25    1
    34    22    23    1
    35    33    28   ar
    36     3     4   ar
    37     3     7    1
    38    28    36    1
    39     4    14    1
    40    38    36    1
    41    14    13    3
    42    36    37    1
    43    36    39    1
