@<TRIPOS>MOLECULE
mol_data/opt/cam/geoms/mol2/6id6id-4id6id.out
 55 58 0 0 0
SMALL
GASTEIGER

@<TRIPOS>ATOM
      1 C          -4.0799   -2.0348    0.6470 C.ar    1  LIG1        0.0390
      2 C          -3.0916   -2.3179   -0.2972 C.ar    1  LIG1       -0.0394
      3 C          -2.8030   -1.3765   -1.2660 C.ar    1  LIG1       -0.0406
      4 C          -3.4905   -0.1616   -1.2600 C.ar    1  LIG1        0.0777
      5 C          -4.4436    0.0637   -0.2511 C.ar    1  LIG1        0.0903
      6 N          -4.7314   -0.8676    0.6562 N.ar    1  LIG1       -0.2505
      7 H          -2.0637   -1.5714   -2.0348 H       1  LIG1        0.0632
      8 H          -2.5731   -3.2692   -0.2777 H       1  LIG1        0.0636
      9 C          -4.4698   -3.0216    1.7075 C.3     1  LIG1       -0.0223
     10 H          -3.9170   -3.9574    1.6143 H       1  LIG1        0.0292
     11 H          -5.5399   -3.2344    1.6453 H       1  LIG1        0.0292
     12 H          -4.2843   -2.5994    2.6986 H       1  LIG1        0.0292
     13 N          -3.0400    1.5528   -3.1468 N.1     1  LIG1       -0.1908
     14 C          -3.2479    0.7938   -2.2989 C.1     1  LIG1        0.1013
     15 C          -4.7002    2.6053   -0.0444 C.ar    1  LIG1        0.0482
     16 C          -5.2461    1.3150   -0.1621 C.ar    1  LIG1        0.0239
     17 C          -6.6280    1.1898   -0.1193 C.ar    1  LIG1       -0.0313
     18 C          -7.4318    2.3227   -0.0465 C.ar    1  LIG1        0.0783
     19 C          -6.8056    3.5816   -0.0086 C.ar    1  LIG1        0.0889
     20 N          -5.4813    3.6875    0.0226 N.ar    1  LIG1       -0.2499
     21 H          -7.0778    0.2039   -0.1349 H       1  LIG1        0.0638
     22 C          -3.2272    2.8803    0.0526 C.3     1  LIG1       -0.0217
     23 H          -3.0693    3.7173    0.7336 H       1  LIG1        0.0293
     24 H          -2.8308    3.1676   -0.9250 H       1  LIG1        0.0293
     25 H          -2.6641    2.0158    0.4069 H       1  LIG1        0.0293
     26 N         -10.0011    2.0237    0.0844 N.1     1  LIG1       -0.1908
     27 C          -8.8560    2.1741    0.0229 C.1     1  LIG1        0.1013
     28 C          -7.3712    5.8492    0.9593 C.ar    1  LIG1       -0.0406
     29 C          -8.1290    7.0154    0.8800 C.ar    1  LIG1       -0.0492
     30 C          -7.5850    4.8506   -0.0074 C.ar    1  LIG1        0.0058
     31 C          -9.0774    7.2379   -0.1151 C.ar    1  LIG1        0.0015
     32 H          -7.9848    7.7825    1.6342 H       1  LIG1        0.0627
     33 C          -8.5260    5.0556   -1.0100 C.ar    1  LIG1       -0.0343
     34 C          -9.2646    6.2363   -1.0785 C.ar    1  LIG1        0.0601
     35 H          -8.6839    4.2982   -1.7691 H       1  LIG1        0.0637
     36 C          -6.3748    5.6911    2.0749 C.3     1  LIG1       -0.0391
     37 H          -6.5033    6.4786    2.8194 H       1  LIG1        0.0278
     38 H          -5.3545    5.7330    1.6891 H       1  LIG1        0.0278
     39 H          -6.4845    4.7255    2.5751 H       1  LIG1        0.0278
     40 N         -10.9344    6.5498   -3.0354 N.1     1  LIG1       -0.1908
     41 C         -10.1895    6.4152   -2.1607 C.1     1  LIG1        0.0998
     42 C         -11.2138    8.6098    0.0699 C.ar    1  LIG1        0.0460
     43 C          -9.8234    8.5253   -0.1457 C.ar    1  LIG1        0.0056
     44 C          -9.1177    9.7029   -0.3546 C.ar    1  LIG1       -0.0334
     45 C          -9.7974   10.9189   -0.3702 C.ar    1  LIG1        0.0704
     46 C         -11.1772   10.8984   -0.1655 C.ar    1  LIG1        0.0452
     47 N         -11.8560    9.7826    0.0557 N.ar    1  LIG1       -0.2583
     48 H          -8.0453    9.6757   -0.5144 H       1  LIG1        0.0637
     49 H         -11.7441   11.8256   -0.1746 H       1  LIG1        0.0843
     50 C         -12.0666    7.4046    0.3410 C.3     1  LIG1       -0.0218
     51 H         -11.5278    6.6338    0.8950 H       1  LIG1        0.0293
     52 H         -12.4067    6.9634   -0.6008 H       1  LIG1        0.0293
     53 H         -12.9476    7.7138    0.9028 H       1  LIG1        0.0293
     54 N          -8.5476   13.1542   -0.7501 N.1     1  LIG1       -0.1908
     55 C          -9.1057   12.1551   -0.5832 C.1     1  LIG1        0.1007
@<TRIPOS>BOND
     1    13    14    3
     2    40    41    3
     3    14     4    1
     4    41    34    1
     5     7     3    1
     6    35    33    1
     7     3     4   ar
     8     3     2   ar
     9     4     5   ar
    10    34    33   ar
    11    34    31   ar
    12    33    30   ar
    13    24    22    1
    14    54    55    3
    15    52    50    1
    16    55    45    1
    17    48    44    1
    18    45    44   ar
    19    45    46   ar
    20    44    43   ar
    21     2     8    1
    22     2     1   ar
    23     5    16    1
    24     5     6   ar
    25    49    46    1
    26    46    47   ar
    27    16    17   ar
    28    16    15   ar
    29    43    31    1
    30    43    42   ar
    31    21    17    1
    32    17    18   ar
    33    31    29   ar
    34    18    19   ar
    35    18    27    1
    36    15    20   ar
    37    15    22    1
    38    19    30    1
    39    19    20   ar
    40    30    28   ar
    41    27    26    3
    42    22    25    1
    43    22    23    1
    44    47    42   ar
    45    42    50    1
    46    50    51    1
    47    50    53    1
    48     1     6   ar
    49     1     9    1
    50    29    28   ar
    51    29    32    1
    52    28    36    1
    53    10     9    1
    54    11     9    1
    55    38    36    1
    56     9    12    1
    57    36    39    1
    58    36    37    1
