@<TRIPOS>MOLECULE
mol_data/opt/cam/geoms/mol2/6id6id-6id6id-.out
 54 57 0 0 0
SMALL
GASTEIGER

@<TRIPOS>ATOM
      1 C          -4.3324   -2.1655    0.4503 C.ar    1  LIG1        0.0390
      2 C          -3.0527   -2.2974   -0.0912 C.ar    1  LIG1       -0.0394
      3 C          -2.4672   -1.2044   -0.7001 C.ar    1  LIG1       -0.0406
      4 C          -3.1617    0.0060   -0.7366 C.ar    1  LIG1        0.0777
      5 C          -4.4301    0.0681   -0.1334 C.ar    1  LIG1        0.0903
      6 N          -4.9930   -1.0034    0.4210 N.ar    1  LIG1       -0.2505
      7 H          -1.4874   -1.2759   -1.1590 H       1  LIG1        0.0632
      8 H          -2.5364   -3.2492   -0.0479 H       1  LIG1        0.0636
      9 C          -5.0418   -3.3169    1.0993 C.3     1  LIG1       -0.0223
     10 H          -4.4667   -4.2411    1.0267 H       1  LIG1        0.0292
     11 H          -6.0174   -3.4672    0.6310 H       1  LIG1        0.0292
     12 H          -5.2233   -3.0979    2.1549 H       1  LIG1        0.0292
     13 N          -2.1288    2.0262   -1.9830 N.1     1  LIG1       -0.1908
     14 C          -2.5966    1.1286   -1.4231 C.1     1  LIG1        0.1013
     15 C          -4.8644    2.5304    0.4265 C.ar    1  LIG1        0.0482
     16 C          -5.2635    1.3030   -0.1306 C.ar    1  LIG1        0.0239
     17 C          -6.5375    1.2193   -0.6750 C.ar    1  LIG1       -0.0313
     18 C          -7.3639    2.3383   -0.6975 C.ar    1  LIG1        0.0784
     19 C          -6.8847    3.5293   -0.1264 C.ar    1  LIG1        0.0904
     20 N          -5.6704    3.5973    0.4097 N.ar    1  LIG1       -0.2499
     21 H          -6.8833    0.2812   -1.0935 H       1  LIG1        0.0638
     22 C          -3.5445    2.7449    1.1091 C.3     1  LIG1       -0.0217
     23 H          -3.6845    3.4450    1.9330 H       1  LIG1        0.0293
     24 H          -2.8264    3.1871    0.4131 H       1  LIG1        0.0293
     25 H          -3.1182    1.8162    1.4908 H       1  LIG1        0.0293
     26 N          -9.6743    2.1846   -1.8553 N.1     1  LIG1       -0.1908
     27 C          -8.6444    2.2612   -1.3344 C.1     1  LIG1        0.1013
     28 C          -8.9256    4.9548    0.4727 C.ar    1  LIG1        0.0482
     29 C          -7.6624    4.7992   -0.1236 C.ar    1  LIG1        0.0239
     30 C          -7.0776    5.9130   -0.7102 C.ar    1  LIG1       -0.0313
     31 C          -7.7551    7.1281   -0.7321 C.ar    1  LIG1        0.0784
     32 C          -9.0168    7.1979   -0.1170 C.ar    1  LIG1        0.0904
     33 N          -9.5625    6.1300    0.4571 N.ar    1  LIG1       -0.2499
     34 H          -6.0956    5.8315   -1.1621 H       1  LIG1        0.0638
     35 C          -9.6442    3.8543    1.1987 C.3     1  LIG1       -0.0217
     36 H          -8.9630    3.0888    1.5732 H       1  LIG1        0.0293
     37 H         -10.3656    3.3709    0.5343 H       1  LIG1        0.0293
     38 H         -10.1972    4.2865    2.0329 H       1  LIG1        0.0293
     39 N          -6.6934    9.1397   -1.9687 N.1     1  LIG1       -0.1908
     40 C          -7.1754    8.2479   -1.4118 C.1     1  LIG1        0.1013
     41 C          -9.4348    9.6572    0.4498 C.ar    1  LIG1        0.0475
     42 C          -9.8488    8.4329   -0.1052 C.ar    1  LIG1        0.0238
     43 C         -11.1363    8.3412   -0.6218 C.ar    1  LIG1       -0.0319
     44 C         -11.9508    9.4677   -0.6338 C.ar    1  LIG1        0.0705
     45 C         -11.4354   10.6522   -0.1011 C.ar    1  LIG1        0.0452
     46 N         -10.2296   10.7351    0.4354 N.ar    1  LIG1       -0.2582
     47 H         -11.4961    7.3952   -1.0097 H       1  LIG1        0.0638
     48 H         -12.0372   11.5574   -0.1023 H       1  LIG1        0.0843
     49 C          -8.1113    9.8556    1.1314 C.3     1  LIG1       -0.0217
     50 H          -8.2473   10.5489    1.9620 H       1  LIG1        0.0293
     51 H          -7.3920   10.3022    0.4396 H       1  LIG1        0.0293
     52 H          -7.6887    8.9217    1.5050 H       1  LIG1        0.0293
     53 N         -14.3527    9.3980   -1.5980 N.1     1  LIG1       -0.1908
     54 C         -13.2794    9.4251   -1.1682 C.1     1  LIG1        0.1007
@<TRIPOS>BOND
     1    13    14    3
     2    39    40    3
     3    26    27    3
     4    53    54    3
     5    14     4    1
     6    40    31    1
     7    27    18    1
     8    54    44    1
     9    34    30    1
    10     7     3    1
    11    21    17    1
    12    47    43    1
    13     4     3   ar
    14     4     5   ar
    15    31    30   ar
    16    31    32   ar
    17    30    29   ar
    18     3     2   ar
    19    18    17   ar
    20    18    19   ar
    21    17    16   ar
    22    44    43   ar
    23    44    45   ar
    24    43    42   ar
    25     5    16    1
    26     5     6   ar
    27    16    15   ar
    28    19    29    1
    29    19    20   ar
    30    29    28   ar
    31    32    42    1
    32    32    33   ar
    33    42    41   ar
    34    48    45    1
    35    45    46   ar
    36     2     8    1
    37     2     1   ar
    38    20    15   ar
    39    24    22    1
    40     6     1   ar
    41    15    22    1
    42    46    41   ar
    43    51    49    1
    44    41    49    1
    45     1     9    1
    46    33    28   ar
    47    28    35    1
    48    37    35    1
    49    11     9    1
    50    10     9    1
    51     9    12    1
    52    22    25    1
    53    22    23    1
    54    49    52    1
    55    49    50    1
    56    35    36    1
    57    35    38    1
