@<TRIPOS>MOLECULE
mol_data/opt/cam/geoms/mol2/6id6id6id-6id.out
 54 57 0 0 0
SMALL
GASTEIGER

@<TRIPOS>ATOM
      1 C          -4.3283   -2.2092   -0.4853 C.ar    1  LIG1        0.0390
      2 C          -3.0241   -2.2752    0.0076 C.ar    1  LIG1       -0.0394
      3 C          -2.4560   -1.1409    0.5541 C.ar    1  LIG1       -0.0406
      4 C          -3.1972    0.0414    0.5873 C.ar    1  LIG1        0.0777
      5 C          -4.4984    0.0308    0.0532 C.ar    1  LIG1        0.0903
      6 N          -5.0352   -1.0753   -0.4560 N.ar    1  LIG1       -0.2505
      7 H          -1.4510   -1.1572    0.9608 H       1  LIG1        0.0632
      8 H          -2.4714   -3.2065   -0.0325 H       1  LIG1        0.0636
      9 C          -5.0132   -3.4048   -1.0787 C.3     1  LIG1       -0.0223
     10 H          -4.3695   -4.2855   -1.0734 H       1  LIG1        0.0292
     11 H          -5.3133   -3.1923   -2.1078 H       1  LIG1        0.0292
     12 H          -5.9243   -3.6314   -0.5188 H       1  LIG1        0.0292
     13 N          -2.1586    2.1546    1.6658 N.1     1  LIG1       -0.1908
     14 C          -2.6318    1.2169    1.1812 C.1     1  LIG1        0.1013
     15 C          -6.6530    1.2888    0.5102 C.ar    1  LIG1        0.0482
     16 C          -5.3358    1.2610    0.0095 C.ar    1  LIG1        0.0239
     17 C          -4.8396    2.4147   -0.5752 C.ar    1  LIG1       -0.0313
     18 C          -5.6307    3.5615   -0.6417 C.ar    1  LIG1        0.0784
     19 C          -6.9137    3.5174   -0.0794 C.ar    1  LIG1        0.0904
     20 N          -7.3942    2.3961    0.4590 N.ar    1  LIG1       -0.2499
     21 H          -3.8444    2.4330   -1.0046 H       1  LIG1        0.0638
     22 C          -7.3042    0.0949    1.1448 C.3     1  LIG1       -0.0217
     23 H          -6.6602   -0.3521    1.9067 H       1  LIG1        0.0293
     24 H          -7.4951   -0.6775    0.3971 H       1  LIG1        0.0293
     25 H          -8.2433    0.4057    1.6001 H       1  LIG1        0.0293
     26 N          -4.7393    5.6456   -1.8921 N.1     1  LIG1       -0.1908
     27 C          -5.1410    4.7201   -1.3266 C.1     1  LIG1        0.1013
     28 C          -7.5686    5.9342    0.4598 C.ar    1  LIG1        0.0482
     29 C          -7.8513    4.6730   -0.0940 C.ar    1  LIG1        0.0239
     30 C          -9.1073    4.4734   -0.6505 C.ar    1  LIG1       -0.0313
     31 C         -10.0297    5.5139   -0.6884 C.ar    1  LIG1        0.0784
     32 C          -9.6657    6.7462   -0.1188 C.ar    1  LIG1        0.0904
     33 N          -8.4673    6.9239    0.4285 N.ar    1  LIG1       -0.2499
     34 H          -9.3638    3.5057   -1.0660 H       1  LIG1        0.0638
     35 C          -6.2819    6.2701    1.1565 C.3     1  LIG1       -0.0217
     36 H          -6.4959    6.9565    1.9760 H       1  LIG1        0.0293
     37 H          -5.5994    6.7756    0.4678 H       1  LIG1        0.0293
     38 H          -5.7746    5.3868    1.5468 H       1  LIG1        0.0293
     39 N         -12.3001    5.1340   -1.8729 N.1     1  LIG1       -0.1908
     40 C         -11.2901    5.3152   -1.3391 C.1     1  LIG1        0.1013
     41 C         -11.8365    7.9739    0.4490 C.ar    1  LIG1        0.0475
     42 C         -10.5548    7.9407   -0.1290 C.ar    1  LIG1        0.0238
     43 C         -10.0517    9.1076   -0.6933 C.ar    1  LIG1       -0.0319
     44 C         -10.8457   10.2483   -0.7280 C.ar    1  LIG1        0.0705
     45 C         -12.1239   10.1719   -0.1689 C.ar    1  LIG1        0.0452
     46 N         -12.5911    9.0798    0.4124 N.ar    1  LIG1       -0.2582
     47 H          -9.0472    9.1210   -1.1002 H       1  LIG1        0.0638
     48 H         -12.7789   11.0391   -0.1865 H       1  LIG1        0.0843
     49 C         -12.4485    6.8138    1.1806 C.3     1  LIG1       -0.0217
     50 H         -11.6998    6.1195    1.5649 H       1  LIG1        0.0293
     51 H         -13.1194    6.2594    0.5187 H       1  LIG1        0.0293
     52 H         -13.0435    7.1989    2.0093 H       1  LIG1        0.0293
     53 N         -10.0054   12.4585   -1.7828 N.1     1  LIG1       -0.1908
     54 C         -10.3766   11.4694   -1.3123 C.1     1  LIG1        0.1007
@<TRIPOS>BOND
     1    11     9    1
     2    26    27    3
     3    39    40    3
     4    53    54    3
     5    40    31    1
     6    27    18    1
     7    54    44    1
     8    47    43    1
     9     9    10    1
    10     9    12    1
    11     9     1    1
    12    34    30    1
    13    21    17    1
    14    44    43   ar
    15    44    45   ar
    16    43    42   ar
    17    31    30   ar
    18    31    32   ar
    19    30    29   ar
    20    18    17   ar
    21    18    19   ar
    22    17    16   ar
    23     1     6   ar
    24     1     2   ar
    25     6     5   ar
    26    48    45    1
    27    45    46   ar
    28    42    32    1
    29    42    41   ar
    30    32    33   ar
    31    29    19    1
    32    29    28   ar
    33    19    20   ar
    34     8     2    1
    35     2     3   ar
    36    16     5    1
    37    16    15   ar
    38     5     4   ar
    39    24    22    1
    40    46    41   ar
    41    33    28   ar
    42    41    49    1
    43    20    15   ar
    44    28    35    1
    45    37    35    1
    46    15    22    1
    47    51    49    1
    48     3     4   ar
    49     3     7    1
    50     4    14    1
    51    22    25    1
    52    22    23    1
    53    35    38    1
    54    35    36    1
    55    49    50    1
    56    49    52    1
    57    14    13    3
