@<TRIPOS>MOLECULE
mol_data/opt/cam/geoms/mol2/6id6id-6id.out
 41 43 0 0 0
SMALL
GASTEIGER

@<TRIPOS>ATOM
      1 C          -4.4106   -2.1047    0.2719 C.ar    1  LIG1        0.0390
      2 C          -3.0631   -2.1847   -0.0828 C.ar    1  LIG1       -0.0394
      3 C          -2.4091   -1.0381   -0.4902 C.ar    1  LIG1       -0.0406
      4 C          -3.1071    0.1705   -0.5134 C.ar    1  LIG1        0.0777
      5 C          -4.4516    0.1754   -0.1020 C.ar    1  LIG1        0.0903
      6 N          -5.0754   -0.9448    0.2569 N.ar    1  LIG1       -0.2505
      7 H          -1.3712   -1.0653   -0.8026 H       1  LIG1        0.0632
      8 H          -2.5459   -3.1365   -0.0542 H       1  LIG1        0.0636
      9 C          -5.1935   -3.3135    0.6916 C.3     1  LIG1       -0.0223
     10 H          -4.5926   -4.2229    0.6447 H       1  LIG1        0.0292
     11 H          -6.0693   -3.4337    0.0492 H       1  LIG1        0.0292
     12 H          -5.5609   -3.1858    1.7132 H       1  LIG1        0.0292
     13 N          -1.9249    2.2983   -1.3947 N.1     1  LIG1       -0.1908
     14 C          -2.4609    1.3532   -0.9979 C.1     1  LIG1        0.1013
     15 C          -4.9951    2.5719    0.6228 C.ar    1  LIG1        0.0482
     16 C          -5.2922    1.4051   -0.1027 C.ar    1  LIG1        0.0239
     17 C          -6.4722    1.3771   -0.8331 C.ar    1  LIG1       -0.0313
     18 C          -7.3011    2.4939   -0.8677 C.ar    1  LIG1        0.0784
     19 C          -6.9267    3.6236   -0.1200 C.ar    1  LIG1        0.0904
     20 N          -5.8039    3.6360    0.5917 N.ar    1  LIG1       -0.2499
     21 H          -6.7412    0.4849   -1.3865 H       1  LIG1        0.0638
     22 C          -3.7924    2.7175    1.5098 C.3     1  LIG1       -0.0217
     23 H          -4.0620    3.3328    2.3684 H       1  LIG1        0.0293
     24 H          -2.9865    3.2266    0.9740 H       1  LIG1        0.0293
     25 H          -3.4131    1.7556    1.8576 H       1  LIG1        0.0293
     26 N          -9.4135    2.4416   -2.3634 N.1     1  LIG1       -0.1908
     27 C          -8.4737    2.4764   -1.6901 C.1     1  LIG1        0.1013
     28 C          -9.0550    4.9779    0.3039 C.ar    1  LIG1        0.0475
     29 C          -7.7134    4.8879   -0.1082 C.ar    1  LIG1        0.0238
     30 C          -7.0517    6.0558   -0.4707 C.ar    1  LIG1       -0.0319
     31 C          -7.7443    7.2612   -0.4765 C.ar    1  LIG1        0.0705
     32 C          -9.0882    7.2443   -0.0942 C.ar    1  LIG1        0.0452
     33 N          -9.7112    6.1454    0.2973 N.ar    1  LIG1       -0.2582
     34 H          -6.0036    6.0197   -0.7446 H       1  LIG1        0.0638
     35 H          -9.6669    8.1643   -0.0962 H       1  LIG1        0.0843
     36 C          -9.8471    3.8096    0.8170 C.3     1  LIG1       -0.0217
     37 H          -9.2125    3.0147    1.2117 H       1  LIG1        0.0293
     38 H         -10.4630    3.3886    0.0176 H       1  LIG1        0.0293
     39 H         -10.5173    4.1607    1.6022 H       1  LIG1        0.0293
     40 N          -6.6019    9.4815   -1.1609 N.1     1  LIG1       -0.1908
     41 C          -7.1087    8.4877   -0.8557 C.1     1  LIG1        0.1007
@<TRIPOS>BOND
     1    26    27    3
     2    27    18    1
     3    13    14    3
     4    21    17    1
     5    40    41    3
     6    14     4    1
     7    18    17   ar
     8    18    19   ar
     9    41    31    1
    10    17    16   ar
    11     7     3    1
    12    34    30    1
    13     4     3   ar
    14     4     5   ar
    15     3     2   ar
    16    31    30   ar
    17    31    32   ar
    18    30    29   ar
    19    19    29    1
    20    19    20   ar
    21    29    28   ar
    22    16     5    1
    23    16    15   ar
    24     5     6   ar
    25    35    32    1
    26    32    33   ar
    27     2     8    1
    28     2     1   ar
    29    38    36    1
    30    11     9    1
    31     6     1   ar
    32     1     9    1
    33    33    28   ar
    34    28    36    1
    35    20    15   ar
    36    15    22    1
    37    10     9    1
    38     9    12    1
    39    36    37    1
    40    36    39    1
    41    24    22    1
    42    22    25    1
    43    22    23    1
