@<TRIPOS>MOLECULE
mol_data/opt/cam/geoms/mol2/6id6id-.out
 28 29 0 0 0
SMALL
GASTEIGER

@<TRIPOS>ATOM
      1 C          -4.4340   -2.0059    0.3943 C.ar    1  LIG1        0.0390
      2 C          -3.1507   -2.1190   -0.1424 C.ar    1  LIG1       -0.0394
      3 C          -2.5672   -1.0072   -0.7184 C.ar    1  LIG1       -0.0406
      4 C          -3.2667    0.2006   -0.7270 C.ar    1  LIG1        0.0777
      5 C          -4.5390    0.2432   -0.1294 C.ar    1  LIG1        0.0903
      6 N          -5.0991   -0.8465    0.3927 N.ar    1  LIG1       -0.2505
      7 H          -1.5844   -1.0619   -1.1731 H       1  LIG1        0.0632
      8 H          -2.6304   -3.0693   -0.1208 H       1  LIG1        0.0636
      9 C          -5.1436   -3.1771    1.0073 C.3     1  LIG1       -0.0223
     10 H          -4.5555   -4.0930    0.9324 H       1  LIG1        0.0292
     11 H          -6.1061   -3.3317    0.5135 H       1  LIG1        0.0292
     12 H          -5.3531   -2.9780    2.0615 H       1  LIG1        0.0292
     13 N          -2.2183    2.2456   -1.9191 N.1     1  LIG1       -0.1908
     14 C          -2.6974    1.3402   -1.3817 C.1     1  LIG1        0.1013
     15 C          -4.9763    2.6874    0.4929 C.ar    1  LIG1        0.0475
     16 C          -5.3766    1.4747   -0.0966 C.ar    1  LIG1        0.0238
     17 C          -6.6577    1.3901   -0.6297 C.ar    1  LIG1       -0.0319
     18 C          -7.4789    2.5118   -0.6236 C.ar    1  LIG1        0.0705
     19 C          -6.9765    3.6855   -0.0559 C.ar    1  LIG1        0.0452
     20 N          -5.7771    3.7609    0.4960 N.ar    1  LIG1       -0.2582
     21 H          -7.0078    0.4519   -1.0441 H       1  LIG1        0.0638
     22 H          -7.5831    4.5873   -0.0414 H       1  LIG1        0.0843
     23 C          -3.6617    2.8777    1.1936 C.3     1  LIG1       -0.0217
     24 H          -3.8113    3.5498    2.0391 H       1  LIG1        0.0293
     25 H          -2.9381    3.3458    0.5206 H       1  LIG1        0.0293
     26 H          -3.2368    1.9377    1.5488 H       1  LIG1        0.0293
     27 N          -9.8675    2.4444   -1.6203 N.1     1  LIG1       -0.1908
     28 C          -8.8003    2.4725   -1.1754 C.1     1  LIG1        0.1007
@<TRIPOS>BOND
     1    13    14    3
     2    27    28    3
     3    14     4    1
     4    28    18    1
     5     7     3    1
     6    21    17    1
     7     4     3   ar
     8     4     5   ar
     9     3     2   ar
    10    17    18   ar
    11    17    16   ar
    12    18    19   ar
    13     2     8    1
    14     2     1   ar
    15     5    16    1
    16     5     6   ar
    17    16    15   ar
    18    19    22    1
    19    19    20   ar
    20     6     1   ar
    21     1     9    1
    22    15    20   ar
    23    15    23    1
    24    11     9    1
    25    25    23    1
    26    10     9    1
    27     9    12    1
    28    23    26    1
    29    23    24    1
