@<TRIPOS>MOLECULE
mol_data/opt/cam/geoms/mol2/6ie6ie-.out
 30 31 0 0 0
SMALL
GASTEIGER

@<TRIPOS>ATOM
      1 C          -4.3889   -1.9605   -0.6761 C.ar    1  LIG1        0.0390
      2 C          -3.1253   -2.0768   -0.0994 C.ar    1  LIG1       -0.0395
      3 C          -2.5840   -0.9840    0.5521 C.ar    1  LIG1       -0.0426
      4 C          -3.3000    0.2139    0.6057 C.ar    1  LIG1        0.0507
      5 C          -4.5545    0.2521   -0.0337 C.ar    1  LIG1        0.0883
      6 N          -5.0771   -0.8156   -0.6355 N.ar    1  LIG1       -0.2506
      7 H          -1.6143   -1.0455    1.0338 H       1  LIG1        0.0631
      8 H          -2.5842   -3.0149   -0.1516 H       1  LIG1        0.0636
      9 C          -5.0522   -3.1107   -1.3780 C.3     1  LIG1       -0.0223
     10 H          -4.4423   -4.0151   -1.3402 H       1  LIG1        0.0292
     11 H          -5.2388   -2.8566   -2.4248 H       1  LIG1        0.0292
     12 H          -6.0231   -3.3203   -0.9220 H       1  LIG1        0.0292
     13 C          -2.7745    1.3309    1.3277 C.1     1  LIG1       -0.0675
     14 C          -2.3092    2.2477    1.9541 C.1     1  LIG1       -0.1138
     15 H          -1.9114    3.0661    2.5093 H       1  LIG1        0.1232
     16 C          -5.0420    2.6625   -0.6907 C.ar    1  LIG1        0.0475
     17 C          -5.4067    1.4755   -0.0332 C.ar    1  LIG1        0.0237
     18 C          -6.6424    1.4205    0.5963 C.ar    1  LIG1       -0.0339
     19 C          -7.4663    2.5451    0.6118 C.ar    1  LIG1        0.0434
     20 C          -6.9939    3.6876   -0.0394 C.ar    1  LIG1        0.0433
     21 N          -5.8335    3.7404   -0.6786 N.ar    1  LIG1       -0.2583
     22 H          -6.9641    0.5022    1.0746 H       1  LIG1        0.0637
     23 H          -7.5981    4.5914   -0.0477 H       1  LIG1        0.0842
     24 C          -3.7656    2.7963   -1.4728 C.3     1  LIG1       -0.0217
     25 H          -3.8681    3.6245   -2.1737 H       1  LIG1        0.0293
     26 H          -3.5290    1.8822   -2.0222 H       1  LIG1        0.0293
     27 H          -2.9241    3.0099   -0.8078 H       1  LIG1        0.0293
     28 C          -8.7404    2.5394    1.2602 C.1     1  LIG1       -0.0681
     29 C          -9.8134    2.5395    1.8059 C.1     1  LIG1       -0.1139
     30 H         -10.7635    2.5398    2.2884 H       1  LIG1        0.1232
@<TRIPOS>BOND
     1    11     9    1
     2    25    24    1
     3    26    24    1
     4    24    27    1
     5    24    16    1
     6     9    10    1
     7     9    12    1
     8     9     1    1
     9    16    21   ar
    10    16    17   ar
    11    21    20   ar
    12     1     6   ar
    13     1     2   ar
    14     6     5   ar
    15     8     2    1
    16     2     3   ar
    17    23    20    1
    18    20    19   ar
    19     5    17    1
    20     5     4   ar
    21    17    18   ar
    22     3     4   ar
    23     3     7    1
    24    18    19   ar
    25    18    22    1
    26     4    13    1
    27    19    28    1
    28    28    29    3
    29    13    14    3
    30    29    30    1
    31    14    15    1
