@<TRIPOS>MOLECULE
mol_data/opt/cam/geoms/mol2/6ie6ie6ie6ie.out
 58 61 0 0 0
SMALL
GASTEIGER

@<TRIPOS>ATOM
      1 C          -3.6790   -1.5188   -1.6571 C.ar    1  LIG1        0.0390
      2 C          -2.8626   -2.0687   -0.6698 C.ar    1  LIG1       -0.0395
      3 C          -2.8882   -1.5223    0.5993 C.ar    1  LIG1       -0.0426
      4 C          -3.7162   -0.4293    0.8688 C.ar    1  LIG1        0.0507
      5 C          -4.4946    0.0737   -0.1931 C.ar    1  LIG1        0.0883
      6 N          -4.4700   -0.4724   -1.4087 N.ar    1  LIG1       -0.2506
      7 H          -2.2776   -1.9333    1.3957 H       1  LIG1        0.0631
      8 H          -2.2250   -2.9159   -0.8958 H       1  LIG1        0.0636
      9 C          -3.7175   -2.0676   -3.0546 C.3     1  LIG1       -0.0223
     10 H          -3.0253   -2.9018   -3.1814 H       1  LIG1        0.0292
     11 H          -3.4626   -1.2854   -3.7740 H       1  LIG1        0.0292
     12 H          -4.7268   -2.4106   -3.2977 H       1  LIG1        0.0292
     13 C          -3.7647    0.1135    2.1916 C.1     1  LIG1       -0.0675
     14 C          -3.7806    0.5370    3.3183 C.1     1  LIG1       -0.1138
     15 H          -3.8063    0.9227    4.3117 H       1  LIG1        0.1232
     16 C          -6.7370    1.2367   -0.3962 C.ar    1  LIG1        0.0482
     17 C          -5.3785    1.2605   -0.0281 C.ar    1  LIG1        0.0238
     18 C          -4.8668    2.4448    0.4757 C.ar    1  LIG1       -0.0333
     19 C          -5.6720    3.5807    0.5899 C.ar    1  LIG1        0.0513
     20 C          -7.0094    3.4688    0.1748 C.ar    1  LIG1        0.0884
     21 N          -7.5060    2.3188   -0.2853 N.ar    1  LIG1       -0.2499
     22 H          -3.8304    2.5030    0.7867 H       1  LIG1        0.0637
     23 C          -7.4114    0.0018   -0.9224 C.3     1  LIG1       -0.0217
     24 H          -7.1993   -0.8684   -0.2953 H       1  LIG1        0.0293
     25 H          -7.0490   -0.2339   -1.9251 H       1  LIG1        0.0293
     26 H          -8.4868    0.1729   -0.9557 H       1  LIG1        0.0293
     27 C          -5.1217    4.7838    1.1350 C.1     1  LIG1       -0.0675
     28 C          -4.6246    5.7753    1.6027 C.1     1  LIG1       -0.1138
     29 H          -4.1984    6.6612    2.0144 H       1  LIG1        0.1232
     30 C          -9.2125    4.5458    0.8158 C.ar    1  LIG1        0.0482
     31 C          -7.9482    4.6229    0.2015 C.ar    1  LIG1        0.0238
     32 C          -7.6013    5.8149   -0.4132 C.ar    1  LIG1       -0.0333
     33 C          -8.4912    6.8912   -0.4399 C.ar    1  LIG1        0.0513
     34 C          -9.7405    6.7131    0.1775 C.ar    1  LIG1        0.0884
     35 N         -10.0608    5.5729    0.7923 N.ar    1  LIG1       -0.2499
     36 H          -6.6314    5.9236   -0.8839 H       1  LIG1        0.0637
     37 C          -9.6853    3.3203    1.5448 C.3     1  LIG1       -0.0217
     38 H          -8.9232    2.9436    2.2321 H       1  LIG1        0.0293
     39 H          -9.9009    2.5150    0.8396 H       1  LIG1        0.0293
     40 H         -10.5890    3.5671    2.1012 H       1  LIG1        0.0293
     41 C          -8.0970    8.1174   -1.0633 C.1     1  LIG1       -0.0675
     42 C          -7.7272    9.1336   -1.5921 C.1     1  LIG1       -0.1138
     43 H          -7.4155   10.0404   -2.0572 H       1  LIG1        0.1232
     44 C         -11.4091    8.2143    1.3507 C.ar    1  LIG1        0.0475
     45 C         -10.7869    7.7719    0.1675 C.ar    1  LIG1        0.0237
     46 C         -11.1926    8.3280   -1.0375 C.ar    1  LIG1       -0.0339
     47 C         -12.2023    9.2909   -1.0578 C.ar    1  LIG1        0.0434
     48 C         -12.7584    9.6543    0.1696 C.ar    1  LIG1        0.0433
     49 N         -12.3723    9.1404    1.3307 N.ar    1  LIG1       -0.2583
     50 H         -10.7327    8.0130   -1.9670 H       1  LIG1        0.0637
     51 H         -13.5501   10.3985    0.2039 H       1  LIG1        0.0842
     52 C         -11.0281    7.6952    2.7082 C.3     1  LIG1       -0.0217
     53 H          -9.9436    7.6856    2.8455 H       1  LIG1        0.0293
     54 H         -11.3720    6.6666    2.8365 H       1  LIG1        0.0293
     55 H         -11.4863    8.3289    3.4668 H       1  LIG1        0.0293
     56 C         -12.6553    9.8824   -2.2780 C.1     1  LIG1       -0.0681
     57 C         -13.0398   10.3828   -3.3032 C.1     1  LIG1       -0.1139
     58 H         -13.3820   10.8248   -4.2103 H       1  LIG1        0.1232
@<TRIPOS>BOND
     1    58    57    1
     2    11     9    1
     3    57    56    3
     4    12     9    1
     5    10     9    1
     6     9     1    1
     7    56    47    1
     8    43    42    1
     9    50    46    1
    10    25    23    1
    11     1     6   ar
    12     1     2   ar
    13    42    41    3
    14     6     5   ar
    15    41    33    1
    16    47    46   ar
    17    47    48   ar
    18    46    45   ar
    19    26    23    1
    20    23    16    1
    21    23    24    1
    22     8     2    1
    23    36    32    1
    24     2     3   ar
    25    33    32   ar
    26    33    34   ar
    27    32    31   ar
    28    16    21   ar
    29    16    17   ar
    30    21    20   ar
    31     5    17    1
    32     5     4   ar
    33    17    18   ar
    34    45    34    1
    35    45    44   ar
    36    48    51    1
    37    48    49   ar
    38    20    31    1
    39    20    19   ar
    40    34    35   ar
    41    31    30   ar
    42    18    19   ar
    43    18    22    1
    44    19    27    1
    45     3     4   ar
    46     3     7    1
    47    35    30   ar
    48    30    37    1
    49    39    37    1
    50     4    13    1
    51    27    28    3
    52    49    44   ar
    53    44    52    1
    54    37    40    1
    55    37    38    1
    56    28    29    1
    57    13    14    3
    58    52    54    1
    59    52    53    1
    60    52    55    1
    61    14    15    1
