@<TRIPOS>MOLECULE
mol_data/opt/cam/geoms/mol2/6ie6ie6ie6ie-.out
 58 61 0 0 0
SMALL
GASTEIGER

@<TRIPOS>ATOM
      1 C          -4.0521   -1.9239   -1.0971 C.ar    1  LIG1        0.0390
      2 C          -2.9394   -2.1682   -0.2934 C.ar    1  LIG1       -0.0395
      3 C          -2.6138   -1.2560    0.6924 C.ar    1  LIG1       -0.0426
      4 C          -3.3913   -0.1071    0.8603 C.ar    1  LIG1        0.0507
      5 C          -4.4878    0.0682   -0.0079 C.ar    1  LIG1        0.0883
      6 N          -4.7978   -0.8271   -0.9453 N.ar    1  LIG1       -0.2506
      7 H          -1.7638   -1.4205    1.3455 H       1  LIG1        0.0631
      8 H          -2.3460   -3.0639   -0.4378 H       1  LIG1        0.0636
      9 C          -4.4768   -2.8751   -2.1789 C.3     1  LIG1       -0.0223
     10 H          -3.8094   -3.7359   -2.2467 H       1  LIG1        0.0292
     11 H          -4.4923   -2.3645   -3.1451 H       1  LIG1        0.0292
     12 H          -5.4922   -3.2333   -1.9891 H       1  LIG1        0.0292
     13 C          -3.0710    0.8192    1.9026 C.1     1  LIG1       -0.0675
     14 C          -2.7715    1.5701    2.7945 C.1     1  LIG1       -0.1138
     15 H          -2.5195    2.2442    3.5808 H       1  LIG1        0.1232
     16 C          -6.7577    1.1835    0.1508 C.ar    1  LIG1        0.0482
     17 C          -5.3564    1.2758    0.0548 C.ar    1  LIG1        0.0238
     18 C          -4.7954    2.5406   -0.0087 C.ar    1  LIG1       -0.0333
     19 C          -5.6013    3.6814   -0.0003 C.ar    1  LIG1        0.0513
     20 C          -6.9910    3.4903    0.0750 C.ar    1  LIG1        0.0884
     21 N          -7.5268    2.2713    0.1617 N.ar    1  LIG1       -0.2499
     22 H          -3.7197    2.6582   -0.0670 H       1  LIG1        0.0637
     23 C          -7.4767   -0.1311    0.2593 C.3     1  LIG1       -0.0217
     24 H          -7.0245   -0.7729    1.0202 H       1  LIG1        0.0293
     25 H          -7.4245   -0.6747   -0.6862 H       1  LIG1        0.0293
     26 H          -8.5194    0.0560    0.5137 H       1  LIG1        0.0293
     27 C          -4.9931    4.9759   -0.0448 C.1     1  LIG1       -0.0675
     28 C          -4.4443    6.0467   -0.0780 C.1     1  LIG1       -0.1138
     29 H          -3.9721    7.0017   -0.1077 H       1  LIG1        0.1232
     30 C          -8.9582    4.7884    1.0096 C.ar    1  LIG1        0.0482
     31 C          -7.9477    4.6297    0.0431 C.ar    1  LIG1        0.0238
     32 C          -7.8869    5.5552   -0.9869 C.ar    1  LIG1       -0.0333
     33 C          -8.7978    6.6111   -1.0512 C.ar    1  LIG1        0.0513
     34 C          -9.7513    6.7058   -0.0254 C.ar    1  LIG1        0.0884
     35 N          -9.8197    5.8056    0.9566 N.ar    1  LIG1       -0.2499
     36 H          -7.1385    5.4572   -1.7645 H       1  LIG1        0.0637
     37 C          -9.1293    3.8470    2.1677 C.3     1  LIG1       -0.0217
     38 H          -8.1784    3.6562    2.6721 H       1  LIG1        0.0293
     39 H          -9.5034    2.8803    1.8245 H       1  LIG1        0.0293
     40 H          -9.8356    4.2828    2.8734 H       1  LIG1        0.0293
     41 C          -8.7633    7.5167   -2.1577 C.1     1  LIG1       -0.0675
     42 C          -8.7164    8.2548   -3.1077 C.1     1  LIG1       -0.1138
     43 H          -8.6903    8.9109   -3.9472 H       1  LIG1        0.1232
     44 C         -10.4647    9.1402    0.1863 C.ar    1  LIG1        0.0475
     45 C         -10.7813    7.7821    0.0134 C.ar    1  LIG1        0.0237
     46 C         -12.1189    7.4198   -0.0664 C.ar    1  LIG1       -0.0339
     47 C         -13.1091    8.4006   -0.0291 C.ar    1  LIG1        0.0434
     48 C         -12.6863    9.7256    0.1073 C.ar    1  LIG1        0.0433
     49 N         -11.4145   10.0811    0.2253 N.ar    1  LIG1       -0.2583
     50 H         -12.3897    6.3740   -0.1572 H       1  LIG1        0.0637
     51 H         -13.4221   10.5255    0.1339 H       1  LIG1        0.0842
     52 C          -9.0546    9.6263    0.3711 C.3     1  LIG1       -0.0217
     53 H          -9.0806   10.6076    0.8445 H       1  LIG1        0.0293
     54 H          -8.5483    9.7217   -0.5935 H       1  LIG1        0.0293
     55 H          -8.4670    8.9406    0.9859 H       1  LIG1        0.0293
     56 C         -14.4983    8.0762   -0.1231 C.1     1  LIG1       -0.0681
     57 C         -15.6690    7.8078   -0.2032 C.1     1  LIG1       -0.1139
     58 H         -16.7050    7.5689   -0.2737 H       1  LIG1        0.1232
@<TRIPOS>BOND
     1    43    42    1
     2    11     9    1
     3    42    41    3
     4    10     9    1
     5     9    12    1
     6     9     1    1
     7    41    33    1
     8    36    32    1
     9     1     6   ar
    10     1     2   ar
    11    33    32   ar
    12    33    34   ar
    13    32    31   ar
    14     6     5   ar
    15    25    23    1
    16    54    52    1
    17     8     2    1
    18     2     3   ar
    19    58    57    1
    20    57    56    3
    21    50    46    1
    22    56    47    1
    23    29    28    1
    24    28    27    3
    25    22    18    1
    26    46    47   ar
    27    46    45   ar
    28    27    19    1
    29    47    48   ar
    30    34    45    1
    31    34    35   ar
    32    18    19   ar
    33    18    17   ar
    34     5    17    1
    35     5     4   ar
    36    19    20   ar
    37    45    44   ar
    38    31    20    1
    39    31    30   ar
    40    17    16   ar
    41    20    21   ar
    42    48    51    1
    43    48    49   ar
    44    16    21   ar
    45    16    23    1
    46    44    49   ar
    47    44    52    1
    48    23    26    1
    49    23    24    1
    50    52    53    1
    51    52    55    1
    52     3     4   ar
    53     3     7    1
    54     4    13    1
    55    35    30   ar
    56    30    37    1
    57    39    37    1
    58    13    14    3
    59    37    38    1
    60    37    40    1
    61    14    15    1
