@<TRIPOS>MOLECULE
mol_data/opt/cam/geoms/mol2/6ie6ie-6ie6ie-.out
 58 61 0 0 0
SMALL
GASTEIGER

@<TRIPOS>ATOM
      1 C          -4.3131   -2.0968   -0.7867 C.ar    1  LIG1        0.0390
      2 C          -3.0432   -2.2442   -0.2310 C.ar    1  LIG1       -0.0395
      3 C          -2.4794   -1.1775    0.4440 C.ar    1  LIG1       -0.0426
      4 C          -3.1799    0.0270    0.5424 C.ar    1  LIG1        0.0507
      5 C          -4.4424    0.0971   -0.0770 C.ar    1  LIG1        0.0883
      6 N          -4.9869   -0.9456   -0.7024 N.ar    1  LIG1       -0.2506
      7 H          -1.5038   -1.2645    0.9096 H       1  LIG1        0.0631
      8 H          -2.5145   -3.1867   -0.3176 H       1  LIG1        0.0636
      9 C          -4.9988   -3.2177   -1.5137 C.3     1  LIG1       -0.0223
     10 H          -4.4076   -4.1349   -1.4945 H       1  LIG1        0.0292
     11 H          -5.1775   -2.9380   -2.5553 H       1  LIG1        0.0292
     12 H          -5.9747   -3.4164   -1.0638 H       1  LIG1        0.0292
     13 C          -2.6307    1.1173    1.2872 C.1     1  LIG1       -0.0675
     14 C          -2.1453    2.0114    1.9310 C.1     1  LIG1       -0.1138
     15 H          -1.7268    2.8076    2.5030 H       1  LIG1        0.1232
     16 C          -4.9237    2.5280   -0.6665 C.ar    1  LIG1        0.0482
     17 C          -5.2816    1.3286   -0.0301 C.ar    1  LIG1        0.0238
     18 C          -6.4993    1.2794    0.6296 C.ar    1  LIG1       -0.0333
     19 C          -7.3218    2.4051    0.6852 C.ar    1  LIG1        0.0513
     20 C          -6.8778    3.5625    0.0242 C.ar    1  LIG1        0.0884
     21 N          -5.7137    3.6034   -0.6227 N.ar    1  LIG1       -0.2499
     22 H          -6.8130    0.3622    1.1149 H       1  LIG1        0.0637
     23 C          -3.6560    2.6776   -1.4591 C.3     1  LIG1       -0.0217
     24 H          -3.7498    3.5418   -2.1161 H       1  LIG1        0.0293
     25 H          -3.4476    1.7871   -2.0567 H       1  LIG1        0.0293
     26 H          -2.8014    2.8375   -0.7959 H       1  LIG1        0.0293
     27 C          -8.5453    2.3637    1.4246 C.1     1  LIG1       -0.0675
     28 C          -9.5639    2.3025    2.0634 C.1     1  LIG1       -0.1138
     29 H         -10.4653    2.2596    2.6306 H       1  LIG1        0.1232
     30 C          -8.8935    4.9776   -0.6219 C.ar    1  LIG1        0.0482
     31 C          -7.6583    4.8327    0.0299 C.ar    1  LIG1        0.0238
     32 C          -7.1249    5.9411    0.6673 C.ar    1  LIG1       -0.0333
     33 C          -7.8180    7.1523    0.6832 C.ar    1  LIG1        0.0513
     34 C          -9.0479    7.2024    0.0060 C.ar    1  LIG1        0.0884
     35 N          -9.5535    6.1380   -0.6167 N.ar    1  LIG1       -0.2499
     36 H          -6.1656    5.8668    1.1669 H       1  LIG1        0.0637
     37 C          -9.5385    3.8575   -1.3881 C.3     1  LIG1       -0.0217
     38 H         -10.0141    3.1459   -0.7074 H       1  LIG1        0.0293
     39 H          -8.8074    3.3054   -1.9835 H       1  LIG1        0.0293
     40 H         -10.3024    4.2725   -2.0448 H       1  LIG1        0.0293
     41 C          -7.2899    8.2697    1.4031 C.1     1  LIG1       -0.0675
     42 C          -6.8260    9.1886    2.0274 C.1     1  LIG1       -0.1138
     43 H          -6.4284   10.0084    2.5804 H       1  LIG1        0.1232
     44 C          -9.4960    9.6074   -0.6951 C.ar    1  LIG1        0.0475
     45 C          -9.8887    8.4331   -0.0309 C.ar    1  LIG1        0.0237
     46 C         -11.1399    8.3988    0.5682 C.ar    1  LIG1       -0.0339
     47 C         -11.9534    9.5312    0.5464 C.ar    1  LIG1        0.0434
     48 C         -11.4539   10.6597   -0.1088 C.ar    1  LIG1        0.0433
     49 N         -10.2768   10.6930   -0.7185 N.ar    1  LIG1       -0.2583
     50 H         -11.4823    7.4906    1.0513 H       1  LIG1        0.0637
     51 H         -12.0493   11.5686   -0.1456 H       1  LIG1        0.0842
     52 C          -8.1984    9.7156   -1.4455 C.3     1  LIG1       -0.0217
     53 H          -8.2638   10.5504   -2.1429 H       1  LIG1        0.0293
     54 H          -7.9718    8.7989   -1.9950 H       1  LIG1        0.0293
     55 H          -7.3679    9.9029   -0.7590 H       1  LIG1        0.0293
     56 C         -13.2437    9.5467    1.1619 C.1     1  LIG1       -0.0681
     57 C         -14.3303    9.5648    1.6796 C.1     1  LIG1       -0.1139
     58 H         -15.2926    9.5812    2.1369 H       1  LIG1        0.1232
@<TRIPOS>BOND
     1    11     9    1
     2    53    52    1
     3    24    23    1
     4    25    23    1
     5    40    37    1
     6    54    52    1
     7    39    37    1
     8     9    10    1
     9     9    12    1
    10     9     1    1
    11    23    26    1
    12    23    16    1
    13    52    55    1
    14    52    44    1
    15    37    38    1
    16    37    30    1
    17     1     6   ar
    18     1     2   ar
    19    49    44   ar
    20    49    48   ar
    21     6     5   ar
    22    44    45   ar
    23    16    21   ar
    24    16    17   ar
    25    21    20   ar
    26    30    35   ar
    27    30    31   ar
    28    35    34   ar
    29     8     2    1
    30     2     3   ar
    31    51    48    1
    32    48    47   ar
    33     5    17    1
    34     5     4   ar
    35    45    34    1
    36    45    46   ar
    37    17    18   ar
    38    34    33   ar
    39    20    31    1
    40    20    19   ar
    41    31    32   ar
    42     3     4   ar
    43     3     7    1
    44     4    13    1
    45    47    46   ar
    46    47    56    1
    47    46    50    1
    48    18    19   ar
    49    18    22    1
    50    32    33   ar
    51    32    36    1
    52    33    41    1
    53    19    27    1
    54    56    57    3
    55    13    14    3
    56    41    42    3
    57    27    28    3
    58    57    58    1
    59    14    15    1
    60    42    43    1
    61    28    29    1
