@<TRIPOS>MOLECULE
mol_data/opt/cam/geoms/mol2/6ie6ie-6ie-6ie.out
 58 61 0 0 0
SMALL
GASTEIGER

@<TRIPOS>ATOM
      1 C          -3.9996   -1.9326    0.9574 C.ar    1  LIG1        0.0390
      2 C          -3.0619   -2.2650   -0.0192 C.ar    1  LIG1       -0.0395
      3 C          -2.8499   -1.3909   -1.0690 C.ar    1  LIG1       -0.0426
      4 C          -3.5609   -0.1896   -1.1237 C.ar    1  LIG1        0.0507
      5 C          -4.4624    0.0804   -0.0762 C.ar    1  LIG1        0.0883
      6 N          -4.6783   -0.7822    0.9162 N.ar    1  LIG1       -0.2506
      7 H          -2.1473   -1.6289   -1.8601 H       1  LIG1        0.0631
      8 H          -2.5196   -3.2019    0.0398 H       1  LIG1        0.0636
      9 C          -4.2997   -2.8418    2.1144 C.3     1  LIG1       -0.0223
     10 H          -3.7656   -3.7902    2.0339 H       1  LIG1        0.0292
     11 H          -5.3726   -3.0421    2.1667 H       1  LIG1        0.0292
     12 H          -4.0177   -2.3609    3.0551 H       1  LIG1        0.0292
     13 C          -3.3942    0.6915   -2.2377 C.1     1  LIG1       -0.0675
     14 C          -3.2402    1.4045   -3.1955 C.1     1  LIG1       -0.1138
     15 H          -3.1157    2.0415   -4.0411 H       1  LIG1        0.1232
     16 C          -4.7265    2.6087    0.1115 C.ar    1  LIG1        0.0482
     17 C          -5.2797    1.3259   -0.0343 C.ar    1  LIG1        0.0238
     18 C          -6.6605    1.2158   -0.0702 C.ar    1  LIG1       -0.0333
     19 C          -7.4675    2.3534   -0.0314 C.ar    1  LIG1        0.0513
     20 C          -6.8221    3.6003    0.0573 C.ar    1  LIG1        0.0884
     21 N          -5.4961    3.6972    0.1487 N.ar    1  LIG1       -0.2499
     22 H          -7.1201    0.2354   -0.1235 H       1  LIG1        0.0637
     23 C          -3.2502    2.8440    0.2636 C.3     1  LIG1       -0.0217
     24 H          -3.0919    3.8157    0.7309 H       1  LIG1        0.0293
     25 H          -2.7575    2.8480   -0.7126 H       1  LIG1        0.0293
     26 H          -2.7771    2.0678    0.8692 H       1  LIG1        0.0293
     27 C          -8.8913    2.2141   -0.0545 C.1     1  LIG1       -0.0675
     28 C         -10.0846    2.0571   -0.0711 C.1     1  LIG1       -0.1138
     29 H         -11.1430    1.9319   -0.0838 H       1  LIG1        0.1232
     30 C          -7.3921    5.8747    1.0254 C.ar    1  LIG1        0.0482
     31 C          -7.5791    4.8816    0.0459 C.ar    1  LIG1        0.0238
     32 C          -8.4740    5.1447   -0.9791 C.ar    1  LIG1       -0.0333
     33 C          -9.1680    6.3552   -1.0270 C.ar    1  LIG1        0.0513
     34 C          -8.9399    7.2722    0.0110 C.ar    1  LIG1        0.0884
     35 N          -8.0663    7.0252    0.9883 N.ar    1  LIG1       -0.2499
     36 H          -8.6314    4.4159   -1.7657 H       1  LIG1        0.0637
     37 C          -6.4458    5.7090    2.1802 C.3     1  LIG1       -0.0217
     38 H          -6.6186    6.5134    2.8942 H       1  LIG1        0.0293
     39 H          -5.4103    5.7405    1.8356 H       1  LIG1        0.0293
     40 H          -6.5843    4.7443    2.6756 H       1  LIG1        0.0293
     41 C         -10.0333    6.6377   -2.1302 C.1     1  LIG1       -0.0675
     42 C         -10.7438    6.8508   -3.0785 C.1     1  LIG1       -0.1138
     43 H         -11.3710    7.0544   -3.9157 H       1  LIG1        0.1232
     44 C         -10.9997    8.7517    0.2383 C.ar    1  LIG1        0.0475
     45 C          -9.6130    8.6005    0.0690 C.ar    1  LIG1        0.0237
     46 C          -8.8254    9.7423    0.0128 C.ar    1  LIG1       -0.0339
     47 C          -9.4203   11.0019    0.0684 C.ar    1  LIG1        0.0434
     48 C         -10.8111   11.0426    0.1980 C.ar    1  LIG1        0.0433
     49 N         -11.5704    9.9602    0.2944 N.ar    1  LIG1       -0.2583
     50 H          -7.7486    9.6504   -0.0735 H       1  LIG1        0.0637
     51 H         -11.3203   12.0023    0.2379 H       1  LIG1        0.0842
     52 C         -11.9295    7.5822    0.4008 C.3     1  LIG1       -0.0217
     53 H         -11.4773    6.7835    0.9931 H       1  LIG1        0.0293
     54 H         -12.1960    7.1613   -0.5727 H       1  LIG1        0.0293
     55 H         -12.8422    7.9243    0.8885 H       1  LIG1        0.0293
     56 C          -8.6510   12.2050   -0.0006 C.1     1  LIG1       -0.0681
     57 C          -8.0077   13.2207   -0.0593 C.1     1  LIG1       -0.1139
     58 H          -7.4379   14.1197   -0.1104 H       1  LIG1        0.1232
@<TRIPOS>BOND
     1    15    14    1
     2    43    42    1
     3    14    13    3
     4    42    41    3
     5    13     4    1
     6    41    33    1
     7     7     3    1
     8    36    32    1
     9     4     3   ar
    10     4     5   ar
    11     3     2   ar
    12    33    32   ar
    13    33    34   ar
    14    32    31   ar
    15    25    23    1
    16    54    52    1
    17    22    18    1
    18    58    57    1
    19    29    28    1
    20     5    17    1
    21     5     6   ar
    22    50    46    1
    23    28    27    3
    24    18    17   ar
    25    18    19   ar
    26    57    56    3
    27    27    19    1
    28    17    16   ar
    29    19    20   ar
    30     2     8    1
    31     2     1   ar
    32    56    47    1
    33    34    45    1
    34    34    35   ar
    35    46    47   ar
    36    46    45   ar
    37    31    20    1
    38    31    30   ar
    39    20    21   ar
    40    47    48   ar
    41    45    44   ar
    42    16    21   ar
    43    16    23    1
    44    48    51    1
    45    48    49   ar
    46    44    49   ar
    47    44    52    1
    48    23    24    1
    49    23    26    1
    50    52    55    1
    51    52    53    1
    52     6     1   ar
    53     1     9    1
    54    35    30   ar
    55    30    37    1
    56    39    37    1
    57    10     9    1
    58     9    11    1
    59     9    12    1
    60    37    40    1
    61    37    38    1
