@<TRIPOS>MOLECULE
mol_data/opt/cam/geoms/mol2/6ie6ie6ie-6ie.out
 58 61 0 0 0
SMALL
GASTEIGER

@<TRIPOS>ATOM
      1 C          -4.3527   -2.1721   -0.5327 C.ar    1  LIG1        0.0390
      2 C          -3.0291   -2.2417   -0.1003 C.ar    1  LIG1       -0.0395
      3 C          -2.4354   -1.1072    0.4195 C.ar    1  LIG1       -0.0426
      4 C          -3.1609    0.0848    0.4936 C.ar    1  LIG1        0.0507
      5 C          -4.4877    0.0690    0.0183 C.ar    1  LIG1        0.0883
      6 N          -5.0513   -1.0363   -0.4686 N.ar    1  LIG1       -0.2506
      7 H          -1.4123   -1.1278    0.7784 H       1  LIG1        0.0631
      8 H          -2.4801   -3.1743   -0.1659 H       1  LIG1        0.0636
      9 C          -5.0698   -3.3657   -1.0956 C.3     1  LIG1       -0.0223
     10 H          -4.4267   -4.2469   -1.1270 H       1  LIG1        0.0292
     11 H          -5.4227   -3.1510   -2.1074 H       1  LIG1        0.0292
     12 H          -5.9507   -3.5965   -0.4906 H       1  LIG1        0.0292
     13 C          -2.5540    1.2494    1.0613 C.1     1  LIG1       -0.0675
     14 C          -2.0083    2.2042    1.5508 C.1     1  LIG1       -0.1138
     15 H          -1.5383    3.0577    1.9831 H       1  LIG1        0.1232
     16 C          -6.6237    1.3170    0.5728 C.ar    1  LIG1        0.0482
     17 C          -5.3330    1.2949    0.0124 C.ar    1  LIG1        0.0238
     18 C          -4.8729    2.4505   -0.5986 C.ar    1  LIG1       -0.0333
     19 C          -5.6677    3.5975   -0.6447 C.ar    1  LIG1        0.0513
     20 C          -6.9281    3.5346   -0.0306 C.ar    1  LIG1        0.0884
     21 N          -7.3775    2.4170    0.5422 N.ar    1  LIG1       -0.2499
     22 H          -3.8939    2.4695   -1.0631 H       1  LIG1        0.0637
     23 C          -7.2344    0.1246    1.2524 C.3     1  LIG1       -0.0217
     24 H          -6.5494   -0.3127    1.9840 H       1  LIG1        0.0293
     25 H          -7.4612   -0.6572    0.5247 H       1  LIG1        0.0293
     26 H          -8.1501    0.4362    1.7533 H       1  LIG1        0.0293
     27 C          -5.2054    4.7587   -1.3400 C.1     1  LIG1       -0.0675
     28 C          -4.7934    5.7152   -1.9440 C.1     1  LIG1       -0.1138
     29 H          -4.4412    6.5652   -2.4821 H       1  LIG1        0.1232
     30 C          -7.6122    5.8891    0.6619 C.ar    1  LIG1        0.0482
     31 C          -7.8718    4.6876   -0.0167 C.ar    1  LIG1        0.0238
     32 C          -9.0913    4.5555   -0.6622 C.ar    1  LIG1       -0.0333
     33 C         -10.0108    5.6046   -0.6636 C.ar    1  LIG1        0.0513
     34 C          -9.6612    6.7717    0.0365 C.ar    1  LIG1        0.0884
     35 N          -8.4951    6.8909    0.6699 N.ar    1  LIG1       -0.2499
     36 H          -9.3302    3.6325   -1.1784 H       1  LIG1        0.0637
     37 C          -6.3523    6.1217    1.4472 C.3     1  LIG1       -0.0217
     38 H          -6.5199    6.9381    2.1492 H       1  LIG1        0.0293
     39 H          -5.5284    6.3985    0.7836 H       1  LIG1        0.0293
     40 H          -6.0480    5.2266    1.9946 H       1  LIG1        0.0293
     41 C         -11.2368    5.4819   -1.3899 C.1     1  LIG1       -0.0675
     42 C         -12.2552    5.3540   -2.0191 C.1     1  LIG1       -0.1138
     43 H         -13.1580    5.2539   -2.5765 H       1  LIG1        0.1232
     44 C         -11.7899    7.9671    0.7532 C.ar    1  LIG1        0.0475
     45 C         -10.5516    7.9665    0.0889 C.ar    1  LIG1        0.0237
     46 C         -10.1133    9.1465   -0.4947 C.ar    1  LIG1       -0.0339
     47 C         -10.9205   10.2832   -0.4573 C.ar    1  LIG1        0.0434
     48 C         -12.1496   10.1683    0.1970 C.ar    1  LIG1        0.0433
     49 N         -12.5631    9.0575    0.7917 N.ar    1  LIG1       -0.2583
     50 H          -9.1436    9.1821   -0.9783 H       1  LIG1        0.0637
     51 H         -12.8159   11.0260    0.2458 H       1  LIG1        0.0842
     52 C         -12.3129    6.7639    1.4862 C.3     1  LIG1       -0.0217
     53 H         -11.5204    6.2495    2.0348 H       1  LIG1        0.0293
     54 H         -12.7516    6.0451    0.7884 H       1  LIG1        0.0293
     55 H         -13.0872    7.0851    2.1825 H       1  LIG1        0.0293
     56 C         -10.5166   11.5167   -1.0568 C.1     1  LIG1       -0.0681
     57 C         -10.1813   12.5570   -1.5611 C.1     1  LIG1       -0.1139
     58 H          -9.8850   13.4784   -2.0067 H       1  LIG1        0.1232
@<TRIPOS>BOND
     1    43    42    1
     2    29    28    1
     3    11     9    1
     4    42    41    3
     5    58    57    1
     6    28    27    3
     7    57    56    3
     8    41    33    1
     9    27    19    1
    10    36    32    1
    11    10     9    1
    12     9     1    1
    13     9    12    1
    14    22    18    1
    15    56    47    1
    16    50    46    1
    17    33    32   ar
    18    33    34   ar
    19    32    31   ar
    20    19    18   ar
    21    19    20   ar
    22    18    17   ar
    23     1     6   ar
    24     1     2   ar
    25    46    47   ar
    26    46    45   ar
    27     6     5   ar
    28    47    48   ar
    29     8     2    1
    30     2     3   ar
    31    20    31    1
    32    20    21   ar
    33    31    30   ar
    34    17     5    1
    35    17    16   ar
    36     5     4   ar
    37    34    45    1
    38    34    35   ar
    39    45    44   ar
    40    48    51    1
    41    48    49   ar
    42     3     4   ar
    43     3     7    1
    44     4    13    1
    45    25    23    1
    46    21    16   ar
    47    16    23    1
    48    30    35   ar
    49    30    37    1
    50    44    49   ar
    51    44    52    1
    52    39    37    1
    53    54    52    1
    54    13    14    3
    55    23    26    1
    56    23    24    1
    57    37    40    1
    58    37    38    1
    59    52    53    1
    60    52    55    1
    61    14    15    1
