@<TRIPOS>MOLECULE
mol_data/opt/cam/geoms/mol2/6ie6ie6ie-6ie-.out
 58 61 0 0 0
SMALL
GASTEIGER

@<TRIPOS>ATOM
      1 C          -4.4186   -2.2282    0.0011 C.ar    1  LIG1        0.0390
      2 C          -3.0270   -2.2404   -0.0820 C.ar    1  LIG1       -0.0395
      3 C          -2.3497   -1.0366   -0.1268 C.ar    1  LIG1       -0.0426
      4 C          -3.0642    0.1639   -0.0989 C.ar    1  LIG1        0.0507
      5 C          -4.4696    0.0827   -0.0311 C.ar    1  LIG1        0.0883
      6 N          -5.1086   -1.0855    0.0245 N.ar    1  LIG1       -0.2506
      7 H          -1.2668   -1.0077   -0.1776 H       1  LIG1        0.0631
      8 H          -2.4882   -3.1809   -0.1037 H       1  LIG1        0.0636
      9 C          -5.2230   -3.4947    0.0686 C.3     1  LIG1       -0.0223
     10 H          -4.5877   -4.3811    0.0253 H       1  LIG1        0.0292
     11 H          -5.9372   -3.5323   -0.7579 H       1  LIG1        0.0292
     12 H          -5.8027   -3.5246    0.9951 H       1  LIG1        0.0292
     13 C          -2.3591    1.4088   -0.1143 C.1     1  LIG1       -0.0675
     14 C          -1.7279    2.4338   -0.1233 C.1     1  LIG1       -0.1138
     15 H          -1.1820    3.3493   -0.1297 H       1  LIG1        0.1232
     16 C          -6.3183    1.5261    0.9325 C.ar    1  LIG1        0.0482
     17 C          -5.3261    1.3008   -0.0399 C.ar    1  LIG1        0.0238
     18 C          -5.1913    2.2344   -1.0548 C.ar    1  LIG1       -0.0333
     19 C          -6.0102    3.3647   -1.0980 C.ar    1  LIG1        0.0513
     20 C          -6.9457    3.5239   -0.0637 C.ar    1  LIG1        0.0884
     21 N          -7.0885    2.6143    0.9019 N.ar    1  LIG1       -0.2499
     22 H          -4.4574    2.0864   -1.8385 H       1  LIG1        0.0637
     23 C          -6.5686    0.5791    2.0714 C.3     1  LIG1       -0.0217
     24 H          -5.6404    0.3238    2.5901 H       1  LIG1        0.0293
     25 H          -6.9943   -0.3573    1.7052 H       1  LIG1        0.0293
     26 H          -7.2587    1.0470    2.7725 H       1  LIG1        0.0293
     27 C          -5.9089    4.2759   -2.1956 C.1     1  LIG1       -0.0675
     28 C          -5.8090    5.0148   -3.1409 C.1     1  LIG1       -0.1138
     29 H          -5.7344    5.6726   -3.9763 H       1  LIG1        0.1232
     30 C          -7.4547    6.0132    0.1583 C.ar    1  LIG1        0.0482
     31 C          -7.8783    4.6830    0.0042 C.ar    1  LIG1        0.0238
     32 C          -9.2424    4.4362   -0.0128 C.ar    1  LIG1       -0.0333
     33 C         -10.1581    5.4867    0.0486 C.ar    1  LIG1        0.0513
     34 C          -9.6396    6.7917    0.1396 C.ar    1  LIG1        0.0884
     35 N          -8.3290    7.0190    0.2157 N.ar    1  LIG1       -0.2499
     36 H          -9.6016    3.4149   -0.0679 H       1  LIG1        0.0637
     37 C          -6.0089    6.3971    0.3013 C.3     1  LIG1       -0.0217
     38 H          -5.9459    7.3517    0.8236 H       1  LIG1        0.0293
     39 H          -5.5420    6.5124   -0.6806 H       1  LIG1        0.0293
     40 H          -5.4412    5.6428    0.8502 H       1  LIG1        0.0293
     41 C         -11.5611    5.2051    0.0455 C.1     1  LIG1       -0.0675
     42 C         -12.7327    4.9294    0.0455 C.1     1  LIG1       -0.1138
     43 H         -13.7736    4.7005    0.0480 H       1  LIG1        0.1232
     44 C         -10.4197    8.9821    1.1464 C.ar    1  LIG1        0.0475
     45 C         -10.5193    7.9928    0.1492 C.ar    1  LIG1        0.0237
     46 C         -11.4498    8.1713   -0.8649 C.ar    1  LIG1       -0.0339
     47 C         -12.2484    9.3152   -0.8872 C.ar    1  LIG1        0.0434
     48 C         -12.0650   10.2381    0.1435 C.ar    1  LIG1        0.0433
     49 N         -11.1887   10.0750    1.1267 N.ar    1  LIG1       -0.2583
     50 H         -11.5560    7.4276   -1.6461 H       1  LIG1        0.0637
     51 H         -12.6621   11.1463    0.1671 H       1  LIG1        0.0842
     52 C          -9.4649    8.8748    2.3015 C.3     1  LIG1       -0.0217
     53 H          -9.7228    9.6329    3.0404 H       1  LIG1        0.0293
     54 H          -8.4372    9.0285    1.9656 H       1  LIG1        0.0293
     55 H          -9.5019    7.8850    2.7638 H       1  LIG1        0.0293
     56 C         -13.2127    9.5413   -1.9184 C.1     1  LIG1       -0.0681
     57 C         -14.0255    9.7355   -2.7848 C.1     1  LIG1       -0.1139
     58 H         -14.7445    9.9087   -3.5518 H       1  LIG1        0.1232
@<TRIPOS>BOND
     1    29    28    1
     2    58    57    1
     3    28    27    3
     4    57    56    3
     5    27    19    1
     6    56    47    1
     7    22    18    1
     8    50    46    1
     9    19    18   ar
    10    19    20   ar
    11    18    17   ar
    12    47    46   ar
    13    47    48   ar
    14    46    45   ar
    15    11     9    1
    16    39    37    1
    17     7     3    1
    18    15    14    1
    19     3     4   ar
    20     3     2   ar
    21    14    13    3
    22    13     4    1
    23     8     2    1
    24     4     5   ar
    25     2     1   ar
    26    36    32    1
    27    20    31    1
    28    20    21   ar
    29    17     5    1
    30    17    16   ar
    31     5     6   ar
    32    32    31   ar
    33    32    33   ar
    34     1     6   ar
    35     1     9    1
    36    31    30   ar
    37    10     9    1
    38    42    41    3
    39    42    43    1
    40    41    33    1
    41    33    34   ar
    42     9    12    1
    43    34    45    1
    44    34    35   ar
    45    48    51    1
    46    48    49   ar
    47    45    44   ar
    48    30    35   ar
    49    30    37    1
    50    37    38    1
    51    37    40    1
    52    21    16   ar
    53    16    23    1
    54    49    44   ar
    55    44    52    1
    56    25    23    1
    57    54    52    1
    58    23    24    1
    59    23    26    1
    60    52    55    1
    61    52    53    1
