@<TRIPOS>MOLECULE
mol_data/opt/cam/geoms/mol2/6ie6ie6ie.out
 44 46 0 0 0
SMALL
GASTEIGER

@<TRIPOS>ATOM
      1 C          -4.1544   -1.8345   -1.2100 C.ar    1  LIG1        0.0390
      2 C          -3.0409   -2.1116   -0.4181 C.ar    1  LIG1       -0.0395
      3 C          -2.7012   -1.2284    0.5892 C.ar    1  LIG1       -0.0426
      4 C          -3.4654   -0.0760    0.7900 C.ar    1  LIG1        0.0507
      5 C          -4.5637    0.1339   -0.0683 C.ar    1  LIG1        0.0883
      6 N          -4.8873   -0.7338   -1.0271 N.ar    1  LIG1       -0.2506
      7 H          -1.8503   -1.4187    1.2340 H       1  LIG1        0.0631
      8 H          -2.4581   -3.0098   -0.5880 H       1  LIG1        0.0636
      9 C          -4.5952   -2.7537   -2.3129 C.3     1  LIG1       -0.0223
     10 H          -3.9305   -3.6134   -2.4137 H       1  LIG1        0.0292
     11 H          -4.6226   -2.2156   -3.2637 H       1  LIG1        0.0292
     12 H          -5.6086   -3.1158   -2.1198 H       1  LIG1        0.0292
     13 C          -3.1303    0.8194    1.8545 C.1     1  LIG1       -0.0675
     14 C          -2.8187    1.5438    2.7640 C.1     1  LIG1       -0.1138
     15 H          -2.5564    2.1953    3.5658 H       1  LIG1        0.1232
     16 C          -6.8203    1.2688    0.1360 C.ar    1  LIG1        0.0482
     17 C          -5.4189    1.3484    0.0316 C.ar    1  LIG1        0.0238
     18 C          -4.8447    2.6085   -0.0009 C.ar    1  LIG1       -0.0333
     19 C          -5.6379    3.7571    0.0474 C.ar    1  LIG1        0.0513
     20 C          -7.0291    3.5795    0.1304 C.ar    1  LIG1        0.0884
     21 N          -7.5772    2.3640    0.1856 N.ar    1  LIG1       -0.2499
     22 H          -3.7683    2.7162   -0.0651 H       1  LIG1        0.0637
     23 C          -7.5530   -0.0405    0.2122 C.3     1  LIG1       -0.0217
     24 H          -7.1061   -0.7066    0.9552 H       1  LIG1        0.0293
     25 H          -7.5088   -0.5601   -0.7472 H       1  LIG1        0.0293
     26 H          -8.5929    0.1514    0.4742 H       1  LIG1        0.0293
     27 C          -5.0155    5.0455    0.0343 C.1     1  LIG1       -0.0675
     28 C          -4.4551    6.1108    0.0262 C.1     1  LIG1       -0.1138
     29 H          -3.9747    7.0621    0.0193 H       1  LIG1        0.1232
     30 C          -8.9573    4.8714    1.1424 C.ar    1  LIG1        0.0475
     31 C          -7.9749    4.7290    0.1437 C.ar    1  LIG1        0.0237
     32 C          -7.9183    5.6802   -0.8653 C.ar    1  LIG1       -0.0339
     33 C          -8.8288    6.7375   -0.8802 C.ar    1  LIG1        0.0434
     34 C          -9.7671    6.7826    0.1521 C.ar    1  LIG1        0.0433
     35 N          -9.8254    5.8873    1.1299 N.ar    1  LIG1       -0.2583
     36 H          -7.1729    5.6032   -1.6482 H       1  LIG1        0.0637
     37 H         -10.4989    7.5860    0.1811 H       1  LIG1        0.0842
     38 C          -9.0888    3.9117    2.2909 C.3     1  LIG1       -0.0217
     39 H          -8.1207    3.7022    2.7534 H       1  LIG1        0.0293
     40 H          -9.4893    2.9552    1.9482 H       1  LIG1        0.0293
     41 H          -9.7615    4.3423    3.0319 H       1  LIG1        0.0293
     42 C          -8.8103    7.7336   -1.9056 C.1     1  LIG1       -0.0681
     43 C          -8.7980    8.5742   -2.7671 C.1     1  LIG1       -0.1139
     44 H          -8.7892    9.3178   -3.5303 H       1  LIG1        0.1232
@<TRIPOS>BOND
     1    44    43    1
     2    11     9    1
     3    43    42    3
     4    10     9    1
     5     9    12    1
     6     9     1    1
     7    42    33    1
     8    36    32    1
     9     1     6   ar
    10     1     2   ar
    11     6     5   ar
    12    33    32   ar
    13    33    34   ar
    14    32    31   ar
    15    25    23    1
    16     8     2    1
    17     2     3   ar
    18     5    17    1
    19     5     4   ar
    20    22    18    1
    21    18    17   ar
    22    18    19   ar
    23    29    28    1
    24    28    27    3
    25    17    16   ar
    26    27    19    1
    27    19    20   ar
    28    20    31    1
    29    20    21   ar
    30    16    21   ar
    31    16    23    1
    32    31    30   ar
    33    34    37    1
    34    34    35   ar
    35    23    26    1
    36    23    24    1
    37     3     4   ar
    38     3     7    1
    39     4    13    1
    40    35    30   ar
    41    30    38    1
    42    13    14    3
    43    40    38    1
    44    38    39    1
    45    38    41    1
    46    14    15    1
