@<TRIPOS>MOLECULE
mol_data/opt/cam/geoms/mol2/6ie6ie-6ie-6ie-.out
 58 61 0 0 0
SMALL
GASTEIGER

@<TRIPOS>ATOM
      1 C          -3.5220   -1.6895    0.8974 C.ar    1  LIG1        0.0390
      2 C          -3.0370   -2.2391   -0.2884 C.ar    1  LIG1       -0.0395
      3 C          -3.3175   -1.6049   -1.4842 C.ar    1  LIG1       -0.0426
      4 C          -4.0616   -0.4226   -1.4828 C.ar    1  LIG1        0.0507
      5 C          -4.4810    0.0800   -0.2360 C.ar    1  LIG1        0.0883
      6 N          -4.2279   -0.5549    0.9078 N.ar    1  LIG1       -0.2506
      7 H          -2.9786   -2.0181   -2.4279 H       1  LIG1        0.0631
      8 H          -2.4611   -3.1575   -0.2700 H       1  LIG1        0.0636
      9 C          -3.2784   -2.3345    2.2315 C.3     1  LIG1       -0.0223
     10 H          -2.7563   -3.2877    2.1317 H       1  LIG1        0.0292
     11 H          -4.2273   -2.5024    2.7468 H       1  LIG1        0.0292
     12 H          -2.6819   -1.6739    2.8667 H       1  LIG1        0.0292
     13 C          -4.4100    0.2058   -2.7193 C.1     1  LIG1       -0.0675
     14 C          -4.6972    0.7016   -3.7782 C.1     1  LIG1       -0.1138
     15 H          -4.9616    1.1472   -4.7098 H       1  LIG1        0.1232
     16 C          -4.8012    2.5986   -0.4667 C.ar    1  LIG1        0.0482
     17 C          -5.2857    1.3283   -0.1138 C.ar    1  LIG1        0.0238
     18 C          -6.5524    1.2496    0.4424 C.ar    1  LIG1       -0.0333
     19 C          -7.3434    2.3909    0.5796 C.ar    1  LIG1        0.0513
     20 C          -6.7969    3.6113    0.1422 C.ar    1  LIG1        0.0884
     21 N          -5.5561    3.6904   -0.3378 N.ar    1  LIG1       -0.2499
     22 H          -6.9318    0.2922    0.7809 H       1  LIG1        0.0637
     23 C          -3.4065    2.8227   -0.9789 C.3     1  LIG1       -0.0217
     24 H          -3.1315    3.8646   -0.8153 H       1  LIG1        0.0293
     25 H          -3.3514    2.6177   -2.0515 H       1  LIG1        0.0293
     26 H          -2.6835    2.1732   -0.4807 H       1  LIG1        0.0293
     27 C          -8.6410    2.2865    1.1733 C.1     1  LIG1       -0.0675
     28 C          -9.7248    2.1605    1.6816 C.1     1  LIG1       -0.1138
     29 H         -10.6863    2.0639    2.1313 H       1  LIG1        0.1232
     30 C          -7.0583    6.0519    0.7783 C.ar    1  LIG1        0.0482
     31 C          -7.5684    4.8831    0.1820 C.ar    1  LIG1        0.0238
     32 C          -8.8235    4.9510   -0.4004 C.ar    1  LIG1       -0.0333
     33 C          -9.5424    6.1484   -0.4135 C.ar    1  LIG1        0.0513
     34 C          -8.9425    7.2692    0.1845 C.ar    1  LIG1        0.0884
     35 N          -7.7449    7.1938    0.7681 N.ar    1  LIG1       -0.2499
     36 H          -9.2617    4.0704   -0.8551 H       1  LIG1        0.0637
     37 C          -5.7271    6.0934    1.4730 C.3     1  LIG1       -0.0217
     38 H          -5.6495    7.0254    2.0320 H       1  LIG1        0.0293
     39 H          -4.9142    6.0373    0.7461 H       1  LIG1        0.0293
     40 H          -5.6026    5.2464    2.1527 H       1  LIG1        0.0293
     41 C         -10.8459    6.1828   -1.0029 C.1     1  LIG1       -0.0675
     42 C         -11.9406    6.1709   -1.5033 C.1     1  LIG1       -0.1138
     43 H         -12.9116    6.1775   -1.9424 H       1  LIG1        0.1232
     44 C          -9.7721    9.3452    1.3748 C.ar    1  LIG1        0.0475
     45 C          -9.5931    8.6083    0.1882 C.ar    1  LIG1        0.0237
     46 C         -10.0144    9.1728   -1.0075 C.ar    1  LIG1       -0.0339
     47 C         -10.5873   10.4452   -1.0158 C.ar    1  LIG1        0.0434
     48 C         -10.7122   11.0937    0.2137 C.ar    1  LIG1        0.0433
     49 N         -10.3254   10.5616    1.3663 N.ar    1  LIG1       -0.2583
     50 H          -9.8949    8.6324   -1.9393 H       1  LIG1        0.0637
     51 H         -11.1496   12.0881    0.2571 H       1  LIG1        0.0842
     52 C          -9.3738    8.8160    2.7233 C.3     1  LIG1       -0.0217
     53 H          -9.7940    9.4636    3.4921 H       1  LIG1        0.0293
     54 H          -8.2863    8.7924    2.8206 H       1  LIG1        0.0293
     55 H          -9.7270    7.7924    2.8740 H       1  LIG1        0.0293
     56 C         -11.0271   11.0659   -2.2263 C.1     1  LIG1       -0.0681
     57 C         -11.3988   11.5919   -3.2433 C.1     1  LIG1       -0.1139
     58 H         -11.7265   12.0592   -4.1431 H       1  LIG1        0.1232
@<TRIPOS>BOND
     1    15    14    1
     2    58    57    1
     3    14    13    3
     4    57    56    3
     5    13     4    1
     6     7     3    1
     7    56    47    1
     8    25    23    1
     9    43    42    1
    10    50    46    1
    11    42    41    3
    12     3     4   ar
    13     3     2   ar
    14     4     5   ar
    15    47    46   ar
    16    47    48   ar
    17    46    45   ar
    18    41    33    1
    19    23    24    1
    20    23    26    1
    21    23    16    1
    22    36    32    1
    23    16    21   ar
    24    16    17   ar
    25    33    32   ar
    26    33    34   ar
    27    32    31   ar
    28    21    20   ar
    29     2     8    1
    30     2     1   ar
    31     5    17    1
    32     5     6   ar
    33    17    18   ar
    34    20    31    1
    35    20    19   ar
    36    31    30   ar
    37    34    45    1
    38    34    35   ar
    39    45    44   ar
    40    48    51    1
    41    48    49   ar
    42    18    19   ar
    43    18    22    1
    44    19    27    1
    45    39    37    1
    46    35    30   ar
    47    30    37    1
    48     1     6   ar
    49     1     9    1
    50    27    28    3
    51    49    44   ar
    52    44    52    1
    53    37    38    1
    54    37    40    1
    55    28    29    1
    56    10     9    1
    57     9    11    1
    58     9    12    1
    59    52    54    1
    60    52    55    1
    61    52    53    1
