@<TRIPOS>MOLECULE
mol_data/opt/cam/geoms/mol2/6ie6ie-4ie6ie.out
 59 62 0 0 0
SMALL
GASTEIGER

@<TRIPOS>ATOM
      1 C          -3.9386   -1.9417    0.8503 C.ar    1  LIG1        0.0390
      2 C          -2.9800   -2.2158   -0.1240 C.ar    1  LIG1       -0.0395
      3 C          -2.7719   -1.2964   -1.1352 C.ar    1  LIG1       -0.0426
      4 C          -3.5068   -0.1086   -1.1530 C.ar    1  LIG1        0.0507
      5 C          -4.4274    0.1026   -0.1082 C.ar    1  LIG1        0.0883
      6 N          -4.6392   -0.8038    0.8454 N.ar    1  LIG1       -0.2506
      7 H          -2.0537   -1.4884   -1.9249 H       1  LIG1        0.0631
      8 H          -2.4190   -3.1430   -0.0940 H       1  LIG1        0.0636
      9 C          -4.2412   -2.9049    1.9621 C.3     1  LIG1       -0.0223
     10 H          -3.6476   -3.8172    1.8809 H       1  LIG1        0.0292
     11 H          -5.3011   -3.1716    1.9506 H       1  LIG1        0.0292
     12 H          -4.0391   -2.4391    2.9302 H       1  LIG1        0.0292
     13 C          -3.3446    0.8173   -2.2308 C.1     1  LIG1       -0.0675
     14 C          -3.1941    1.5680   -3.1599 C.1     1  LIG1       -0.1138
     15 H          -3.0744    2.2388   -3.9796 H       1  LIG1        0.1232
     16 C          -4.7432    2.6178    0.1627 C.ar    1  LIG1        0.0482
     17 C          -5.2688    1.3297   -0.0284 C.ar    1  LIG1        0.0238
     18 C          -6.6471    1.1939   -0.0741 C.ar    1  LIG1       -0.0333
     19 C          -7.4769    2.3134   -0.0055 C.ar    1  LIG1        0.0513
     20 C          -6.8583    3.5712    0.1201 C.ar    1  LIG1        0.0869
     21 N          -5.5347    3.6893    0.2267 N.ar    1  LIG1       -0.2500
     22 H          -7.0868    0.2065   -0.1584 H       1  LIG1        0.0637
     23 C          -3.2734    2.8782    0.3377 C.3     1  LIG1       -0.0217
     24 H          -3.1406    3.8320    0.8482 H       1  LIG1        0.0293
     25 H          -2.7733    2.9365   -0.6329 H       1  LIG1        0.0293
     26 H          -2.7874    2.0870    0.9129 H       1  LIG1        0.0293
     27 C          -8.8973    2.1420   -0.0351 C.1     1  LIG1       -0.0675
     28 C         -10.0857    1.9518   -0.0561 C.1     1  LIG1       -0.1138
     29 H         -11.1405    1.8011   -0.0740 H       1  LIG1        0.1232
     30 C          -7.4821    5.7944    1.1537 C.ar    1  LIG1       -0.0406
     31 C          -8.2276    6.9682    1.0746 C.ar    1  LIG1       -0.0493
     32 C          -7.6391    4.8407    0.1336 C.ar    1  LIG1        0.0056
     33 C          -9.1112    7.2374    0.0325 C.ar    1  LIG1       -0.0005
     34 H          -8.1248    7.7056    1.8652 H       1  LIG1        0.0627
     35 C          -8.5170    5.0974   -0.9134 C.ar    1  LIG1       -0.0363
     36 C          -9.2527    6.2824   -0.9874 C.ar    1  LIG1        0.0331
     37 H          -8.6321    4.3676   -1.7060 H       1  LIG1        0.0637
     38 C          -6.5583    5.5812    2.3225 C.3     1  LIG1       -0.0391
     39 H          -6.7267    6.3407    3.0887 H       1  LIG1        0.0278
     40 H          -5.5147    5.6242    2.0051 H       1  LIG1        0.0278
     41 H          -6.7080    4.5979    2.7763 H       1  LIG1        0.0278
     42 C         -10.1139    6.5040   -2.1105 C.1     1  LIG1       -0.0690
     43 C         -10.8315    6.6721   -3.0627 C.1     1  LIG1       -0.1139
     44 H         -11.4633    6.8311   -3.9060 H       1  LIG1        0.1232
     45 C         -11.2351    8.6087    0.2544 C.ar    1  LIG1        0.0460
     46 C          -9.8504    8.5300    0.0149 C.ar    1  LIG1        0.0055
     47 C          -9.1549    9.7108   -0.2045 C.ar    1  LIG1       -0.0354
     48 C          -9.8323   10.9317   -0.2072 C.ar    1  LIG1        0.0433
     49 C         -11.2085   10.8955    0.0240 C.ar    1  LIG1        0.0433
     50 N         -11.8842    9.7765    0.2536 N.ar    1  LIG1       -0.2583
     51 H          -8.0852    9.6852   -0.3827 H       1  LIG1        0.0637
     52 H         -11.7790   11.8208    0.0285 H       1  LIG1        0.0842
     53 C         -12.0642    7.3883    0.5377 C.3     1  LIG1       -0.0218
     54 H         -11.5690    6.7223    1.2486 H       1  LIG1        0.0293
     55 H         -12.2339    6.8180   -0.3802 H       1  LIG1        0.0293
     56 H         -13.0287    7.6995    0.9379 H       1  LIG1        0.0293
     57 C          -9.1539   12.1695   -0.4347 C.1     1  LIG1       -0.0681
     58 C          -8.5854   13.2132   -0.6256 C.1     1  LIG1       -0.1139
     59 H          -8.0831   14.1375   -0.7955 H       1  LIG1        0.1232
@<TRIPOS>BOND
     1    15    14    1
     2    44    43    1
     3    14    13    3
     4    43    42    3
     5    13     4    1
     6    42    36    1
     7     7     3    1
     8    37    35    1
     9     4     3   ar
    10     4     5   ar
    11     3     2   ar
    12    36    35   ar
    13    36    33   ar
    14    35    32   ar
    15    59    58    1
    16    25    23    1
    17    58    57    3
    18    57    48    1
    19    51    47    1
    20    55    53    1
    21    48    47   ar
    22    48    49   ar
    23    47    46   ar
    24    22    18    1
    25     2     8    1
    26     2     1   ar
    27     5    17    1
    28     5     6   ar
    29    18    17   ar
    30    18    19   ar
    31    29    28    1
    32    28    27    3
    33    27    19    1
    34    17    16   ar
    35    19    20   ar
    36    46    33    1
    37    46    45   ar
    38    49    52    1
    39    49    50   ar
    40    33    31   ar
    41    20    32    1
    42    20    21   ar
    43    32    30   ar
    44    16    21   ar
    45    16    23    1
    46    50    45   ar
    47    45    53    1
    48    23    24    1
    49    23    26    1
    50    53    56    1
    51    53    54    1
    52     6     1   ar
    53     1     9    1
    54    31    30   ar
    55    31    34    1
    56    30    38    1
    57    10     9    1
    58    11     9    1
    59     9    12    1
    60    40    38    1
    61    38    41    1
    62    38    39    1
