@<TRIPOS>MOLECULE
mol_data/opt/cam/geoms/mol2/6ie6ie-6ie.out
 44 46 0 0 0
SMALL
GASTEIGER

@<TRIPOS>ATOM
      1 C          -4.4209   -2.0846    0.4496 C.ar    1  LIG1        0.0390
      2 C          -3.0945   -2.1699    0.0297 C.ar    1  LIG1       -0.0395
      3 C          -2.4683   -1.0329   -0.4466 C.ar    1  LIG1       -0.0426
      4 C          -3.1654    0.1770   -0.4824 C.ar    1  LIG1        0.0507
      5 C          -4.4910    0.1783   -0.0073 C.ar    1  LIG1        0.0883
      6 N          -5.0923   -0.9292    0.4251 N.ar    1  LIG1       -0.2506
      7 H          -1.4452   -1.0677   -0.8045 H       1  LIG1        0.0631
      8 H          -2.5695   -3.1178    0.0651 H       1  LIG1        0.0636
      9 C          -5.1743   -3.2815    0.9546 C.3     1  LIG1       -0.0223
     10 H          -4.5687   -4.1886    0.9136 H       1  LIG1        0.0292
     11 H          -6.0793   -3.4342    0.3612 H       1  LIG1        0.0292
     12 H          -5.4929   -3.1184    1.9875 H       1  LIG1        0.0292
     13 C          -2.5459    1.3454   -1.0268 C.1     1  LIG1       -0.0675
     14 C          -1.9994    2.3071   -1.5020 C.1     1  LIG1       -0.1138
     15 H          -1.5275    3.1641   -1.9253 H       1  LIG1        0.1232
     16 C          -5.0600    2.5252    0.8030 C.ar    1  LIG1        0.0482
     17 C          -5.3314    1.4096   -0.0053 C.ar    1  LIG1        0.0238
     18 C          -6.4653    1.4434   -0.8013 C.ar    1  LIG1       -0.0333
     19 C          -7.2865    2.5710   -0.8190 C.ar    1  LIG1        0.0513
     20 C          -6.9329    3.6418    0.0194 C.ar    1  LIG1        0.0884
     21 N          -5.8501    3.6013    0.7950 N.ar    1  LIG1       -0.2499
     22 H          -6.7126    0.5909   -1.4239 H       1  LIG1        0.0637
     23 C          -3.8924    2.5770    1.7475 C.3     1  LIG1       -0.0217
     24 H          -4.0671    3.3630    2.4816 H       1  LIG1        0.0293
     25 H          -2.9683    2.8046    1.2090 H       1  LIG1        0.0293
     26 H          -3.7481    1.6242    2.2625 H       1  LIG1        0.0293
     27 C          -8.4153    2.6214   -1.6958 C.1     1  LIG1       -0.0675
     28 C          -9.3516    2.6396   -2.4524 C.1     1  LIG1       -0.1138
     29 H         -10.1807    2.6689   -3.1215 H       1  LIG1        0.1232
     30 C          -9.0286    4.9734    0.5766 C.ar    1  LIG1        0.0475
     31 C          -7.7191    4.9075    0.0712 C.ar    1  LIG1        0.0237
     32 C          -7.1105    6.0829   -0.3451 C.ar    1  LIG1       -0.0339
     33 C          -7.8164    7.2848   -0.3034 C.ar    1  LIG1        0.0434
     34 C          -9.1254    7.2362    0.1828 C.ar    1  LIG1        0.0433
     35 N          -9.7050    6.1263    0.6192 N.ar    1  LIG1       -0.2583
     36 H          -6.0866    6.0642   -0.7012 H       1  LIG1        0.0637
     37 H          -9.7173    8.1470    0.2277 H       1  LIG1        0.0842
     38 C          -9.7428    3.7717    1.1281 C.3     1  LIG1       -0.0217
     39 H          -9.0758    3.1424    1.7221 H       1  LIG1        0.0293
     40 H         -10.1457    3.1550    0.3198 H       1  LIG1        0.0293
     41 H         -10.5716    4.1097    1.7497 H       1  LIG1        0.0293
     42 C          -7.2351    8.5179   -0.7342 C.1     1  LIG1       -0.0681
     43 C          -6.7502    9.5584   -1.0964 C.1     1  LIG1       -0.1139
     44 H          -6.3219   10.4806   -1.4152 H       1  LIG1        0.1232
@<TRIPOS>BOND
     1    29    28    1
     2    28    27    3
     3    15    14    1
     4    27    19    1
     5    14    13    3
     6    22    18    1
     7    44    43    1
     8    43    42    3
     9    13     4    1
    10    19    18   ar
    11    19    20   ar
    12     7     3    1
    13    18    17   ar
    14    42    33    1
    15    36    32    1
    16     4     3   ar
    17     4     5   ar
    18     3     2   ar
    19    32    33   ar
    20    32    31   ar
    21    33    34   ar
    22     5    17    1
    23     5     6   ar
    24    17    16   ar
    25    20    31    1
    26    20    21   ar
    27     2     8    1
    28     2     1   ar
    29    31    30   ar
    30    34    37    1
    31    34    35   ar
    32    40    38    1
    33    11     9    1
    34     6     1   ar
    35     1     9    1
    36    30    35   ar
    37    30    38    1
    38    21    16   ar
    39    16    23    1
    40    10     9    1
    41     9    12    1
    42    38    39    1
    43    38    41    1
    44    25    23    1
    45    23    26    1
    46    23    24    1
