@<TRIPOS>MOLECULE
mol_data/opt/cam/geoms/mol2/6ie6ie.out
 30 31 0 0 0
SMALL
GASTEIGER

@<TRIPOS>ATOM
      1 C          -4.4476   -1.9856   -0.6373 C.ar    1  LIG1        0.0390
      2 C          -3.1170   -2.0634   -0.2292 C.ar    1  LIG1       -0.0395
      3 C          -2.5239   -0.9473    0.3299 C.ar    1  LIG1       -0.0426
      4 C          -3.2571    0.2342    0.4667 C.ar    1  LIG1        0.0507
      5 C          -4.5913    0.2291    0.0112 C.ar    1  LIG1        0.0883
      6 N          -5.1537   -0.8593   -0.5139 N.ar    1  LIG1       -0.2506
      7 H          -1.4953   -0.9750    0.6724 H       1  LIG1        0.0631
      8 H          -2.5621   -2.9878   -0.3433 H       1  LIG1        0.0636
      9 C          -5.1648   -3.1593   -1.2406 C.3     1  LIG1       -0.0223
     10 H          -4.5192   -4.0366   -1.3099 H       1  LIG1        0.0292
     11 H          -5.5249   -2.9074   -2.2414 H       1  LIG1        0.0292
     12 H          -6.0412   -3.4154   -0.6394 H       1  LIG1        0.0292
     13 C          -2.6501    1.3771    1.0769 C.1     1  LIG1       -0.0675
     14 C          -2.1041    2.3133    1.6008 C.1     1  LIG1       -0.1138
     15 H          -1.6369    3.1521    2.0635 H       1  LIG1        0.1232
     16 C          -6.7222    1.4287    0.6674 C.ar    1  LIG1        0.0475
     17 C          -5.4473    1.4465    0.0704 C.ar    1  LIG1        0.0237
     18 C          -5.0043    2.6302   -0.5024 C.ar    1  LIG1       -0.0339
     19 C          -5.8213    3.7612   -0.4888 C.ar    1  LIG1        0.0434
     20 C          -7.0700    3.6356    0.1220 C.ar    1  LIG1        0.0433
     21 N          -7.5017    2.5139    0.6845 N.ar    1  LIG1       -0.2583
     22 H          -4.0269    2.6808   -0.9680 H       1  LIG1        0.0637
     23 H          -7.7428    4.4888    0.1547 H       1  LIG1        0.0842
     24 C          -7.2866    0.2065    1.3347 C.3     1  LIG1       -0.0217
     25 H          -6.5606   -0.2552    2.0092 H       1  LIG1        0.0293
     26 H          -7.5538   -0.5478    0.5914 H       1  LIG1        0.0293
     27 H          -8.1749    0.4929    1.8966 H       1  LIG1        0.0293
     28 C          -5.4063    4.9975   -1.0747 C.1     1  LIG1       -0.0681
     29 C          -5.0604    6.0401   -1.5670 C.1     1  LIG1       -0.1139
     30 H          -4.7562    6.9632   -2.0038 H       1  LIG1        0.1232
@<TRIPOS>BOND
     1    11     9    1
     2    30    29    1
     3    29    28    3
     4    10     9    1
     5     9    12    1
     6     9     1    1
     7    28    19    1
     8    22    18    1
     9     1     6   ar
    10     1     2   ar
    11     6     5   ar
    12    18    19   ar
    13    18    17   ar
    14    19    20   ar
    15     8     2    1
    16     2     3   ar
    17     5    17    1
    18     5     4   ar
    19    17    16   ar
    20    20    23    1
    21    20    21   ar
    22     3     4   ar
    23     3     7    1
    24     4    13    1
    25    26    24    1
    26    16    21   ar
    27    16    24    1
    28    13    14    3
    29    24    27    1
    30    24    25    1
    31    14    15    1
