@<TRIPOS>MOLECULE
mol_data/opt/cam/geoms/mol2/6if13aa-12ia-13il-.out
 48 51 0 0 0
SMALL
GASTEIGER

@<TRIPOS>ATOM
      1 C          -4.7030   -2.0270    0.5984 C.ar    1  LIG1        0.0392
      2 C          -3.3585   -2.2238    0.2861 C.ar    1  LIG1       -0.0372
      3 C          -2.6174   -1.1685   -0.2233 C.ar    1  LIG1       -0.0163
      4 C          -3.2245    0.0671   -0.3805 C.ar    1  LIG1        0.1442
      5 C          -4.5648    0.2066    0.0125 C.ar    1  LIG1        0.1286
      6 N          -5.2800   -0.8330    0.4596 N.ar    1  LIG1       -0.2467
      7 H          -1.5797   -1.2844   -0.5158 H       1  LIG1        0.0655
      8 H          -2.9044   -3.1989    0.4223 H       1  LIG1        0.0636
      9 C          -5.5738   -3.1432    1.1067 C.3     1  LIG1       -0.0223
     10 H          -5.0019   -4.0605    1.2595 H       1  LIG1        0.0292
     11 H          -6.3789   -3.3561    0.3974 H       1  LIG1        0.0292
     12 H          -6.0419   -2.8625    2.0535 H       1  LIG1        0.0292
     13 O          -2.5069    1.0900   -0.9151 O.3     1  LIG1       -0.5046
     14 H          -3.1243    1.7462   -1.2691 H       1  LIG1        0.2922
     15 C          -5.2723    1.4811   -0.0815 C.ar    1  LIG1        0.0691
     16 C          -4.8690    2.8054   -0.1793 C.ar    1  LIG1       -0.0341
     17 C          -6.0332    3.6055   -0.2113 C.ar    1  LIG1       -0.0327
     18 C          -7.1236    2.7550   -0.1264 C.ar    1  LIG1        0.0828
     19 N          -6.6380    1.4799   -0.0522 N.ar    1  LIG1       -0.3505
     20 H          -7.1713    0.6346    0.0829 H       1  LIG1        0.1660
     21 H          -3.8532    3.1720   -0.1440 H       1  LIG1        0.0639
     22 H          -6.0729    4.6803   -0.2946 H       1  LIG1        0.0640
     23 C          -8.5400    3.0150   -0.1042 C.ar    1  LIG1        0.1547
     24 C          -9.2918    4.1514   -0.0117 C.ar    1  LIG1       -0.0026
     25 C         -10.6538    3.7218   -0.0352 C.ar    1  LIG1       -0.0108
     26 C         -10.6489    2.3624   -0.1332 C.ar    1  LIG1        0.1524
     27 O          -9.3585    1.9170   -0.1768 O.2     1  LIG1       -0.4516
     28 C          -8.7984    5.5587    0.0982 C.3     1  LIG1       -0.0360
     29 H          -9.6058    6.2277    0.4026 H       1  LIG1        0.0279
     30 H          -8.4059    5.9275   -0.8555 H       1  LIG1        0.0279
     31 H          -7.9961    5.6428    0.8370 H       1  LIG1        0.0279
     32 H         -11.5260    4.3551    0.0168 H       1  LIG1        0.0659
     33 C         -11.6738    1.3531   -0.1994 C.ar    1  LIG1        0.0886
     34 C         -13.0522    1.4623   -0.1284 C.ar    1  LIG1        0.0195
     35 C         -13.5535    0.1406   -0.2525 C.ar    1  LIG1        0.1409
     36 C         -12.4954   -0.7298   -0.3926 C.ar    1  LIG1        0.0447
     37 N         -11.3526    0.0313   -0.3568 N.ar    1  LIG1       -0.3550
     38 H         -10.4111   -0.3101   -0.4428 H       1  LIG1        0.1655
     39 H         -12.4593   -1.7997   -0.5108 H       1  LIG1        0.0844
     40 C         -13.8779    2.6953    0.0470 C.3     1  LIG1       -0.0341
     41 H         -14.9324    2.4260    0.1267 H       1  LIG1        0.0279
     42 H         -13.7727    3.3837   -0.7988 H       1  LIG1        0.0279
     43 H         -13.6017    3.2450    0.9532 H       1  LIG1        0.0279
     44 O         -14.8857   -0.1258   -0.2226 O.3     1  LIG1       -0.4933
     45 C         -15.2281   -1.4863   -0.3438 C.3     1  LIG1        0.0789
     46 H         -16.3156   -1.5461   -0.2998 H       1  LIG1        0.0660
     47 H         -14.8810   -1.9008   -1.2992 H       1  LIG1        0.0660
     48 H         -14.7989   -2.0792    0.4743 H       1  LIG1        0.0660
@<TRIPOS>BOND
     1    47    45    1
     2    14    13    1
     3    13     4    1
     4    30    28    1
     5    42    40    1
     6     7     3    1
     7    39    36    1
     8    38    37    1
     9    36    37   ar
    10    36    35   ar
    11     4     3   ar
    12     4     5   ar
    13    37    33   ar
    14    45    46    1
    15    45    44    1
    16    45    48    1
    17    22    17    1
    18    35    44    1
    19    35    34   ar
    20     3     2   ar
    21    17    16   ar
    22    17    18   ar
    23    33    26    1
    24    33    34   ar
    25    16    21    1
    26    16    15   ar
    27    27    26   ar
    28    27    23   ar
    29    26    25   ar
    30    34    40    1
    31    18    23    1
    32    18    19   ar
    33    23    24   ar
    34    15    19   ar
    35    15     5    1
    36    19    20    1
    37    25    24   ar
    38    25    32    1
    39    24    28    1
    40     5     6   ar
    41    40    41    1
    42    40    43    1
    43    28    29    1
    44    28    31    1
    45     2     8    1
    46     2     1   ar
    47    11     9    1
    48     6     1   ar
    49     1     9    1
    50     9    10    1
    51     9    12    1
