@<TRIPOS>MOLECULE
mol_data/opt/cam/geoms/mol2/6if13di-12ii-6fi.out
 53 56 0 0 0
SMALL
GASTEIGER

@<TRIPOS>ATOM
      1 C          -4.7100   -1.9447   -0.8115 C.ar    1  LIG1        0.0392
      2 C          -3.3270   -2.1398   -0.9222 C.ar    1  LIG1       -0.0372
      3 C          -2.4875   -1.0707   -0.7201 C.ar    1  LIG1       -0.0163
      4 C          -3.0038    0.1914   -0.4033 C.ar    1  LIG1        0.1442
      5 C          -4.3972    0.3095   -0.2962 C.ar    1  LIG1        0.1298
      6 N          -5.1997   -0.7543   -0.5101 N.ar    1  LIG1       -0.2467
      7 H          -1.4102   -1.1628   -0.8015 H       1  LIG1        0.0655
      8 H          -2.9292   -3.1191   -1.1660 H       1  LIG1        0.0636
      9 C          -5.6827   -3.0705   -1.0289 C.3     1  LIG1       -0.0223
     10 H          -5.5238   -3.8745   -0.3039 H       1  LIG1        0.0292
     11 H          -5.5704   -3.5047   -2.0269 H       1  LIG1        0.0292
     12 H          -6.7035   -2.7047   -0.9192 H       1  LIG1        0.0292
     13 O          -2.0817    1.1660   -0.2829 O.3     1  LIG1       -0.5046
     14 H          -2.3908    1.9718    0.1542 H       1  LIG1        0.2922
     15 C          -5.1713    1.5317   -0.0049 C.ar    1  LIG1        0.0869
     16 C          -4.9224    2.8291    0.4539 C.ar    1  LIG1        0.0822
     17 C          -6.1644    3.5314    0.5397 C.ar    1  LIG1       -0.0041
     18 C          -7.1324    2.6449    0.1191 C.ar    1  LIG1        0.0871
     19 N          -6.5093    1.4615   -0.1941 N.ar    1  LIG1       -0.3492
     20 H          -6.9352    0.5898   -0.4826 H       1  LIG1        0.1661
     21 N          -2.6659    3.8243    1.1946 N.1     1  LIG1       -0.1908
     22 C          -3.6843    3.3793    0.8593 C.1     1  LIG1        0.1016
     23 C          -6.3447    4.9220    1.0557 C.3     1  LIG1       -0.0364
     24 H          -7.3769    5.0865    1.3703 H       1  LIG1        0.0279
     25 H          -6.0985    5.6773    0.3024 H       1  LIG1        0.0279
     26 H          -5.6943    5.1024    1.9155 H       1  LIG1        0.0279
     27 C          -8.5702    2.7764    0.0014 C.ar    1  LIG1        0.1552
     28 C          -9.4073    3.7455   -0.4579 C.ar    1  LIG1        0.0003
     29 C         -10.7463    3.2427   -0.2956 C.ar    1  LIG1       -0.0010
     30 C         -10.6320    1.9837    0.2155 C.ar    1  LIG1        0.1440
     31 O          -9.3035    1.6888    0.4071 O.2     1  LIG1       -0.4526
     32 C          -9.0367    5.0589   -1.0672 C.3     1  LIG1       -0.0358
     33 H          -9.2558    5.8974   -0.3980 H       1  LIG1        0.0279
     34 H          -9.5966    5.2279   -1.9913 H       1  LIG1        0.0279
     35 H          -7.9732    5.0925   -1.3081 H       1  LIG1        0.0279
     36 C         -11.9929    4.0027   -0.6204 C.3     1  LIG1       -0.0358
     37 H         -12.8460    3.6306   -0.0501 H       1  LIG1        0.0279
     38 H         -12.2487    3.9379   -1.6838 H       1  LIG1        0.0279
     39 H         -11.8694    5.0628   -0.3838 H       1  LIG1        0.0279
     40 C         -11.3619    0.0561    1.6701 C.ar    1  LIG1        0.2232
     41 C         -11.5932    0.9513    0.5947 C.ar    1  LIG1        0.0791
     42 C         -12.8065    0.8241   -0.0751 C.ar    1  LIG1       -0.0416
     43 C         -13.7580   -0.1110    0.3246 C.ar    1  LIG1       -0.0314
     44 C         -13.4151   -0.9025    1.4134 C.ar    1  LIG1        0.0343
     45 N         -12.2549   -0.8326    2.0627 N.ar    1  LIG1       -0.2206
     46 H         -13.0041    1.4585   -0.9333 H       1  LIG1        0.0629
     47 H         -14.1177   -1.6482    1.7821 H       1  LIG1        0.0833
     48 O         -10.2169    0.0513    2.3756 O.3     1  LIG1       -0.4919
     49 H          -9.5738    0.6419    1.9574 H       1  LIG1        0.2937
     50 C         -15.0744   -0.2643   -0.3860 C.3     1  LIG1       -0.0383
     51 H         -15.6841   -1.0387    0.0848 H       1  LIG1        0.0278
     52 H         -14.9349   -0.5448   -1.4346 H       1  LIG1        0.0278
     53 H         -15.6510    0.6657   -0.3715 H       1  LIG1        0.0278
@<TRIPOS>BOND
     1    11     9    1
     2    34    32    1
     3    38    36    1
     4    52    50    1
     5    35    32    1
     6     8     2    1
     7    32    28    1
     8    32    33    1
     9     9    12    1
    10     9     1    1
    11     9    10    1
    12    46    42    1
    13     2     1   ar
    14     2     3   ar
    15     1     6   ar
    16     7     3    1
    17     3     4   ar
    18    36    39    1
    19    36    29    1
    20    36    37    1
    21     6     5   ar
    22    20    19    1
    23    28    29   ar
    24    28    27   ar
    25     4     5   ar
    26     4    13    1
    27    50    53    1
    28    50    51    1
    29    50    43    1
    30     5    15    1
    31    29    30   ar
    32    13    14    1
    33    19    15   ar
    34    19    18   ar
    35    42    43   ar
    36    42    41   ar
    37    15    16   ar
    38    27    18    1
    39    27    31   ar
    40    18    17   ar
    41    30    31   ar
    42    30    41    1
    43    25    23    1
    44    43    44   ar
    45    16    17   ar
    46    16    22    1
    47    17    23    1
    48    41    40   ar
    49    22    21    3
    50    23    24    1
    51    23    26    1
    52    44    47    1
    53    44    45   ar
    54    40    45   ar
    55    40    48    1
    56    49    48    1
