@<TRIPOS>MOLECULE
mol_data/opt/cam/geoms/mol2/6if12ff-12de12dl.out
 46 49 0 0 0
SMALL
GASTEIGER

@<TRIPOS>ATOM
      1 C          -4.3032   -2.0576    0.1524 C.ar    1  LIG1        0.0393
      2 C          -2.9418   -2.0202   -0.1782 C.ar    1  LIG1       -0.0372
      3 C          -2.3384   -0.8043   -0.4107 C.ar    1  LIG1       -0.0162
      4 C          -3.0861    0.3717   -0.3195 C.ar    1  LIG1        0.1459
      5 C          -4.4442    0.2463    0.0166 C.ar    1  LIG1        0.1512
      6 N          -5.0171   -0.9460    0.2441 N.ar    1  LIG1       -0.2450
      7 H          -1.2899   -0.7225   -0.6745 H       1  LIG1        0.0655
      8 H          -2.3720   -2.9410   -0.2483 H       1  LIG1        0.0636
      9 C          -5.0086   -3.3587    0.4227 C.3     1  LIG1       -0.0223
     10 H          -4.5996   -3.8544    1.3089 H       1  LIG1        0.0292
     11 H          -4.9014   -4.0521   -0.4169 H       1  LIG1        0.0292
     12 H          -6.0685   -3.1686    0.5898 H       1  LIG1        0.0292
     13 O          -2.4463    1.5222   -0.6139 O.3     1  LIG1       -0.5045
     14 H          -2.8943    2.3064   -0.2504 H       1  LIG1        0.2922
     15 C          -5.3461    1.3949    0.1120 C.ar    1  LIG1        0.2025
     16 C          -5.1736    2.7334    0.3244 C.ar    1  LIG1        0.2076
     17 C          -6.4457    3.3529    0.3011 C.ar    1  LIG1        0.2091
     18 C          -7.3503    2.3368    0.0802 C.ar    1  LIG1        0.2169
     19 O          -6.6734    1.1563   -0.0324 O.2     1  LIG1       -0.4424
     20 O          -4.0050    3.3911    0.5663 O.3     1  LIG1       -0.5008
     21 H          -4.1780    4.3432    0.5274 H       1  LIG1        0.2924
     22 O          -6.5218    4.6761    0.5213 O.3     1  LIG1       -0.5007
     23 H          -7.3834    5.0651    0.2949 H       1  LIG1        0.2924
     24 C          -8.7731    2.2648   -0.0335 C.ar    1  LIG1        0.1930
     25 C          -9.7630    3.2186   -0.1386 C.ar    1  LIG1        0.1167
     26 C         -11.0177    2.5159   -0.2094 C.ar    1  LIG1        0.0916
     27 C         -10.6911    1.1889   -0.1359 C.ar    1  LIG1        0.1887
     28 O          -9.3363    1.0435   -0.0340 O.2     1  LIG1       -0.4458
     29 N          -9.2522    5.7329   -0.2695 N.1     1  LIG1       -0.1907
     30 C          -9.5367    4.6097   -0.2136 C.1     1  LIG1        0.1043
     31 C         -12.2941    3.1018   -0.3839 C.1     1  LIG1       -0.0644
     32 C         -13.3705    3.6148   -0.5391 C.1     1  LIG1       -0.1138
     33 H         -14.3339    4.0561   -0.6569 H       1  LIG1        0.1232
     34 C         -11.4571   -0.0294   -0.1702 C.ar    1  LIG1        0.1920
     35 C         -12.7331   -0.3621    0.2201 C.ar    1  LIG1        0.1420
     36 C         -12.8889   -1.7588   -0.1097 C.ar    1  LIG1        0.1757
     37 C         -11.7124   -2.1535   -0.6540 C.ar    1  LIG1        0.1356
     38 O         -10.8405   -1.1102   -0.6866 O.2     1  LIG1       -0.4547
     39 H         -11.3565   -3.1005   -1.0225 H       1  LIG1        0.1068
     40 N         -14.4673    1.0492    1.4971 N.1     1  LIG1       -0.1906
     41 C         -13.6737    0.4386    0.9167 C.1     1  LIG1        0.1068
     42 O         -13.9452   -2.5577    0.1421 O.3     1  LIG1       -0.4907
     43 C         -15.1864   -2.1454   -0.4293 C.3     1  LIG1        0.0790
     44 H         -15.9100   -2.9153   -0.1643 H       1  LIG1        0.0660
     45 H         -15.5166   -1.1857   -0.0235 H       1  LIG1        0.0660
     46 H         -15.1063   -2.0771   -1.5193 H       1  LIG1        0.0660
@<TRIPOS>BOND
     1    46    43    1
     2    39    37    1
     3    38    37   ar
     4    38    34   ar
     5     7     3    1
     6    33    32    1
     7    37    36   ar
     8    13     4    1
     9    13    14    1
    10    32    31    3
    11    43    44    1
    12    43    45    1
    13    43    42    1
    14    11     9    1
    15     3     4   ar
    16     3     2   ar
    17    31    26    1
    18     4     5   ar
    19    29    30    3
    20     8     2    1
    21    30    25    1
    22    26    25   ar
    23    26    27   ar
    24     2     1   ar
    25    34    27    1
    26    34    35   ar
    27    25    24   ar
    28    27    28   ar
    29    36    42    1
    30    36    35   ar
    31    28    24   ar
    32    24    18    1
    33    19    18   ar
    34    19    15   ar
    35     5    15    1
    36     5     6   ar
    37    18    17   ar
    38    15    16   ar
    39     1     6   ar
    40     1     9    1
    41    35    41    1
    42    23    22    1
    43    17    16   ar
    44    17    22    1
    45    16    20    1
    46     9    12    1
    47     9    10    1
    48    21    20    1
    49    41    40    3
