@<TRIPOS>MOLECULE
mol_data/opt/cam/geoms/mol2/6if4ai-6aa-4eh-.out
 51 54 0 0 0
SMALL
GASTEIGER

@<TRIPOS>ATOM
      1 C          -4.1226   -2.1259    0.5254 C.ar    1  LIG1        0.0392
      2 C          -2.9470   -2.2301   -0.2182 C.ar    1  LIG1       -0.0372
      3 C          -2.5488   -1.1649   -1.0064 C.ar    1  LIG1       -0.0164
      4 C          -3.3181   -0.0093   -1.0202 C.ar    1  LIG1        0.1427
      5 C          -4.4669    0.0406   -0.2139 C.ar    1  LIG1        0.1125
      6 N          -4.8526   -1.0114    0.5129 N.ar    1  LIG1       -0.2482
      7 H          -1.6595   -1.2087   -1.6254 H       1  LIG1        0.0655
      8 H          -2.3607   -3.1422   -0.1890 H       1  LIG1        0.0636
      9 C          -4.6269   -3.2542    1.3830 C.3     1  LIG1       -0.0223
     10 H          -3.9927   -4.1389    1.2974 H       1  LIG1        0.0292
     11 H          -5.6454   -3.5270    1.0947 H       1  LIG1        0.0292
     12 H          -4.6597   -2.9522    2.4334 H       1  LIG1        0.0292
     13 O          -2.9183    1.0052   -1.8331 O.3     1  LIG1       -0.5046
     14 H          -3.6266    1.6601   -1.8949 H       1  LIG1        0.2922
     15 C          -4.8182    2.5422   -0.1270 C.ar    1  LIG1       -0.0519
     16 C          -5.6761    3.6316   -0.0658 C.ar    1  LIG1       -0.0531
     17 C          -5.3371    1.2453   -0.1578 C.ar    1  LIG1        0.0042
     18 C          -7.0619    3.4717   -0.0367 C.ar    1  LIG1       -0.0135
     19 H          -5.2636    4.6354   -0.0461 H       1  LIG1        0.0624
     20 C          -6.7220    1.0877   -0.0957 C.ar    1  LIG1       -0.0490
     21 C          -7.5962    2.1680   -0.0377 C.ar    1  LIG1       -0.0421
     22 H          -7.1163    0.0775   -0.0696 H       1  LIG1        0.0627
     23 H          -3.7453    2.7064   -0.1058 H       1  LIG1        0.0624
     24 C          -9.0781    1.9009    0.0506 C.3     1  LIG1       -0.0391
     25 H          -9.2596    0.9031    0.4551 H       1  LIG1        0.0278
     26 H          -9.5589    1.9450   -0.9317 H       1  LIG1        0.0278
     27 H          -9.5840    2.6273    0.6896 H       1  LIG1        0.0278
     28 C          -8.9341    4.9285   -0.8984 C.ar    1  LIG1        0.0360
     29 C          -7.9117    4.6881    0.0225 C.ar    1  LIG1        0.0005
     30 C          -7.7042    5.6760    0.9843 C.ar    1  LIG1       -0.0506
     31 C          -8.4880    6.8178    0.9870 C.ar    1  LIG1       -0.0351
     32 C          -9.4772    6.9656    0.0128 C.ar    1  LIG1        0.0722
     33 N          -9.6930    6.0168   -0.9086 N.ar    1  LIG1       -0.2543
     34 H          -6.9391    5.5381    1.7422 H       1  LIG1        0.0625
     35 H          -9.1357    4.2022   -1.6824 H       1  LIG1        0.0836
     36 H          -8.3421    7.5808    1.7389 H       1  LIG1        0.0639
     37 C         -10.0045    9.4508    0.3203 C.ar    1  LIG1        0.0340
     38 C         -10.9627   10.4714    0.2461 C.ar    1  LIG1       -0.0440
     39 C         -10.3914    8.1408   -0.0352 C.ar    1  LIG1        0.0174
     40 C         -12.2576   10.2289   -0.1652 C.ar    1  LIG1       -0.0399
     41 H         -10.6632   11.4792    0.5117 H       1  LIG1        0.0630
     42 C         -11.6945    7.9133   -0.4647 C.ar    1  LIG1       -0.0307
     43 C         -12.6421    8.9353   -0.5362 C.ar    1  LIG1        0.0252
     44 H         -11.9636    6.9044   -0.7567 H       1  LIG1        0.0643
     45 H         -12.9775   11.0408   -0.2049 H       1  LIG1        0.0636
     46 C          -8.6747    9.8213    0.7006 C.1     1  LIG1       -0.0690
     47 C          -7.5772   10.2039    1.0195 C.1     1  LIG1       -0.1139
     48 H          -6.6001   10.5298    1.2916 H       1  LIG1        0.1232
     49 N         -13.9464    8.6625   -0.9172 N.pl3   1  LIG1       -0.3579
     50 H         -14.4770    9.4442   -1.2702 H       1  LIG1        0.1423
     51 H         -14.0792    7.8207   -1.4567 H       1  LIG1        0.1423
@<TRIPOS>BOND
     1    14    13    1
     2    13     4    1
     3    35    28    1
     4     7     3    1
     5    51    49    1
     6    50    49    1
     7     4     3   ar
     8     4     5   ar
     9     3     2   ar
    10    26    24    1
    11    49    43    1
    12    33    28   ar
    13    33    32   ar
    14    28    29   ar
    15    44    42    1
    16    43    42   ar
    17    43    40   ar
    18    42    39   ar
    19     2     8    1
    20     2     1   ar
    21     5    17    1
    22     5     6   ar
    23    45    40    1
    24    40    38   ar
    25    17    15   ar
    26    17    20   ar
    27    15    23    1
    28    15    16   ar
    29    20    22    1
    30    20    21   ar
    31    16    19    1
    32    16    18   ar
    33    21    18   ar
    34    21    24    1
    35    18    29    1
    36    39    32    1
    37    39    37   ar
    38    32    31   ar
    39    29    30   ar
    40    24    25    1
    41    24    27    1
    42    38    37   ar
    43    38    41    1
    44    37    46    1
    45     6     1   ar
    46     1     9    1
    47    46    47    3
    48    30    31   ar
    49    30    34    1
    50    31    36    1
    51    47    48    1
    52    11     9    1
    53    10     9    1
    54     9    12    1
