@<TRIPOS>MOLECULE
mol_data/opt/cam/geoms/mol2/6if6if6if-6if-.out
 54 57 0 0 0
SMALL
GASTEIGER

@<TRIPOS>ATOM
      1 C          -4.4493   -2.3115   -0.0834 C.ar    1  LIG1        0.0392
      2 C          -3.0548   -2.2807   -0.1351 C.ar    1  LIG1       -0.0372
      3 C          -2.4012   -1.0620   -0.1655 C.ar    1  LIG1       -0.0164
      4 C          -3.1542    0.1055   -0.1564 C.ar    1  LIG1        0.1428
      5 C          -4.5521   -0.0033   -0.1203 C.ar    1  LIG1        0.1143
      6 N          -5.1653   -1.1876   -0.0753 N.ar    1  LIG1       -0.2482
      7 H          -1.3196   -0.9899   -0.1927 H       1  LIG1        0.0655
      8 H          -2.4897   -3.2063   -0.1440 H       1  LIG1        0.0636
      9 C          -5.2173   -3.6037   -0.0304 C.3     1  LIG1       -0.0223
     10 H          -4.5549   -4.4682   -0.1065 H       1  LIG1        0.0292
     11 H          -5.9450   -3.6491   -0.8445 H       1  LIG1        0.0292
     12 H          -5.7760   -3.6799    0.9067 H       1  LIG1        0.0292
     13 O          -2.4918    1.2904   -0.1763 O.3     1  LIG1       -0.5046
     14 H          -3.1260    2.0132   -0.0785 H       1  LIG1        0.2922
     15 C          -6.4022    1.4564    0.8292 C.ar    1  LIG1        0.0484
     16 C          -5.4090    1.2157   -0.1433 C.ar    1  LIG1        0.0284
     17 C          -5.2563    2.1451   -1.1661 C.ar    1  LIG1       -0.0070
     18 C          -6.0610    3.2779   -1.2026 C.ar    1  LIG1        0.1434
     19 C          -6.9905    3.4638   -0.1774 C.ar    1  LIG1        0.1144
     20 N          -7.1563    2.5512    0.7862 N.ar    1  LIG1       -0.2475
     21 H          -4.5455    1.9850   -1.9709 H       1  LIG1        0.0662
     22 C          -6.6638    0.5076    1.9656 C.3     1  LIG1       -0.0217
     23 H          -5.7477    0.2903    2.5224 H       1  LIG1        0.0293
     24 H          -7.0405   -0.4475    1.5949 H       1  LIG1        0.0293
     25 H          -7.3931    0.9571    2.6389 H       1  LIG1        0.0293
     26 O          -5.9117    4.1306   -2.2487 O.3     1  LIG1       -0.5046
     27 H          -6.6198    4.7889   -2.2234 H       1  LIG1        0.2922
     28 C          -7.4306    5.9720   -0.0892 C.ar    1  LIG1        0.0484
     29 C          -7.8928    4.6473   -0.1471 C.ar    1  LIG1        0.0284
     30 C          -9.2690    4.4379   -0.1276 C.ar    1  LIG1       -0.0070
     31 C         -10.1391    5.5133   -0.0982 C.ar    1  LIG1        0.1434
     32 C          -9.6018    6.8130   -0.0945 C.ar    1  LIG1        0.1144
     33 N          -8.2833    6.9995   -0.0771 N.ar    1  LIG1       -0.2475
     34 H          -9.6483    3.4194   -0.1210 H       1  LIG1        0.0662
     35 C          -5.9688    6.3223    0.0318 C.3     1  LIG1       -0.0217
     36 H          -5.8820    7.3915    0.2208 H       1  LIG1        0.0293
     37 H          -5.4015    6.0823   -0.8715 H       1  LIG1        0.0293
     38 H          -5.5041    5.7763    0.8576 H       1  LIG1        0.0293
     39 O         -11.4905    5.3558   -0.0751 O.3     1  LIG1       -0.5046
     40 H         -11.6997    4.4194    0.0262 H       1  LIG1        0.2922
     41 C         -10.2290    9.1207    0.7399 C.ar    1  LIG1        0.0477
     42 C         -10.4657    8.0233   -0.1076 C.ar    1  LIG1        0.0284
     43 C         -11.5304    8.0964   -1.0040 C.ar    1  LIG1       -0.0077
     44 C         -12.3103    9.2400   -1.0527 C.ar    1  LIG1        0.1355
     45 C         -11.9959   10.2813   -0.1863 C.ar    1  LIG1        0.0693
     46 N         -10.9952   10.2147    0.6815 N.ar    1  LIG1       -0.2559
     47 H         -11.7476    7.2561   -1.6564 H       1  LIG1        0.0662
     48 H         -12.5912   11.1908   -0.2049 H       1  LIG1        0.0867
     49 C          -9.1361    9.1499    1.7740 C.3     1  LIG1       -0.0217
     50 H          -9.3408    9.9662    2.4666 H       1  LIG1        0.0293
     51 H          -8.1605    9.3106    1.3105 H       1  LIG1        0.0293
     52 H          -9.0719    8.2103    2.3281 H       1  LIG1        0.0293
     53 O         -13.3633    9.4024   -1.8993 O.3     1  LIG1       -0.5052
     54 H         -13.4798    8.6009   -2.4224 H       1  LIG1        0.2922
@<TRIPOS>BOND
     1    54    53    1
     2    26    27    1
     3    26    18    1
     4    21    17    1
     5    53    44    1
     6    47    43    1
     7    18    17   ar
     8    18    19   ar
     9    17    16   ar
    10    44    43   ar
    11    44    45   ar
    12    43    42   ar
    13    37    35    1
    14    11     9    1
    15    48    45    1
    16     7     3    1
    17    45    46   ar
    18    19    29    1
    19    19    20   ar
    20    13     4    1
    21    13    14    1
    22     3     4   ar
    23     3     2   ar
    24     4     5   ar
    25    29    30   ar
    26    29    28   ar
    27     8     2    1
    28    16     5    1
    29    16    15   ar
    30     2     1   ar
    31    30    34    1
    32    30    31   ar
    33     5     6   ar
    34    42    32    1
    35    42    41   ar
    36    10     9    1
    37    31    32   ar
    38    31    39    1
    39    32    33   ar
    40    28    33   ar
    41    28    35    1
    42     1     6   ar
    43     1     9    1
    44    39    40    1
    45     9    12    1
    46    35    36    1
    47    35    38    1
    48    46    41   ar
    49    41    49    1
    50    20    15   ar
    51    15    22    1
    52    51    49    1
    53    24    22    1
    54    49    52    1
    55    49    50    1
    56    22    23    1
    57    22    25    1
