@<TRIPOS>MOLECULE
mol_data/opt/cam/geoms/mol2/6if6if6if.out
 41 43 0 0 0
SMALL
GASTEIGER

@<TRIPOS>ATOM
      1 C          -4.1052   -1.9639   -0.8881 C.ar    1  LIG1        0.0392
      2 C          -3.0574   -2.1517    0.0144 C.ar    1  LIG1       -0.0372
      3 C          -2.8204   -1.2000    0.9899 C.ar    1  LIG1       -0.0164
      4 C          -3.6274   -0.0704    1.0378 C.ar    1  LIG1        0.1428
      5 C          -4.6500    0.0594    0.0864 C.ar    1  LIG1        0.1143
      6 N          -4.8750   -0.8772   -0.8368 N.ar    1  LIG1       -0.2482
      7 H          -2.0271   -1.3107    1.7209 H       1  LIG1        0.0655
      8 H          -2.4398   -3.0414   -0.0452 H       1  LIG1        0.0636
      9 C          -4.4242   -2.9686   -1.9610 C.3     1  LIG1       -0.0223
     10 H          -3.7273   -3.8089   -1.9447 H       1  LIG1        0.0292
     11 H          -4.3820   -2.5007   -2.9478 H       1  LIG1        0.0292
     12 H          -5.4379   -3.3580   -1.8321 H       1  LIG1        0.0292
     13 O          -3.3854    0.8449    2.0113 O.3     1  LIG1       -0.5046
     14 H          -4.0688    1.5280    1.9833 H       1  LIG1        0.2922
     15 C          -6.9313    1.1740    0.1137 C.ar    1  LIG1        0.0484
     16 C          -5.5245    1.2660    0.0693 C.ar    1  LIG1        0.0284
     17 C          -4.9533    2.5316    0.0048 C.ar    1  LIG1       -0.0070
     18 C          -5.7635    3.6613   -0.0334 C.ar    1  LIG1        0.1434
     19 C          -7.1494    3.4817   -0.0064 C.ar    1  LIG1        0.1144
     20 N          -7.6922    2.2636    0.0776 N.ar    1  LIG1       -0.2475
     21 H          -3.8767    2.6628   -0.0437 H       1  LIG1        0.0662
     22 C          -7.6491   -0.1437    0.2068 C.3     1  LIG1       -0.0217
     23 H          -7.2688   -0.7493    1.0345 H       1  LIG1        0.0293
     24 H          -7.5041   -0.7280   -0.7039 H       1  LIG1        0.0293
     25 H          -8.7122    0.0430    0.3563 H       1  LIG1        0.0293
     26 O          -5.1574    4.8735   -0.0896 O.3     1  LIG1       -0.5046
     27 H          -5.8295    5.5673   -0.0448 H       1  LIG1        0.2922
     28 C          -9.0652    4.8790    0.8962 C.ar    1  LIG1        0.0477
     29 C          -8.0722    4.6491   -0.0789 C.ar    1  LIG1        0.0284
     30 C          -7.9613    5.5428   -1.1402 C.ar    1  LIG1       -0.0077
     31 C          -8.8292    6.6266   -1.2162 C.ar    1  LIG1        0.1355
     32 C          -9.7772    6.7699   -0.2124 C.ar    1  LIG1        0.0693
     33 N          -9.8871    5.9236    0.8079 N.ar    1  LIG1       -0.2559
     34 H          -7.2307    5.3933   -1.9292 H       1  LIG1        0.0662
     35 H         -10.4778    7.6052   -0.2335 H       1  LIG1        0.0867
     36 C          -9.2521    3.9756    2.0832 C.3     1  LIG1       -0.0217
     37 H          -8.3140    3.8275    2.6263 H       1  LIG1        0.0293
     38 H          -9.5948    2.9877    1.7692 H       1  LIG1        0.0293
     39 H          -9.9867    4.4225    2.7524 H       1  LIG1        0.0293
     40 O          -8.7072    7.4831   -2.2624 O.3     1  LIG1       -0.5052
     41 H          -9.3843    8.1677   -2.1988 H       1  LIG1        0.2922
@<TRIPOS>BOND
     1    11     9    1
     2    40    41    1
     3    40    31    1
     4     9    10    1
     5     9    12    1
     6     9     1    1
     7    34    30    1
     8    31    30   ar
     9    31    32   ar
    10    30    29   ar
    11     1     6   ar
    12     1     2   ar
    13     6     5   ar
    14    24    22    1
    15    35    32    1
    16    32    33   ar
    17    26    27    1
    18    26    18    1
    19    29    19    1
    20    29    28   ar
    21     8     2    1
    22    21    17    1
    23    18    19   ar
    24    18    17   ar
    25    19    20   ar
    26    17    16   ar
    27     2     3   ar
    28    16     5    1
    29    16    15   ar
    30    20    15   ar
    31     5     4   ar
    32    15    22    1
    33    22    25    1
    34    22    23    1
    35    33    28   ar
    36    28    36    1
    37     3     4   ar
    38     3     7    1
    39     4    13    1
    40    38    36    1
    41    14    13    1
    42    36    37    1
    43    36    39    1
