@<TRIPOS>MOLECULE
mol_data/opt/cam/geoms/mol2/6if6if-6if-6if.out
 54 57 0 0 0
SMALL
GASTEIGER

@<TRIPOS>ATOM
      1 C          -4.1328   -2.0549    0.6879 C.ar    1  LIG1        0.0392
      2 C          -3.1300   -2.3267   -0.2442 C.ar    1  LIG1       -0.0372
      3 C          -2.8416   -1.3954   -1.2256 C.ar    1  LIG1       -0.0164
      4 C          -3.5498   -0.2009   -1.2443 C.ar    1  LIG1        0.1428
      5 C          -4.5100    0.0227   -0.2492 C.ar    1  LIG1        0.1143
      6 N          -4.8024   -0.9020    0.6686 N.ar    1  LIG1       -0.2482
      7 H          -2.0928   -1.5767   -1.9887 H       1  LIG1        0.0655
      8 H          -2.5930   -3.2683   -0.2071 H       1  LIG1        0.0636
      9 C          -4.5037   -3.0346    1.7672 C.3     1  LIG1       -0.0223
     10 H          -4.0231   -4.0029    1.6141 H       1  LIG1        0.0292
     11 H          -5.5861   -3.1796    1.7936 H       1  LIG1        0.0292
     12 H          -4.2054   -2.6558    2.7491 H       1  LIG1        0.0292
     13 O          -3.2873    0.6841   -2.2420 O.3     1  LIG1       -0.5046
     14 H          -3.9406    1.3962   -2.2131 H       1  LIG1        0.2922
     15 C          -4.7307    2.5548   -0.0638 C.ar    1  LIG1        0.0484
     16 C          -5.3055    1.2816   -0.2103 C.ar    1  LIG1        0.0284
     17 C          -6.6935    1.1991   -0.2698 C.ar    1  LIG1       -0.0070
     18 C          -7.4651    2.3471   -0.2292 C.ar    1  LIG1        0.1434
     19 C          -6.8152    3.5901   -0.1306 C.ar    1  LIG1        0.1144
     20 N          -5.4879    3.6542   -0.0402 N.ar    1  LIG1       -0.2475
     21 H          -7.1621    0.2205   -0.3335 H       1  LIG1        0.0662
     22 C          -3.2513    2.7623    0.1397 C.3     1  LIG1       -0.0217
     23 H          -3.0782    3.8049    0.4036 H       1  LIG1        0.0293
     24 H          -2.6679    2.5290   -0.7551 H       1  LIG1        0.0293
     25 H          -2.8742    2.1230    0.9426 H       1  LIG1        0.0293
     26 O          -8.8248    2.3125   -0.2826 O.3     1  LIG1       -0.5046
     27 H          -9.1211    1.3953   -0.2381 H       1  LIG1        0.2922
     28 C          -7.2658    5.9172    0.7737 C.ar    1  LIG1        0.0484
     29 C          -7.5665    4.8726   -0.1196 C.ar    1  LIG1        0.0284
     30 C          -8.5852    5.0845   -1.0432 C.ar    1  LIG1       -0.0070
     31 C          -9.2677    6.2896   -1.0717 C.ar    1  LIG1        0.1434
     32 C          -8.9299    7.2698   -0.1331 C.ar    1  LIG1        0.1144
     33 N          -7.9437    7.0649    0.7417 N.ar    1  LIG1       -0.2475
     34 H          -8.8420    4.3034   -1.7523 H       1  LIG1        0.0662
     35 C          -6.1981    5.8267    1.8302 C.3     1  LIG1       -0.0217
     36 H          -6.3463    6.6409    2.5392 H       1  LIG1        0.0293
     37 H          -5.2023    5.9092    1.3900 H       1  LIG1        0.0293
     38 H          -6.2297    4.8718    2.3603 H       1  LIG1        0.0293
     39 O         -10.2306    6.5627   -1.9949 O.3     1  LIG1       -0.5046
     40 H         -10.3516    5.7946   -2.5653 H       1  LIG1        0.2922
     41 C         -10.9768    8.7756    0.0844 C.ar    1  LIG1        0.0477
     42 C          -9.5907    8.6030   -0.0904 C.ar    1  LIG1        0.0284
     43 C          -8.7821    9.7295   -0.1719 C.ar    1  LIG1       -0.0077
     44 C          -9.3620   10.9883   -0.1253 C.ar    1  LIG1        0.1355
     45 C         -10.7417   11.0644    0.0182 C.ar    1  LIG1        0.0693
     46 N         -11.5194    9.9935    0.1329 N.ar    1  LIG1       -0.2559
     47 H          -7.7071    9.6304   -0.2676 H       1  LIG1        0.0662
     48 H         -11.2365   12.0361    0.0562 H       1  LIG1        0.0867
     49 C         -11.9283    7.6250    0.2669 C.3     1  LIG1       -0.0217
     50 H         -11.4928    6.8346    0.8838 H       1  LIG1        0.0293
     51 H         -12.1912    7.1809   -0.6962 H       1  LIG1        0.0293
     52 H         -12.8372    7.9923    0.7435 H       1  LIG1        0.0293
     53 O          -8.5605   12.0841   -0.2200 O.3     1  LIG1       -0.5052
     54 H          -9.1038   12.8793   -0.1633 H       1  LIG1        0.2922
@<TRIPOS>BOND
     1    40    39    1
     2    13    14    1
     3    13     4    1
     4    39    31    1
     5     7     3    1
     6    34    30    1
     7     4     3   ar
     8     4     5   ar
     9     3     2   ar
    10    31    30   ar
    11    31    32   ar
    12    30    29   ar
    13    24    22    1
    14    51    49    1
    15    21    17    1
    16    26    27    1
    17    26    18    1
    18    17    18   ar
    19    17    16   ar
    20    47    43    1
    21     5    16    1
    22     5     6   ar
    23     2     8    1
    24     2     1   ar
    25    18    19   ar
    26    53    54    1
    27    53    44    1
    28    16    15   ar
    29    43    44   ar
    30    43    42   ar
    31    32    42    1
    32    32    33   ar
    33    19    29    1
    34    19    20   ar
    35    44    45   ar
    36    29    28   ar
    37    42    41   ar
    38    15    20   ar
    39    15    22    1
    40    45    48    1
    41    45    46   ar
    42    41    46   ar
    43    41    49    1
    44    22    23    1
    45    22    25    1
    46    49    52    1
    47    49    50    1
    48     6     1   ar
    49     1     9    1
    50    33    28   ar
    51    28    35    1
    52    37    35    1
    53    10     9    1
    54     9    11    1
    55     9    12    1
    56    35    38    1
    57    35    36    1
