@<TRIPOS>MOLECULE
mol_data/opt/cam/geoms/mol2/6if6if-6if-6if-.out
 54 57 0 0 0
SMALL
GASTEIGER

@<TRIPOS>ATOM
      1 C          -3.8581   -1.9075    0.8416 C.ar    1  LIG1        0.0392
      2 C          -3.3043   -2.4328   -0.3271 C.ar    1  LIG1       -0.0372
      3 C          -3.4573   -1.7498   -1.5204 C.ar    1  LIG1       -0.0164
      4 C          -4.1461   -0.5439   -1.5183 C.ar    1  LIG1        0.1428
      5 C          -4.6357   -0.0559   -0.3000 C.ar    1  LIG1        0.1143
      6 N          -4.5116   -0.7452    0.8368 N.ar    1  LIG1       -0.2482
      7 H          -3.0704   -2.1348   -2.4574 H       1  LIG1        0.0655
      8 H          -2.7716   -3.3772   -0.3003 H       1  LIG1        0.0636
      9 C          -3.7403   -2.6117    2.1653 C.3     1  LIG1       -0.0223
     10 H          -3.3227   -3.6141    2.0521 H       1  LIG1        0.0292
     11 H          -4.7197   -2.6911    2.6427 H       1  LIG1        0.0292
     12 H          -3.0956   -2.0467    2.8448 H       1  LIG1        0.0292
     13 O          -4.3267    0.0932   -2.7054 O.3     1  LIG1       -0.5046
     14 H          -4.9309    0.8369   -2.5764 H       1  LIG1        0.2922
     15 C          -4.8354    2.4673   -0.5989 C.ar    1  LIG1        0.0484
     16 C          -5.3853    1.2295   -0.2267 C.ar    1  LIG1        0.0284
     17 C          -6.6804    1.2215    0.2828 C.ar    1  LIG1       -0.0070
     18 C          -7.4046    2.3974    0.3714 C.ar    1  LIG1        0.1434
     19 C          -6.8044    3.5906   -0.0674 C.ar    1  LIG1        0.1144
     20 N          -5.5519    3.5911   -0.5210 N.ar    1  LIG1       -0.2475
     21 H          -7.1082    0.2822    0.6233 H       1  LIG1        0.0662
     22 C          -3.4025    2.6218   -1.0416 C.3     1  LIG1       -0.0217
     23 H          -3.1727    3.6840   -1.1154 H       1  LIG1        0.0293
     24 H          -3.2104    2.1559   -2.0118 H       1  LIG1        0.0293
     25 H          -2.7204    2.1581   -0.3236 H       1  LIG1        0.0293
     26 O          -8.6727    2.4356    0.8651 O.3     1  LIG1       -0.5046
     27 H          -8.8998    1.5694    1.2245 H       1  LIG1        0.2922
     28 C          -6.9255    6.0780    0.4134 C.ar    1  LIG1        0.0484
     29 C          -7.5243    4.8905   -0.0448 C.ar    1  LIG1        0.0284
     30 C          -8.8316    4.9674   -0.5136 C.ar    1  LIG1       -0.0070
     31 C          -9.4996    6.1803   -0.5420 C.ar    1  LIG1        0.1434
     32 C          -8.8329    7.3230   -0.0809 C.ar    1  LIG1        0.1144
     33 N          -7.5859    7.2350    0.3845 N.ar    1  LIG1       -0.2475
     34 H          -9.3365    4.0680   -0.8531 H       1  LIG1        0.0662
     35 C          -5.5332    6.1396    0.9808 C.3     1  LIG1       -0.0217
     36 H          -5.4150    7.0879    1.5050 H       1  LIG1        0.0293
     37 H          -4.7843    6.0729    0.1890 H       1  LIG1        0.0293
     38 H          -5.3375    5.3151    1.6704 H       1  LIG1        0.0293
     39 O         -10.7794    6.2916   -1.0004 O.3     1  LIG1       -0.5046
     40 H         -11.1243    5.4099   -1.1852 H       1  LIG1        0.2922
     41 C          -9.3978    9.5353    1.0155 C.ar    1  LIG1        0.0477
     42 C          -9.4674    8.6680   -0.0900 C.ar    1  LIG1        0.0284
     43 C         -10.1338    9.1061   -1.2324 C.ar    1  LIG1       -0.0077
     44 C         -10.6901   10.3745   -1.2602 C.ar    1  LIG1        0.1355
     45 C         -10.5640   11.1675   -0.1255 C.ar    1  LIG1        0.0693
     46 N          -9.9450   10.7543    0.9729 N.ar    1  LIG1       -0.2559
     47 H         -10.2178    8.4502   -2.0936 H       1  LIG1        0.0662
     48 H         -10.9912   12.1673   -0.1209 H       1  LIG1        0.0867
     49 C          -8.7359    9.1661    2.3155 C.3     1  LIG1       -0.0217
     50 H          -9.0522    9.8786    3.0774 H       1  LIG1        0.0293
     51 H          -7.6482    9.1966    2.2246 H       1  LIG1        0.0293
     52 H          -8.9969    8.1535    2.6327 H       1  LIG1        0.0293
     53 O         -11.3515   10.8862   -2.3348 O.3     1  LIG1       -0.5052
     54 H         -11.3732   10.2268   -3.0379 H       1  LIG1        0.2922
@<TRIPOS>BOND
     1    54    53    1
     2    13    14    1
     3    13     4    1
     4     7     3    1
     5    53    44    1
     6    47    43    1
     7    24    22    1
     8     3     4   ar
     9     3     2   ar
    10     4     5   ar
    11    44    43   ar
    12    44    45   ar
    13    43    42   ar
    14    40    39    1
    15    23    22    1
    16    22    15    1
    17    22    25    1
    18    39    31    1
    19    34    30    1
    20    15    20   ar
    21    15    16   ar
    22    31    30   ar
    23    31    32   ar
    24    20    19   ar
    25    30    29   ar
    26     2     8    1
    27     2     1   ar
    28     5    16    1
    29     5     6   ar
    30    16    17   ar
    31    45    48    1
    32    45    46   ar
    33    42    32    1
    34    42    41   ar
    35    32    33   ar
    36    19    29    1
    37    19    18   ar
    38    29    28   ar
    39    37    35    1
    40    17    18   ar
    41    17    21    1
    42    18    26    1
    43    33    28   ar
    44    28    35    1
    45     6     1   ar
    46     1     9    1
    47    26    27    1
    48    46    41   ar
    49    35    36    1
    50    35    38    1
    51    41    49    1
    52    10     9    1
    53     9    11    1
    54     9    12    1
    55    51    49    1
    56    49    52    1
    57    49    50    1
