@<TRIPOS>MOLECULE
mol_data/opt/cam/geoms/mol2/6if6if-4if6if.out
 55 58 0 0 0
SMALL
GASTEIGER

@<TRIPOS>ATOM
      1 C          -4.0521   -2.0405    0.6201 C.ar    1  LIG1        0.0392
      2 C          -3.0828   -2.2957   -0.3511 C.ar    1  LIG1       -0.0372
      3 C          -2.8474   -1.3584   -1.3413 C.ar    1  LIG1       -0.0164
      4 C          -3.5741   -0.1753   -1.3295 C.ar    1  LIG1        0.1428
      5 C          -4.4988    0.0319   -0.2978 C.ar    1  LIG1        0.1143
      6 N          -4.7401   -0.8981    0.6293 N.ar    1  LIG1       -0.2482
      7 H          -2.1261   -1.5269   -2.1332 H       1  LIG1        0.0655
      8 H          -2.5303   -3.2290   -0.3370 H       1  LIG1        0.0636
      9 C          -4.3652   -3.0270    1.7114 C.3     1  LIG1       -0.0223
     10 H          -3.8689   -3.9847    1.5427 H       1  LIG1        0.0292
     11 H          -5.4427   -3.1959    1.7740 H       1  LIG1        0.0292
     12 H          -4.0429   -2.6406    2.6828 H       1  LIG1        0.0292
     13 O          -3.3642    0.7167   -2.3335 O.3     1  LIG1       -0.5046
     14 H          -4.0263    1.4190   -2.2748 H       1  LIG1        0.2922
     15 C          -4.7507    2.5588   -0.0932 C.ar    1  LIG1        0.0484
     16 C          -5.3114    1.2787   -0.2283 C.ar    1  LIG1        0.0284
     17 C          -6.6995    1.1770   -0.2464 C.ar    1  LIG1       -0.0070
     18 C          -7.4855    2.3139   -0.1774 C.ar    1  LIG1        0.1434
     19 C          -6.8508    3.5661   -0.0929 C.ar    1  LIG1        0.1129
     20 N          -5.5222    3.6475   -0.0397 N.ar    1  LIG1       -0.2476
     21 H          -7.1563    0.1922   -0.3002 H       1  LIG1        0.0662
     22 C          -3.2683    2.7858    0.0640 C.3     1  LIG1       -0.0217
     23 H          -3.1003    3.8329    0.3128 H       1  LIG1        0.0293
     24 H          -2.7095    2.5508   -0.8460 H       1  LIG1        0.0293
     25 H          -2.8591    2.1590    0.8612 H       1  LIG1        0.0293
     26 O          -8.8451    2.2590   -0.1881 O.3     1  LIG1       -0.5046
     27 H          -9.1249    1.3364   -0.1495 H       1  LIG1        0.2922
     28 C          -7.3282    5.8530    0.8733 C.ar    1  LIG1       -0.0404
     29 C          -8.0780    7.0252    0.8077 C.ar    1  LIG1       -0.0469
     30 C          -7.6184    4.8413   -0.0564 C.ar    1  LIG1        0.0103
     31 C          -9.0909    7.2443   -0.1243 C.ar    1  LIG1        0.0257
     32 H          -7.8769    7.8116    1.5294 H       1  LIG1        0.0628
     33 C          -8.6291    5.0423   -0.9962 C.ar    1  LIG1       -0.0100
     34 C          -9.3534    6.2247   -1.0429 C.ar    1  LIG1        0.1252
     35 H          -8.8541    4.2557   -1.7101 H       1  LIG1        0.0661
     36 C          -6.2691    5.7159    1.9368 C.3     1  LIG1       -0.0391
     37 H          -6.3905    6.4946    2.6932 H       1  LIG1        0.0278
     38 H          -5.2664    5.7951    1.5124 H       1  LIG1        0.0278
     39 H          -6.3208    4.7457    2.4372 H       1  LIG1        0.0278
     40 O         -10.3205    6.4371   -1.9821 O.3     1  LIG1       -0.5061
     41 H         -10.3944    5.6545   -2.5404 H       1  LIG1        0.2922
     42 C         -11.2058    8.6297    0.1242 C.ar    1  LIG1        0.0462
     43 C          -9.8245    8.5379   -0.1423 C.ar    1  LIG1        0.0101
     44 C          -9.1175    9.7088   -0.3828 C.ar    1  LIG1       -0.0091
     45 C          -9.7865   10.9261   -0.3749 C.ar    1  LIG1        0.1355
     46 C         -11.1503   10.9179   -0.1180 C.ar    1  LIG1        0.0693
     47 N         -11.8345    9.8047    0.1298 N.ar    1  LIG1       -0.2559
     48 H          -8.0530    9.6845   -0.5891 H       1  LIG1        0.0661
     49 H         -11.7126   11.8526   -0.1047 H       1  LIG1        0.0867
     50 C         -12.0432    7.4206    0.4357 C.3     1  LIG1       -0.0218
     51 H         -11.5624    6.7817    1.1818 H       1  LIG1        0.0293
     52 H         -12.1952    6.8156   -0.4619 H       1  LIG1        0.0293
     53 H         -13.0122    7.7477    0.8122 H       1  LIG1        0.0293
     54 O          -9.0778   12.0621   -0.6183 O.3     1  LIG1       -0.5052
     55 H          -9.6743   12.8198   -0.5884 H       1  LIG1        0.2922
@<TRIPOS>BOND
     1    41    40    1
     2    13    14    1
     3    13     4    1
     4     7     3    1
     5    40    34    1
     6    35    33    1
     7     3     4   ar
     8     3     2   ar
     9     4     5   ar
    10    34    33   ar
    11    34    31   ar
    12    33    30   ar
    13    24    22    1
    14    54    55    1
    15    54    45    1
    16    48    44    1
    17    52    50    1
    18    44    45   ar
    19    44    43   ar
    20    45    46   ar
    21     2     8    1
    22     2     1   ar
    23    21    17    1
    24     5    16    1
    25     5     6   ar
    26    17    16   ar
    27    17    18   ar
    28    16    15   ar
    29    26    18    1
    30    26    27    1
    31    18    19   ar
    32    43    31    1
    33    43    42   ar
    34    31    29   ar
    35    46    49    1
    36    46    47   ar
    37    15    20   ar
    38    15    22    1
    39    19    30    1
    40    19    20   ar
    41    30    28   ar
    42    22    23    1
    43    22    25    1
    44    42    47   ar
    45    42    50    1
    46    50    53    1
    47    50    51    1
    48     1     6   ar
    49     1     9    1
    50    29    28   ar
    51    29    32    1
    52    28    36    1
    53    38    36    1
    54    10     9    1
    55     9    11    1
    56     9    12    1
    57    36    39    1
    58    36    37    1
