@<TRIPOS>MOLECULE
mol_data/opt/cam/geoms/mol2/6if6if6if6if.out
 54 57 0 0 0
SMALL
GASTEIGER

@<TRIPOS>ATOM
      1 C          -3.6441   -1.7458   -1.1302 C.ar    1  LIG1        0.0392
      2 C          -2.9160   -2.1811   -0.0219 C.ar    1  LIG1       -0.0372
      3 C          -3.0649   -1.5296    1.1893 C.ar    1  LIG1       -0.0164
      4 C          -3.9298   -0.4454    1.2679 C.ar    1  LIG1        0.1428
      5 C          -4.6149   -0.0536    0.1084 C.ar    1  LIG1        0.1143
      6 N          -4.4719   -0.7046   -1.0475 N.ar    1  LIG1       -0.2482
      7 H          -2.5303   -1.8415    2.0797 H       1  LIG1        0.0655
      8 H          -2.2449   -3.0286   -0.1098 H       1  LIG1        0.0636
      9 C          -3.5403   -2.4226   -2.4694 C.3     1  LIG1       -0.0223
     10 H          -2.7984   -3.2236   -2.4585 H       1  LIG1        0.0292
     11 H          -3.2630   -1.7007   -3.2415 H       1  LIG1        0.0292
     12 H          -4.5044   -2.8501   -2.7588 H       1  LIG1        0.0292
     13 O          -4.0697    0.1722    2.4692 O.3     1  LIG1       -0.5046
     14 H          -4.7597    0.8459    2.4027 H       1  LIG1        0.2922
     15 C          -6.8716    1.0362   -0.3009 C.ar    1  LIG1        0.0484
     16 C          -5.5299    1.1225    0.1264 C.ar    1  LIG1        0.0284
     17 C          -5.0638    2.3533    0.5732 C.ar    1  LIG1       -0.0070
     18 C          -5.9056    3.4604    0.5728 C.ar    1  LIG1        0.1434
     19 C          -7.2149    3.2946    0.1122 C.ar    1  LIG1        0.1144
     20 N          -7.6640    2.1034   -0.2949 N.ar    1  LIG1       -0.2475
     21 H          -4.0375    2.4816    0.9033 H       1  LIG1        0.0662
     22 C          -7.4820   -0.2516   -0.7795 C.3     1  LIG1       -0.0217
     23 H          -7.3417   -1.0557   -0.0511 H       1  LIG1        0.0293
     24 H          -7.0113   -0.5811   -1.7078 H       1  LIG1        0.0293
     25 H          -8.5482   -0.0978   -0.9439 H       1  LIG1        0.0293
     26 O          -5.4036    4.6362    1.0261 O.3     1  LIG1       -0.5046
     27 H          -6.1071    5.2995    1.0378 H       1  LIG1        0.2922
     28 C          -9.4255    4.4136    0.6660 C.ar    1  LIG1        0.0484
     29 C          -8.1569    4.4463    0.0504 C.ar    1  LIG1        0.0284
     30 C          -7.7903    5.5998   -0.6335 C.ar    1  LIG1       -0.0070
     31 C          -8.6711    6.6730   -0.7125 C.ar    1  LIG1        0.1434
     32 C          -9.9181    6.5515   -0.0924 C.ar    1  LIG1        0.1144
     33 N         -10.2559    5.4483    0.5816 N.ar    1  LIG1       -0.2475
     34 H          -6.8326    5.6760   -1.1393 H       1  LIG1        0.0662
     35 C          -9.9107    3.2254    1.4489 C.3     1  LIG1       -0.0217
     36 H          -9.1871    2.9261    2.2128 H       1  LIG1        0.0293
     37 H         -10.0543    2.3630    0.7951 H       1  LIG1        0.0293
     38 H         -10.8547    3.4810    1.9294 H       1  LIG1        0.0293
     39 O          -8.2637    7.7780   -1.3849 O.3     1  LIG1       -0.5046
     40 H          -8.9408    8.4642   -1.3095 H       1  LIG1        0.2922
     41 C         -11.4953    8.2220    0.9840 C.ar    1  LIG1        0.0477
     42 C         -10.9204    7.6508   -0.1704 C.ar    1  LIG1        0.0284
     43 C         -11.3117    8.1309   -1.4169 C.ar    1  LIG1       -0.0077
     44 C         -12.2568    9.1481   -1.4930 C.ar    1  LIG1        0.1355
     45 C         -12.7704    9.6462   -0.3034 C.ar    1  LIG1        0.0693
     46 N         -12.3987    9.1968    0.8920 N.ar    1  LIG1       -0.2559
     47 H         -10.9182    7.7048   -2.3347 H       1  LIG1        0.0662
     48 H         -13.5144   10.4434   -0.3172 H       1  LIG1        0.0867
     49 C         -11.1263    7.7771    2.3718 C.3     1  LIG1       -0.0217
     50 H         -10.0430    7.7924    2.5234 H       1  LIG1        0.0293
     51 H         -11.4563    6.7520    2.5516 H       1  LIG1        0.0293
     52 H         -11.5982    8.4450    3.0918 H       1  LIG1        0.0293
     53 O         -12.6280    9.5979   -2.7187 O.3     1  LIG1       -0.5052
     54 H         -13.3031   10.2804   -2.6209 H       1  LIG1        0.2922
@<TRIPOS>BOND
     1    11     9    1
     2    12     9    1
     3    53    54    1
     4    53    44    1
     5     9    10    1
     6     9     1    1
     7    47    43    1
     8    24    22    1
     9    44    43   ar
    10    44    45   ar
    11    43    42   ar
    12    39    40    1
    13    39    31    1
    14    34    30    1
    15     1     6   ar
    16     1     2   ar
    17     6     5   ar
    18    25    22    1
    19    22    15    1
    20    22    23    1
    21    31    30   ar
    22    31    32   ar
    23    30    29   ar
    24    48    45    1
    25    45    46   ar
    26    15    20   ar
    27    15    16   ar
    28    20    19   ar
    29    42    32    1
    30    42    41   ar
    31     8     2    1
    32    32    33   ar
    33     2     3   ar
    34    29    19    1
    35    29    28   ar
    36     5    16    1
    37     5     4   ar
    38    19    18   ar
    39    16    17   ar
    40    18    17   ar
    41    18    26    1
    42    17    21    1
    43    33    28   ar
    44    28    35    1
    45    37    35    1
    46    46    41   ar
    47    41    49    1
    48    26    27    1
    49     3     4   ar
    50     3     7    1
    51     4    13    1
    52    35    38    1
    53    35    36    1
    54    49    50    1
    55    49    51    1
    56    49    52    1
    57    14    13    1
