@<TRIPOS>MOLECULE
mol_data/opt/cam/geoms/mol2/6if6if6if6if-.out
 54 57 0 0 0
SMALL
GASTEIGER

@<TRIPOS>ATOM
      1 C          -4.0231   -2.0343   -0.8878 C.ar    1  LIG1        0.0392
      2 C          -2.9421   -2.1928   -0.0194 C.ar    1  LIG1       -0.0372
      3 C          -2.6887   -1.2254    0.9363 C.ar    1  LIG1       -0.0164
      4 C          -3.5133   -0.1091    0.9984 C.ar    1  LIG1        0.1428
      5 C          -4.5699   -0.0090    0.0814 C.ar    1  LIG1        0.1143
      6 N          -4.8098   -0.9605   -0.8227 N.ar    1  LIG1       -0.2482
      7 H          -1.8690   -1.3135    1.6406 H       1  LIG1        0.0655
      8 H          -2.3113   -3.0724   -0.0899 H       1  LIG1        0.0636
      9 C          -4.3617   -3.0584   -1.9361 C.3     1  LIG1       -0.0223
     10 H          -3.6346   -3.8727   -1.9520 H       1  LIG1        0.0292
     11 H          -4.3898   -2.5966   -2.9261 H       1  LIG1        0.0292
     12 H          -5.3518   -3.4842   -1.7507 H       1  LIG1        0.0292
     13 O          -3.2537    0.8223    1.9518 O.3     1  LIG1       -0.5046
     14 H          -3.9491    1.4935    1.9399 H       1  LIG1        0.2922
     15 C          -6.8687    1.0657    0.1722 C.ar    1  LIG1        0.0484
     16 C          -5.4659    1.1819    0.0794 C.ar    1  LIG1        0.0284
     17 C          -4.9202    2.4562   -0.0202 C.ar    1  LIG1       -0.0070
     18 C          -5.7513    3.5712   -0.0454 C.ar    1  LIG1        0.1434
     19 C          -7.1321    3.3678    0.0308 C.ar    1  LIG1        0.1144
     20 N          -7.6498    2.1411    0.1480 N.ar    1  LIG1       -0.2475
     21 H          -3.8484    2.6059   -0.1066 H       1  LIG1        0.0662
     22 C          -7.5586   -0.2633    0.3060 C.3     1  LIG1       -0.0217
     23 H          -7.1410   -0.8499    1.1294 H       1  LIG1        0.0293
     24 H          -7.4313   -0.8579   -0.6007 H       1  LIG1        0.0293
     25 H          -8.6198   -0.0942    0.4867 H       1  LIG1        0.0293
     26 O          -5.1679    4.7921   -0.1379 O.3     1  LIG1       -0.5046
     27 H          -5.8484    5.4766   -0.0798 H       1  LIG1        0.2922
     28 C          -9.0619    4.7327    0.9599 C.ar    1  LIG1        0.0484
     29 C          -8.0775    4.5169   -0.0265 C.ar    1  LIG1        0.0284
     30 C          -8.0143    5.4056   -1.0945 C.ar    1  LIG1       -0.0070
     31 C          -8.8983    6.4759   -1.1608 C.ar    1  LIG1        0.1434
     32 C          -9.8172    6.6422   -0.1222 C.ar    1  LIG1        0.1144
     33 N          -9.8944    5.7678    0.8861 N.ar    1  LIG1       -0.2475
     34 H          -7.3135    5.2570   -1.9104 H       1  LIG1        0.0662
     35 C          -9.2276    3.8241    2.1462 C.3     1  LIG1       -0.0217
     36 H          -8.2844    3.6950    2.6851 H       1  LIG1        0.0293
     37 H          -9.5496    2.8293    1.8324 H       1  LIG1        0.0293
     38 H          -9.9672    4.2561    2.8197 H       1  LIG1        0.0293
     39 O          -8.8319    7.2906   -2.2443 O.3     1  LIG1       -0.5046
     40 H          -9.5799    7.9038   -2.2244 H       1  LIG1        0.2922
     41 C         -10.4230    9.1118   -0.1219 C.ar    1  LIG1        0.0477
     42 C         -10.8025    7.7593   -0.1278 C.ar    1  LIG1        0.0284
     43 C         -12.1612    7.4462   -0.0991 C.ar    1  LIG1       -0.0077
     44 C         -13.0957    8.4673   -0.1025 C.ar    1  LIG1        0.1355
     45 C         -12.6285    9.7814   -0.1399 C.ar    1  LIG1        0.0693
     46 N         -11.3403   10.0880   -0.1390 N.ar    1  LIG1       -0.2559
     47 H         -12.4655    6.4036   -0.0641 H       1  LIG1        0.0662
     48 H         -13.3443   10.5993   -0.1573 H       1  LIG1        0.0867
     49 C          -8.9852    9.5562   -0.0267 C.3     1  LIG1       -0.0217
     50 H          -8.9667   10.6361    0.1153 H       1  LIG1        0.0293
     51 H          -8.4083    9.3136   -0.9234 H       1  LIG1        0.0293
     52 H          -8.4825    9.0785    0.8190 H       1  LIG1        0.0293
     53 O         -14.4383    8.2705   -0.0790 O.3     1  LIG1       -0.5052
     54 H         -14.6273    7.3265   -0.0207 H       1  LIG1        0.2922
@<TRIPOS>BOND
     1    11     9    1
     2    39    40    1
     3    39    31    1
     4    10     9    1
     5     9    12    1
     6     9     1    1
     7    34    30    1
     8    31    30   ar
     9    31    32   ar
    10    30    29   ar
    11    51    49    1
    12     1     6   ar
    13     1     2   ar
    14     6     5   ar
    15    24    22    1
    16    48    45    1
    17    45    46   ar
    18    45    44   ar
    19    46    41   ar
    20    26    27    1
    21    26    18    1
    22    42    32    1
    23    42    41   ar
    24    42    43   ar
    25    32    33   ar
    26    41    49    1
    27    21    17    1
    28    44    43   ar
    29    44    53    1
    30    43    47    1
    31     8     2    1
    32    53    54    1
    33    18    17   ar
    34    18    19   ar
    35    49    50    1
    36    49    52    1
    37    29    19    1
    38    29    28   ar
    39    17    16   ar
    40     2     3   ar
    41    19    20   ar
    42    16     5    1
    43    16    15   ar
    44     5     4   ar
    45    20    15   ar
    46    15    22    1
    47    22    25    1
    48    22    23    1
    49    33    28   ar
    50     3     4   ar
    51     3     7    1
    52    28    35    1
    53     4    13    1
    54    37    35    1
    55    14    13    1
    56    35    36    1
    57    35    38    1
