@<TRIPOS>MOLECULE
mol_data/opt/cam/geoms/mol2/6if6if6if-6if.out
 54 57 0 0 0
SMALL
GASTEIGER

@<TRIPOS>ATOM
      1 C          -4.2778   -2.2090   -0.4700 C.ar    1  LIG1        0.0392
      2 C          -2.9687   -2.2088    0.0138 C.ar    1  LIG1       -0.0372
      3 C          -2.4333   -1.0422    0.5294 C.ar    1  LIG1       -0.0164
      4 C          -3.2127    0.1078    0.5410 C.ar    1  LIG1        0.1428
      5 C          -4.5142    0.0361    0.0231 C.ar    1  LIG1        0.1143
      6 N          -5.0198   -1.1020   -0.4557 N.ar    1  LIG1       -0.2482
      7 H          -1.4260   -0.9988    0.9284 H       1  LIG1        0.0655
      8 H          -2.3797   -3.1193   -0.0084 H       1  LIG1        0.0636
      9 C          -4.9210   -3.4475   -1.0312 C.3     1  LIG1       -0.0223
     10 H          -4.2378   -4.2989   -1.0121 H       1  LIG1        0.0292
     11 H          -5.2379   -3.2798   -2.0638 H       1  LIG1        0.0292
     12 H          -5.8147   -3.7085   -0.4579 H       1  LIG1        0.0292
     13 O          -2.6716    1.2389    1.0616 O.3     1  LIG1       -0.5046
     14 H          -3.3447    1.9322    1.0876 H       1  LIG1        0.2922
     15 C          -6.6768    1.2653    0.5383 C.ar    1  LIG1        0.0484
     16 C          -5.3816    1.2472   -0.0198 C.ar    1  LIG1        0.0284
     17 C          -4.9251    2.3988   -0.6515 C.ar    1  LIG1       -0.0070
     18 C          -5.7347    3.5270   -0.7097 C.ar    1  LIG1        0.1434
     19 C          -6.9873    3.4766   -0.0951 C.ar    1  LIG1        0.1144
     20 N          -7.4345    2.3575    0.4843 N.ar    1  LIG1       -0.2475
     21 H          -3.9583    2.4251   -1.1446 H       1  LIG1        0.0662
     22 C          -7.2745    0.0698    1.2266 C.3     1  LIG1       -0.0217
     23 H          -6.6113   -0.3144    2.0070 H       1  LIG1        0.0293
     24 H          -7.4327   -0.7463    0.5189 H       1  LIG1        0.0293
     25 H          -8.2245    0.3597    1.6746 H       1  LIG1        0.0293
     26 O          -5.2685    4.6114   -1.3809 O.3     1  LIG1       -0.5046
     27 H          -5.9806    5.2606   -1.4641 H       1  LIG1        0.2922
     28 C          -7.6033    5.8886    0.4453 C.ar    1  LIG1        0.0484
     29 C          -7.9152    4.6412   -0.1194 C.ar    1  LIG1        0.0284
     30 C          -9.1703    4.4824   -0.7006 C.ar    1  LIG1       -0.0070
     31 C         -10.0609    5.5416   -0.7335 C.ar    1  LIG1        0.1434
     32 C          -9.6746    6.7594   -0.1527 C.ar    1  LIG1        0.1144
     33 N          -8.4727    6.9025    0.4032 N.ar    1  LIG1       -0.2475
     34 H          -9.4386    3.5202   -1.1287 H       1  LIG1        0.0662
     35 C          -6.3186    6.1501    1.1902 C.3     1  LIG1       -0.0217
     36 H          -6.3725    7.1429    1.6352 H       1  LIG1        0.0293
     37 H          -5.4387    6.1036    0.5430 H       1  LIG1        0.0293
     38 H          -6.1725    5.4133    1.9853 H       1  LIG1        0.0293
     39 O         -11.2776    5.4608   -1.3319 O.3     1  LIG1       -0.5046
     40 H         -11.4133    4.5663   -1.6670 H       1  LIG1        0.2922
     41 C         -11.8345    7.9931    0.4038 C.ar    1  LIG1        0.0477
     42 C         -10.5497    7.9637   -0.1699 C.ar    1  LIG1        0.0284
     43 C         -10.0412    9.1269   -0.7335 C.ar    1  LIG1       -0.0077
     44 C         -10.8251   10.2706   -0.7571 C.ar    1  LIG1        0.1355
     45 C         -12.0935   10.2011   -0.1941 C.ar    1  LIG1        0.0693
     46 N         -12.5741    9.1032    0.3782 N.ar    1  LIG1       -0.2559
     47 H          -9.0409    9.1484   -1.1503 H       1  LIG1        0.0662
     48 H         -12.7427   11.0778   -0.1949 H       1  LIG1        0.0867
     49 C         -12.4442    6.8129    1.1091 C.3     1  LIG1       -0.0217
     50 H         -11.6999    6.2540    1.6821 H       1  LIG1        0.0293
     51 H         -12.8941    6.1214    0.3926 H       1  LIG1        0.0293
     52 H         -13.2218    7.1694    1.7845 H       1  LIG1        0.0293
     53 O         -10.3203   11.3993   -1.3241 O.3     1  LIG1       -0.5052
     54 H         -10.9732   12.1067   -1.2598 H       1  LIG1        0.2922
@<TRIPOS>BOND
     1    11     9    1
     2    40    39    1
     3    27    26    1
     4    26    18    1
     5    39    31    1
     6    53    54    1
     7    53    44    1
     8    47    43    1
     9    21    17    1
    10    34    30    1
    11     9    10    1
    12     9     1    1
    13     9    12    1
    14    44    43   ar
    15    44    45   ar
    16    43    42   ar
    17    31    30   ar
    18    31    32   ar
    19    18    17   ar
    20    18    19   ar
    21    30    29   ar
    22    17    16   ar
    23     1     6   ar
    24     1     2   ar
    25     6     5   ar
    26    48    45    1
    27    45    46   ar
    28    42    32    1
    29    42    41   ar
    30    32    33   ar
    31    29    19    1
    32    29    28   ar
    33    19    20   ar
    34    16     5    1
    35    16    15   ar
    36     8     2    1
    37     2     3   ar
    38     5     4   ar
    39    46    41   ar
    40    51    49    1
    41    33    28   ar
    42    41    49    1
    43    28    35    1
    44    20    15   ar
    45    24    22    1
    46     3     4   ar
    47     3     7    1
    48    15    22    1
    49     4    13    1
    50    37    35    1
    51    13    14    1
    52    49    50    1
    53    49    52    1
    54    35    36    1
    55    35    38    1
    56    22    25    1
    57    22    23    1
