@<TRIPOS>MOLECULE
mol_data/opt/cam/geoms/mol2/6if6if-6if.out
 41 43 0 0 0
SMALL
GASTEIGER

@<TRIPOS>ATOM
      1 C          -4.3817   -2.1015    0.2846 C.ar    1  LIG1        0.0392
      2 C          -3.0452   -2.1438   -0.1149 C.ar    1  LIG1       -0.0372
      3 C          -2.4332   -0.9894   -0.5702 C.ar    1  LIG1       -0.0164
      4 C          -3.1662    0.1895   -0.5999 C.ar    1  LIG1        0.1428
      5 C          -4.4903    0.1657   -0.1432 C.ar    1  LIG1        0.1143
      6 N          -5.0769   -0.9636    0.2599 N.ar    1  LIG1       -0.2482
      7 H          -1.4061   -0.9813   -0.9178 H       1  LIG1        0.0655
      8 H          -2.4964   -3.0788   -0.0818 H       1  LIG1        0.0636
      9 C          -5.1066   -3.3257    0.7725 C.3     1  LIG1       -0.0223
     10 H          -4.5064   -4.2282    0.6403 H       1  LIG1        0.0292
     11 H          -6.0495   -3.4497    0.2347 H       1  LIG1        0.0292
     12 H          -5.3518   -3.2291    1.8341 H       1  LIG1        0.0292
     13 O          -2.5657    1.3070   -1.0881 O.3     1  LIG1       -0.5046
     14 H          -3.2261    2.0083   -1.1718 H       1  LIG1        0.2922
     15 C          -5.0174    2.5467    0.5907 C.ar    1  LIG1        0.0484
     16 C          -5.3312    1.3962   -0.1512 C.ar    1  LIG1        0.0284
     17 C          -6.5046    1.4022   -0.8999 C.ar    1  LIG1       -0.0070
     18 C          -7.3121    2.5265   -0.9198 C.ar    1  LIG1        0.1434
     19 C          -6.9283    3.6398   -0.1570 C.ar    1  LIG1        0.1144
     20 N          -5.8052    3.6257    0.5590 N.ar    1  LIG1       -0.2475
     21 H          -6.7756    0.5163   -1.4682 H       1  LIG1        0.0662
     22 C          -3.8265    2.6229    1.5121 C.3     1  LIG1       -0.0217
     23 H          -3.8877    3.5490    2.0823 H       1  LIG1        0.0293
     24 H          -2.8762    2.6065    0.9715 H       1  LIG1        0.0293
     25 H          -3.8148    1.7773    2.2055 H       1  LIG1        0.0293
     26 O          -8.4412    2.6075   -1.6712 O.3     1  LIG1       -0.5046
     27 H          -8.5886    1.7674   -2.1220 H       1  LIG1        0.2922
     28 C          -9.0554    4.9797    0.2659 C.ar    1  LIG1        0.0477
     29 C          -7.7113    4.9062   -0.1448 C.ar    1  LIG1        0.0284
     30 C          -7.0567    6.0768   -0.5057 C.ar    1  LIG1       -0.0077
     31 C          -7.7524    7.2766   -0.4950 C.ar    1  LIG1        0.1355
     32 C          -9.0852    7.2517   -0.1035 C.ar    1  LIG1        0.0693
     33 N          -9.7093    6.1425    0.2764 N.ar    1  LIG1       -0.2559
     34 H          -6.0112    6.0607   -0.7912 H       1  LIG1        0.0662
     35 H          -9.6684    8.1735   -0.0839 H       1  LIG1        0.0867
     36 C          -9.8295    3.7848    0.7510 C.3     1  LIG1       -0.0217
     37 H          -9.2088    3.1178    1.3548 H       1  LIG1        0.0293
     38 H         -10.2145    3.2032   -0.0902 H       1  LIG1        0.0293
     39 H         -10.6714    4.1306    1.3506 H       1  LIG1        0.0293
     40 O          -7.1030    8.4135   -0.8636 O.3     1  LIG1       -0.5052
     41 H          -7.7091    9.1613   -0.7978 H       1  LIG1        0.2922
@<TRIPOS>BOND
     1    27    26    1
     2    26    18    1
     3    21    17    1
     4    14    13    1
     5    13     4    1
     6    18    17   ar
     7    18    19   ar
     8     7     3    1
     9    17    16   ar
    10    40    41    1
    11    40    31    1
    12    34    30    1
    13     4     3   ar
    14     4     5   ar
    15     3     2   ar
    16    30    31   ar
    17    30    29   ar
    18    31    32   ar
    19    19    29    1
    20    19    20   ar
    21    16     5    1
    22    16    15   ar
    23    29    28   ar
    24     5     6   ar
    25     2     8    1
    26     2     1   ar
    27    32    35    1
    28    32    33   ar
    29    38    36    1
    30    11     9    1
    31     6     1   ar
    32    28    33   ar
    33    28    36    1
    34     1     9    1
    35    20    15   ar
    36    15    22    1
    37    10     9    1
    38    36    39    1
    39    36    37    1
    40     9    12    1
    41    24    22    1
    42    22    23    1
    43    22    25    1
