@<TRIPOS>MOLECULE
mol_data/opt/cam/geoms/mol2/6if6if-.out
 28 29 0 0 0
SMALL
GASTEIGER

@<TRIPOS>ATOM
      1 C          -4.4022   -2.0099    0.3706 C.ar    1  LIG1        0.0392
      2 C          -3.1474   -2.0864   -0.2346 C.ar    1  LIG1       -0.0372
      3 C          -2.6190   -0.9660   -0.8515 C.ar    1  LIG1       -0.0164
      4 C          -3.3498    0.2144   -0.8348 C.ar    1  LIG1        0.1428
      5 C          -4.5836    0.2284   -0.1707 C.ar    1  LIG1        0.1143
      6 N          -5.0949   -0.8700    0.3890 N.ar    1  LIG1       -0.2482
      7 H          -1.6610   -0.9866   -1.3591 H       1  LIG1        0.0655
      8 H          -2.5983   -3.0218   -0.2332 H       1  LIG1        0.0636
      9 C          -5.0386   -3.1974    1.0392 C.3     1  LIG1       -0.0223
     10 H          -4.4485   -4.1046    0.8947 H       1  LIG1        0.0292
     11 H          -6.0424   -3.3664    0.6417 H       1  LIG1        0.0292
     12 H          -5.1435   -3.0223    2.1137 H       1  LIG1        0.0292
     13 O          -2.8384    1.2955   -1.4802 O.3     1  LIG1       -0.5046
     14 H          -3.5034    1.9976   -1.4939 H       1  LIG1        0.2922
     15 C          -4.9820    2.6535    0.4848 C.ar    1  LIG1        0.0477
     16 C          -5.4173    1.4632   -0.1214 C.ar    1  LIG1        0.0284
     17 C          -6.7006    1.4219   -0.6651 C.ar    1  LIG1       -0.0077
     18 C          -7.4942    2.5554   -0.6269 C.ar    1  LIG1        0.1355
     19 C          -6.9645    3.7053   -0.0416 C.ar    1  LIG1        0.0693
     20 N          -5.7575    3.7459    0.5019 N.ar    1  LIG1       -0.2559
     21 H          -7.0627    0.4949   -1.1015 H       1  LIG1        0.0662
     22 H          -7.5646    4.6112   -0.0119 H       1  LIG1        0.0867
     23 C          -3.6620    2.7661    1.2046 C.3     1  LIG1       -0.0217
     24 H          -3.6371    3.7178    1.7340 H       1  LIG1        0.0293
     25 H          -2.8073    2.7243    0.5237 H       1  LIG1        0.0293
     26 H          -3.5373    1.9532    1.9253 H       1  LIG1        0.0293
     27 O          -8.7539    2.6198   -1.1300 O.3     1  LIG1       -0.5052
     28 H          -9.0100    1.7554   -1.4726 H       1  LIG1        0.2922
@<TRIPOS>BOND
     1    14    13    1
     2    13     4    1
     3    28    27    1
     4     7     3    1
     5    27    18    1
     6    21    17    1
     7     3     4   ar
     8     3     2   ar
     9     4     5   ar
    10    17    18   ar
    11    17    16   ar
    12    18    19   ar
    13     2     8    1
    14     2     1   ar
    15     5    16    1
    16     5     6   ar
    17    16    15   ar
    18    19    22    1
    19    19    20   ar
    20     1     6   ar
    21     1     9    1
    22    15    20   ar
    23    15    23    1
    24    25    23    1
    25    11     9    1
    26    10     9    1
    27     9    12    1
    28    23    24    1
    29    23    26    1
