@<TRIPOS>MOLECULE
mol_data/opt/cam/geoms/mol2/6if6if-6if6if-.out
 54 57 0 0 0
SMALL
GASTEIGER

@<TRIPOS>ATOM
      1 C          -4.2706   -2.1442    0.4383 C.ar    1  LIG1        0.0392
      2 C          -3.0113   -2.2377   -0.1560 C.ar    1  LIG1       -0.0372
      3 C          -2.4871   -1.1418   -0.8181 C.ar    1  LIG1       -0.0164
      4 C          -3.2263    0.0330   -0.8574 C.ar    1  LIG1        0.1428
      5 C          -4.4634    0.0668   -0.2014 C.ar    1  LIG1        0.1143
      6 N          -4.9712   -1.0100    0.4026 N.ar    1  LIG1       -0.2482
      7 H          -1.5262   -1.1778   -1.3194 H       1  LIG1        0.0655
      8 H          -2.4558   -3.1683   -0.1110 H       1  LIG1        0.0636
      9 C          -4.8998   -3.3051    1.1583 C.3     1  LIG1       -0.0223
     10 H          -4.3359   -4.2274    1.0049 H       1  LIG1        0.0292
     11 H          -5.9244   -3.4577    0.8114 H       1  LIG1        0.0292
     12 H          -4.9496   -3.1092    2.2334 H       1  LIG1        0.0292
     13 O          -2.7183    1.0882   -1.5474 O.3     1  LIG1       -0.5046
     14 H          -3.3899    1.7815   -1.6033 H       1  LIG1        0.2922
     15 C          -4.8950    2.5161    0.3511 C.ar    1  LIG1        0.0484
     16 C          -5.3078    1.2951   -0.2075 C.ar    1  LIG1        0.0284
     17 C          -6.5837    1.2278   -0.7595 C.ar    1  LIG1       -0.0070
     18 C          -7.3977    2.3476   -0.7703 C.ar    1  LIG1        0.1434
     19 C          -6.9128    3.5325   -0.1972 C.ar    1  LIG1        0.1144
     20 N          -5.6910    3.5891    0.3306 N.ar    1  LIG1       -0.2475
     21 H          -6.9296    0.2882   -1.1822 H       1  LIG1        0.0662
     22 C          -3.5761    2.6832    1.0619 C.3     1  LIG1       -0.0217
     23 H          -3.5493    3.6731    1.5154 H       1  LIG1        0.0293
     24 H          -2.7206    2.5822    0.3887 H       1  LIG1        0.0293
     25 H          -3.4575    1.9295    1.8455 H       1  LIG1        0.0293
     26 O          -8.6315    2.3542   -1.3409 O.3     1  LIG1       -0.5046
     27 H          -8.8356    1.4720   -1.6739 H       1  LIG1        0.2922
     28 C          -8.9590    4.9232    0.4228 C.ar    1  LIG1        0.0484
     29 C          -7.6991    4.7965   -0.1904 C.ar    1  LIG1        0.0284
     30 C          -7.1379    5.9185   -0.7830 C.ar    1  LIG1       -0.0070
     31 C          -7.8313    7.1191   -0.7823 C.ar    1  LIG1        0.1434
     32 C          -9.0712    7.1694   -0.1390 C.ar    1  LIG1        0.1144
     33 N          -9.6075    6.0870    0.4295 N.ar    1  LIG1       -0.2475
     34 H          -6.1656    5.8660   -1.2591 H       1  LIG1        0.0662
     35 C          -9.6379    3.7875    1.1379 C.3     1  LIG1       -0.0217
     36 H          -8.9263    3.1932    1.7169 H       1  LIG1        0.0293
     37 H         -10.1239    3.1146    0.4272 H       1  LIG1        0.0293
     38 H         -10.3934    4.1944    1.8098 H       1  LIG1        0.0293
     39 O          -7.2740    8.1827   -1.4206 O.3     1  LIG1       -0.5046
     40 H          -7.9176    8.9039   -1.4472 H       1  LIG1        0.2922
     41 C          -9.4222    9.6055    0.5028 C.ar    1  LIG1        0.0477
     42 C          -9.8771    8.4225   -0.1039 C.ar    1  LIG1        0.0284
     43 C         -11.1536    8.4087   -0.6644 C.ar    1  LIG1       -0.0077
     44 C         -11.9209    9.5607   -0.6421 C.ar    1  LIG1        0.1355
     45 C         -11.3721   10.7008   -0.0558 C.ar    1  LIG1        0.0693
     46 N         -10.1717   10.7160    0.5038 N.ar    1  LIG1       -0.2559
     47 H         -11.5314    7.4884   -1.1018 H       1  LIG1        0.0662
     48 H         -11.9510   11.6209   -0.0388 H       1  LIG1        0.0867
     49 C          -8.1108    9.6889    1.2419 C.3     1  LIG1       -0.0217
     50 H          -8.0654   10.6469    1.7585 H       1  LIG1        0.0293
     51 H          -7.2469    9.6104    0.5761 H       1  LIG1        0.0293
     52 H          -8.0227    8.8828    1.9755 H       1  LIG1        0.0293
     53 O         -13.1724    9.6513   -1.1626 O.3     1  LIG1       -0.5052
     54 H         -13.4428    8.7905   -1.5034 H       1  LIG1        0.2922
@<TRIPOS>BOND
     1    27    26    1
     2    14    13    1
     3    13     4    1
     4    54    53    1
     5    40    39    1
     6    39    31    1
     7    26    18    1
     8     7     3    1
     9    34    30    1
    10    21    17    1
    11    53    44    1
    12    47    43    1
    13     4     3   ar
    14     4     5   ar
    15     3     2   ar
    16    30    31   ar
    17    30    29   ar
    18    31    32   ar
    19    18    17   ar
    20    18    19   ar
    21    17    16   ar
    22    43    44   ar
    23    43    42   ar
    24    44    45   ar
    25    16     5    1
    26    16    15   ar
    27     5     6   ar
    28    19    29    1
    29    19    20   ar
    30    29    28   ar
    31     2     8    1
    32     2     1   ar
    33    32    42    1
    34    32    33   ar
    35    42    41   ar
    36    45    48    1
    37    45    46   ar
    38    20    15   ar
    39    15    22    1
    40    24    22    1
    41     6     1   ar
    42    28    33   ar
    43    28    35    1
    44    37    35    1
    45     1     9    1
    46    41    46   ar
    47    41    49    1
    48    51    49    1
    49    11     9    1
    50    10     9    1
    51    22    23    1
    52    22    25    1
    53    35    36    1
    54    35    38    1
    55     9    12    1
    56    49    50    1
    57    49    52    1
