@<TRIPOS>MOLECULE
mol_data/opt/cam/geoms/mol2/6if6if.out
 28 29 0 0 0
SMALL
GASTEIGER

@<TRIPOS>ATOM
      1 C          -4.4140   -2.0388   -0.5040 C.ar    1  LIG1        0.0392
      2 C          -3.1254   -2.0689    0.0307 C.ar    1  LIG1       -0.0372
      3 C          -2.5958   -0.9227    0.5964 C.ar    1  LIG1       -0.0164
      4 C          -3.3602    0.2371    0.6059 C.ar    1  LIG1        0.1428
      5 C          -4.6410    0.1963    0.0355 C.ar    1  LIG1        0.1143
      6 N          -5.1419   -0.9223   -0.4911 N.ar    1  LIG1       -0.2482
      7 H          -1.6046   -0.9033    1.0357 H       1  LIG1        0.0655
      8 H          -2.5479   -2.9867    0.0088 H       1  LIG1        0.0636
      9 C          -5.0509   -3.2540   -1.1203 C.3     1  LIG1       -0.0223
     10 H          -4.3757   -4.1120   -1.1075 H       1  LIG1        0.0292
     11 H          -5.3371   -3.0522   -2.1557 H       1  LIG1        0.0292
     12 H          -5.9629   -3.5239   -0.5808 H       1  LIG1        0.0292
     13 O          -2.8269    1.3484    1.1755 O.3     1  LIG1       -0.5046
     14 H          -3.4918    2.0502    1.1863 H       1  LIG1        0.2922
     15 C          -6.7946    1.4444    0.5292 C.ar    1  LIG1        0.0477
     16 C          -5.4907    1.4206   -0.0086 C.ar    1  LIG1        0.0284
     17 C          -4.9947    2.5773   -0.6024 C.ar    1  LIG1       -0.0077
     18 C          -5.7920    3.7155   -0.6568 C.ar    1  LIG1        0.1355
     19 C          -7.0631    3.6439   -0.1042 C.ar    1  LIG1        0.0693
     20 N          -7.5440    2.5443    0.4696 N.ar    1  LIG1       -0.2559
     21 H          -4.0066    2.6011   -1.0514 H       1  LIG1        0.0662
     22 H          -7.7213    4.5131   -0.1256 H       1  LIG1        0.0867
     23 C          -7.4101    0.2478    1.1996 C.3     1  LIG1       -0.0217
     24 H          -6.7602   -0.1503    1.9843 H       1  LIG1        0.0293
     25 H          -7.5692   -0.5593    0.4817 H       1  LIG1        0.0293
     26 H          -8.3633    0.5421    1.6378 H       1  LIG1        0.0293
     27 O          -5.2904    4.8318   -1.2454 O.3     1  LIG1       -0.5052
     28 H          -5.9561    5.5302   -1.2292 H       1  LIG1        0.2922
@<TRIPOS>BOND
     1    11     9    1
     2    27    28    1
     3    27    18    1
     4     9    10    1
     5     9    12    1
     6     9     1    1
     7    21    17    1
     8    18    17   ar
     9    18    19   ar
    10    17    16   ar
    11     1     6   ar
    12     1     2   ar
    13     6     5   ar
    14    22    19    1
    15    19    20   ar
    16    16     5    1
    17    16    15   ar
    18     8     2    1
    19     2     3   ar
    20     5     4   ar
    21    20    15   ar
    22    25    23    1
    23    15    23    1
    24     3     4   ar
    25     3     7    1
    26     4    13    1
    27    13    14    1
    28    23    26    1
    29    23    24    1
