@<TRIPOS>MOLECULE
mol_data/opt/cam/geoms/mol2/6ig.out
 15 15 0 0 0
SMALL
GASTEIGER

@<TRIPOS>ATOM
      1 C          -4.5590   -2.0305   -0.0061 C.ar    1  LIG1        0.0383
      2 C          -3.1685   -1.9991    0.0784 C.ar    1  LIG1       -0.0396
      3 C          -2.5087   -0.7801    0.0836 C.ar    1  LIG1       -0.0454
      4 C          -3.2563    0.3902    0.0037 C.ar    1  LIG1        0.0229
      5 C          -4.6429    0.2616   -0.0778 C.ar    1  LIG1        0.0410
      6 N          -5.2762   -0.9044   -0.0829 N.ar    1  LIG1       -0.2591
      7 H          -1.4259   -0.7412    0.1490 H       1  LIG1        0.0629
      8 H          -2.6066   -2.9248    0.1398 H       1  LIG1        0.0636
      9 H          -5.2716    1.1482   -0.1422 H       1  LIG1        0.0841
     10 C          -5.3299   -3.3206   -0.0161 C.3     1  LIG1       -0.0224
     11 H          -4.6691   -4.1872    0.0499 H       1  LIG1        0.0292
     12 H          -5.9218   -3.4017   -0.9315 H       1  LIG1        0.0292
     13 H          -6.0300   -3.3506    0.8228 H       1  LIG1        0.0292
     14 S          -2.4263    1.9601    0.0092 S.3     1  LIG1       -0.1412
     15 H          -3.5299    2.7193   -0.0808 H       1  LIG1        0.1072
@<TRIPOS>BOND
     1    12    10    1
     2     9     5    1
     3     6     5   ar
     4     6     1   ar
     5    15    14    1
     6     5     4   ar
     7    10     1    1
     8    10    11    1
     9    10    13    1
    10     1     2   ar
    11     4    14    1
    12     4     3   ar
    13     2     3   ar
    14     2     8    1
    15     3     7    1
