@<TRIPOS>MOLECULE
mol_data/opt/cam/geoms/mol2/6ih6ih-.out
 30 31 0 0 0
SMALL
GASTEIGER

@<TRIPOS>ATOM
      1 C          -4.3695   -1.9983    0.4566 C.ar    1  LIG1        0.0390
      2 C          -3.1247   -2.0835   -0.1620 C.ar    1  LIG1       -0.0389
      3 C          -2.5981   -0.9658   -0.7857 C.ar    1  LIG1       -0.0373
      4 C          -3.3104    0.2323   -0.7774 C.ar    1  LIG1        0.0510
      5 C          -4.5468    0.2399   -0.1011 C.ar    1  LIG1        0.0936
      6 N          -5.0531   -0.8524    0.4707 N.ar    1  LIG1       -0.2500
      7 H          -1.6362   -1.0161   -1.2886 H       1  LIG1        0.0637
      8 H          -2.5779   -3.0205   -0.1640 H       1  LIG1        0.0636
      9 C          -5.0082   -3.1761    1.1403 C.3     1  LIG1       -0.0223
     10 H          -4.4195   -4.0863    1.0070 H       1  LIG1        0.0292
     11 H          -6.0127   -3.3489    0.7456 H       1  LIG1        0.0292
     12 H          -5.1131   -2.9882    2.2127 H       1  LIG1        0.0292
     13 N          -2.8019    1.3731   -1.3904 N.pl3   1  LIG1       -0.3563
     14 H          -2.1469    1.2002   -2.1386 H       1  LIG1        0.1424
     15 H          -3.4918    2.0705   -1.6317 H       1  LIG1        0.1424
     16 C          -5.0043    2.6405    0.6109 C.ar    1  LIG1        0.0475
     17 C          -5.3987    1.4646   -0.0515 C.ar    1  LIG1        0.0249
     18 C          -6.6524    1.4244   -0.6514 C.ar    1  LIG1       -0.0286
     19 C          -7.4805    2.5435   -0.6228 C.ar    1  LIG1        0.0435
     20 C          -6.9787    3.6737    0.0279 C.ar    1  LIG1        0.0485
     21 N          -5.7969    3.7166    0.6279 N.ar    1  LIG1       -0.2577
     22 H          -6.9820    0.5064   -1.1293 H       1  LIG1        0.0643
     23 H          -7.5796    4.5818    0.0726 H       1  LIG1        0.0848
     24 C          -3.7112    2.7466    1.3745 C.3     1  LIG1       -0.0217
     25 H          -3.7053    3.6897    1.9206 H       1  LIG1        0.0293
     26 H          -2.8425    2.7130    0.7107 H       1  LIG1        0.0293
     27 H          -3.6061    1.9231    2.0868 H       1  LIG1        0.0293
     28 N          -8.7607    2.5303   -1.1664 N.pl3   1  LIG1       -0.3568
     29 H          -9.1397    3.4366   -1.3980 H       1  LIG1        0.1424
     30 H          -8.9141    1.8530   -1.8984 H       1  LIG1        0.1424
@<TRIPOS>BOND
     1    14    13    1
     2    30    28    1
     3    15    13    1
     4    29    28    1
     5    13     4    1
     6     7     3    1
     7    28    19    1
     8    22    18    1
     9     3     4   ar
    10     3     2   ar
    11     4     5   ar
    12    18    19   ar
    13    18    17   ar
    14    19    20   ar
    15     8     2    1
    16     2     1   ar
    17     5    17    1
    18     5     6   ar
    19    17    16   ar
    20    20    23    1
    21    20    21   ar
    22     1     6   ar
    23     1     9    1
    24    16    21   ar
    25    16    24    1
    26    26    24    1
    27    11     9    1
    28    10     9    1
    29     9    12    1
    30    24    25    1
    31    24    27    1
