@<TRIPOS>MOLECULE
mol_data/opt/cam/geoms/mol2/6ih6ih6ih-6ih-.out
 58 61 0 0 0
SMALL
GASTEIGER

@<TRIPOS>ATOM
      1 C          -4.0034   -1.9360    0.9628 C.ar    1  LIG1        0.0390
      2 C          -3.0094   -2.2404    0.0359 C.ar    1  LIG1       -0.0389
      3 C          -2.7823   -1.3788   -1.0228 C.ar    1  LIG1       -0.0373
      4 C          -3.5392   -0.2148   -1.1465 C.ar    1  LIG1        0.0510
      5 C          -4.5138    0.0248   -0.1565 C.ar    1  LIG1        0.0936
      6 N          -4.7291   -0.8231    0.8487 N.ar    1  LIG1       -0.2500
      7 H          -2.0170   -1.6024   -1.7612 H       1  LIG1        0.0637
      8 H          -2.4240   -3.1478    0.1393 H       1  LIG1        0.0636
      9 C          -4.3160   -2.8327    2.1291 C.3     1  LIG1       -0.0223
     10 H          -3.6501   -3.6977    2.1607 H       1  LIG1        0.0292
     11 H          -5.3470   -3.1929    2.0716 H       1  LIG1        0.0292
     12 H          -4.2191   -2.2849    3.0700 H       1  LIG1        0.0292
     13 N          -3.3049    0.6822   -2.1882 N.pl3   1  LIG1       -0.3563
     14 H          -2.8884    0.2658   -3.0087 H       1  LIG1        0.1424
     15 H          -4.0917    1.2723   -2.4190 H       1  LIG1        0.1424
     16 C          -6.7611    1.1999   -0.1452 C.ar    1  LIG1        0.0482
     17 C          -5.3555    1.2558   -0.1799 C.ar    1  LIG1        0.0249
     18 C          -4.7532    2.5067   -0.2198 C.ar    1  LIG1       -0.0280
     19 C          -5.5192    3.6721   -0.1968 C.ar    1  LIG1        0.0516
     20 C          -6.9126    3.5174   -0.1194 C.ar    1  LIG1        0.0936
     21 N          -7.4903    2.3133   -0.1247 N.ar    1  LIG1       -0.2493
     22 H          -3.6701    2.5795   -0.2668 H       1  LIG1        0.0644
     23 C          -7.5222   -0.0976   -0.1383 C.3     1  LIG1       -0.0217
     24 H          -7.3812   -0.6246    0.8077 H       1  LIG1        0.0293
     25 H          -7.1798   -0.7721   -0.9287 H       1  LIG1        0.0293
     26 H          -8.5815    0.1161   -0.2800 H       1  LIG1        0.0293
     27 N          -4.9124    4.9235   -0.2213 N.pl3   1  LIG1       -0.3563
     28 H          -3.9879    4.9448   -0.6255 H       1  LIG1        0.1424
     29 H          -5.4996    5.6784   -0.5460 H       1  LIG1        0.1424
     30 C          -7.8536    5.6391    0.9317 C.ar    1  LIG1        0.0482
     31 C          -7.8348    4.6891   -0.1047 C.ar    1  LIG1        0.0249
     32 C          -8.7469    4.8335   -1.1414 C.ar    1  LIG1       -0.0280
     33 C          -9.6354    5.9052   -1.1700 C.ar    1  LIG1        0.0516
     34 C          -9.5616    6.8226   -0.1060 C.ar    1  LIG1        0.0936
     35 N          -8.6968    6.6711    0.8971 N.ar    1  LIG1       -0.2493
     36 H          -8.7684    4.0899   -1.9331 H       1  LIG1        0.0644
     37 C          -6.9808    5.5264    2.1529 C.3     1  LIG1       -0.0217
     38 H          -7.2922    6.2801    2.8759 H       1  LIG1        0.0293
     39 H          -5.9241    5.6748    1.9131 H       1  LIG1        0.0293
     40 H          -7.0715    4.5367    2.6096 H       1  LIG1        0.0293
     41 N         -10.5715    6.0300   -2.1949 N.pl3   1  LIG1       -0.3563
     42 H         -10.9025    6.9708   -2.3540 H       1  LIG1        0.1424
     43 H         -10.3191    5.5596   -3.0519 H       1  LIG1        0.1424
     44 C          -9.9726    9.3155    0.0778 C.ar    1  LIG1        0.0475
     45 C         -10.4694    8.0042   -0.0359 C.ar    1  LIG1        0.0249
     46 C         -11.8473    7.8149   -0.0629 C.ar    1  LIG1       -0.0286
     47 C         -12.7094    8.9066    0.0342 C.ar    1  LIG1        0.0435
     48 C         -12.1136   10.1637    0.1415 C.ar    1  LIG1        0.0485
     49 N         -10.8003   10.3587    0.1585 N.ar    1  LIG1       -0.2577
     50 H         -12.2500    6.8093   -0.1461 H       1  LIG1        0.0643
     51 H         -12.7380   11.0536    0.2174 H       1  LIG1        0.0848
     52 C          -8.5004    9.6237    0.1068 C.3     1  LIG1       -0.0217
     53 H          -8.3673   10.7043    0.0551 H       1  LIG1        0.0293
     54 H          -7.9734    9.1567   -0.7311 H       1  LIG1        0.0293
     55 H          -8.0403    9.2428    1.0211 H       1  LIG1        0.0293
     56 N         -14.0911    8.7507    0.0771 N.pl3   1  LIG1       -0.3568
     57 H         -14.6248    9.5679   -0.1801 H       1  LIG1        0.1424
     58 H         -14.4463    7.9102   -0.3536 H       1  LIG1        0.1424
@<TRIPOS>BOND
     1    43    41    1
     2    14    13    1
     3    15    13    1
     4    42    41    1
     5    41    33    1
     6    13     4    1
     7    36    32    1
     8     7     3    1
     9    33    32   ar
    10    33    34   ar
    11     4     3   ar
    12     4     5   ar
    13    32    31   ar
    14     3     2   ar
    15    25    23    1
    16    54    52    1
    17    28    27    1
    18    29    27    1
    19    58    56    1
    20    26    23    1
    21    22    18    1
    22    27    19    1
    23    18    19   ar
    24    18    17   ar
    25    19    20   ar
    26    57    56    1
    27    17     5    1
    28    17    16   ar
    29     5     6   ar
    30    50    46    1
    31    16    23    1
    32    16    21   ar
    33    23    24    1
    34    21    20   ar
    35    20    31    1
    36    34    45    1
    37    34    35   ar
    38    31    30   ar
    39    46    45   ar
    40    46    47   ar
    41    45    44   ar
    42    47    56    1
    43    47    48   ar
    44     2     8    1
    45     2     1   ar
    46    53    52    1
    47    44    52    1
    48    44    49   ar
    49    52    55    1
    50    48    49   ar
    51    48    51    1
    52     6     1   ar
    53    35    30   ar
    54    30    37    1
    55     1     9    1
    56    39    37    1
    57    11     9    1
    58     9    10    1
    59     9    12    1
    60    37    40    1
    61    37    38    1
