@<TRIPOS>MOLECULE
mol_data/opt/cam/geoms/mol2/6ih6ih.out
 30 31 0 0 0
SMALL
GASTEIGER

@<TRIPOS>ATOM
      1 C          -4.3753   -2.0128    0.5535 C.ar    1  LIG1        0.0390
      2 C          -3.0963   -2.0668    0.0050 C.ar    1  LIG1       -0.0389
      3 C          -2.5735   -0.9425   -0.6096 C.ar    1  LIG1       -0.0373
      4 C          -3.3242    0.2307   -0.6661 C.ar    1  LIG1        0.0510
      5 C          -4.6036    0.2030   -0.0744 C.ar    1  LIG1        0.0936
      6 N          -5.0967   -0.8923    0.5019 N.ar    1  LIG1       -0.2500
      7 H          -1.5805   -0.9663   -1.0503 H       1  LIG1        0.0637
      8 H          -2.5184   -2.9836    0.0533 H       1  LIG1        0.0636
      9 C          -5.0116   -3.1984    1.2255 C.3     1  LIG1       -0.0223
     10 H          -4.3464   -4.0646    1.2267 H       1  LIG1        0.0292
     11 H          -5.9393   -3.4757    0.7172 H       1  LIG1        0.0292
     12 H          -5.2714   -2.9592    2.2601 H       1  LIG1        0.0292
     13 N          -2.8046    1.3842   -1.2519 N.pl3   1  LIG1       -0.3563
     14 H          -2.0979    1.2125   -1.9528 H       1  LIG1        0.1424
     15 H          -3.5002    2.0460   -1.5660 H       1  LIG1        0.1424
     16 C          -6.7773    1.4022   -0.5831 C.ar    1  LIG1        0.0475
     17 C          -5.4716    1.4165   -0.0592 C.ar    1  LIG1        0.0249
     18 C          -4.9942    2.5946    0.5063 C.ar    1  LIG1       -0.0286
     19 C          -5.8039    3.7285    0.5596 C.ar    1  LIG1        0.0435
     20 C          -7.0809    3.6080    0.0105 C.ar    1  LIG1        0.0485
     21 N          -7.5450    2.4927   -0.5405 N.ar    1  LIG1       -0.2577
     22 H          -3.9896    2.6240    0.9190 H       1  LIG1        0.0643
     23 H          -7.7571    4.4625    0.0210 H       1  LIG1        0.0848
     24 C          -7.3815    0.1820   -1.2227 C.3     1  LIG1       -0.0217
     25 H          -7.5474   -0.6037   -0.4826 H       1  LIG1        0.0293
     26 H          -6.7251   -0.2404   -1.9895 H       1  LIG1        0.0293
     27 H          -8.3321    0.4596   -1.6780 H       1  LIG1        0.0293
     28 N          -5.3849    4.9036    1.1755 N.pl3   1  LIG1       -0.3568
     29 H          -4.3859    5.0422    1.2101 H       1  LIG1        0.1424
     30 H          -5.8764    5.7374    0.8893 H       1  LIG1        0.1424
@<TRIPOS>BOND
     1    26    24    1
     2    14    13    1
     3    27    24    1
     4    15    13    1
     5    13     4    1
     6    24    16    1
     7    24    25    1
     8     7     3    1
     9     4     3   ar
    10     4     5   ar
    11     3     2   ar
    12    16    21   ar
    13    16    17   ar
    14    21    20   ar
    15     5    17    1
    16     5     6   ar
    17    17    18   ar
    18     2     8    1
    19     2     1   ar
    20    20    23    1
    21    20    19   ar
    22     6     1   ar
    23    18    19   ar
    24    18    22    1
    25     1     9    1
    26    19    28    1
    27    11     9    1
    28    30    28    1
    29    28    29    1
    30     9    10    1
    31     9    12    1
