@<TRIPOS>MOLECULE
mol_data/opt/cam/geoms/mol2/6ih6ih-6ih-6ih.out
 58 61 0 0 0
SMALL
GASTEIGER

@<TRIPOS>ATOM
      1 C          -4.5327   -2.2483    0.0436 C.ar    1  LIG1        0.0390
      2 C          -3.1424   -2.3260    0.0083 C.ar    1  LIG1       -0.0389
      3 C          -2.3987   -1.1619   -0.0726 C.ar    1  LIG1       -0.0373
      4 C          -3.0453    0.0727   -0.1048 C.ar    1  LIG1        0.0510
      5 C          -4.4523    0.0625   -0.0304 C.ar    1  LIG1        0.0936
      6 N          -5.1558   -1.0688    0.0179 N.ar    1  LIG1       -0.2500
      7 H          -1.3139   -1.2021   -0.1198 H       1  LIG1        0.0637
      8 H          -2.6478   -3.2913    0.0325 H       1  LIG1        0.0636
      9 C          -5.4029   -3.4729    0.1179 C.3     1  LIG1       -0.0223
     10 H          -4.8168   -4.3893    0.0197 H       1  LIG1        0.0292
     11 H          -6.1574   -3.4537   -0.6724 H       1  LIG1        0.0292
     12 H          -5.9376   -3.5084    1.0715 H       1  LIG1        0.0292
     13 N          -2.3220    1.2588   -0.1816 N.pl3   1  LIG1       -0.3563
     14 H          -1.4045    1.1735   -0.5934 H       1  LIG1        0.1424
     15 H          -2.8366    2.0499   -0.5419 H       1  LIG1        0.1424
     16 C          -5.1753    2.3134    0.9223 C.ar    1  LIG1        0.0482
     17 C          -5.2440    1.3265   -0.0766 C.ar    1  LIG1        0.0249
     18 C          -6.1206    1.5255   -1.1344 C.ar    1  LIG1       -0.0280
     19 C          -6.8904    2.6829   -1.2188 C.ar    1  LIG1        0.0516
     20 C          -6.7359    3.6276   -0.1878 C.ar    1  LIG1        0.0936
     21 N          -5.9046    3.4257    0.8348 N.ar    1  LIG1       -0.2493
     22 H          -6.2084    0.7589   -1.8990 H       1  LIG1        0.0644
     23 C          -4.3314    2.1590    2.1591 C.3     1  LIG1       -0.0217
     24 H          -4.5613    2.9750    2.8439 H       1  LIG1        0.0293
     25 H          -3.2630    2.1765    1.9264 H       1  LIG1        0.0293
     26 H          -4.5380    1.2080    2.6584 H       1  LIG1        0.0293
     27 N          -7.7922    2.8656   -2.2656 N.pl3   1  LIG1       -0.3563
     28 H          -8.0140    3.8297   -2.4694 H       1  LIG1        0.1424
     29 H          -7.5797    2.3349   -3.0978 H       1  LIG1        0.1424
     30 C          -6.8860    6.1557   -0.0863 C.ar    1  LIG1        0.0482
     31 C          -7.5134    4.8997   -0.1747 C.ar    1  LIG1        0.0249
     32 C          -8.9004    4.8664   -0.2381 C.ar    1  LIG1       -0.0280
     33 C          -9.6478    6.0430   -0.1876 C.ar    1  LIG1        0.0516
     34 C          -8.9356    7.2468   -0.0619 C.ar    1  LIG1        0.0936
     35 N          -7.6007    7.2777   -0.0422 N.ar    1  LIG1       -0.2493
     36 H          -9.4108    3.9111   -0.3243 H       1  LIG1        0.0644
     37 C          -5.3905    6.3133   -0.0464 C.3     1  LIG1       -0.0217
     38 H          -5.1463    7.3719   -0.1338 H       1  LIG1        0.0293
     39 H          -4.9046    5.7628   -0.8579 H       1  LIG1        0.0293
     40 H          -4.9835    5.9220    0.8885 H       1  LIG1        0.0293
     41 N         -11.0374    6.0055   -0.2322 N.pl3   1  LIG1       -0.3563
     42 H         -11.4807    6.8631   -0.5290 H       1  LIG1        0.1424
     43 H         -11.4319    5.1866   -0.6704 H       1  LIG1        0.1424
     44 C         -10.4952    8.9444    1.0169 C.ar    1  LIG1        0.0475
     45 C          -9.6263    8.5684   -0.0229 C.ar    1  LIG1        0.0249
     46 C          -9.3660    9.4822   -1.0384 C.ar    1  LIG1       -0.0286
     47 C          -9.9866   10.7284   -1.0380 C.ar    1  LIG1        0.0435
     48 C         -10.8630   10.9878    0.0187 C.ar    1  LIG1        0.0485
     49 N         -11.0983   10.1374    1.0086 N.ar    1  LIG1       -0.2577
     50 H          -8.6623    9.2167   -1.8220 H       1  LIG1        0.0643
     51 H         -11.3850   11.9435    0.0648 H       1  LIG1        0.0848
     52 C         -10.7563    8.0682    2.2129 C.3     1  LIG1       -0.0217
     53 H          -9.8190    7.7420    2.6729 H       1  LIG1        0.0293
     54 H         -11.3145    7.1669    1.9444 H       1  LIG1        0.0293
     55 H         -11.3301    8.6379    2.9437 H       1  LIG1        0.0293
     56 N          -9.7166   11.6901   -2.0068 N.pl3   1  LIG1       -0.3568
     57 H          -9.3842   11.3327   -2.8899 H       1  LIG1        0.1424
     58 H         -10.4308   12.3936   -2.1244 H       1  LIG1        0.1424
@<TRIPOS>BOND
     1    29    27    1
     2    57    56    1
     3    28    27    1
     4    27    19    1
     5    58    56    1
     6    56    47    1
     7    22    18    1
     8    50    46    1
     9    19    18   ar
    10    19    20   ar
    11    18    17   ar
    12    46    47   ar
    13    46    45   ar
    14    47    48   ar
    15    39    37    1
    16    11     9    1
    17    43    41    1
    18    14    13    1
    19    15    13    1
    20    42    41    1
    21    36    32    1
    22    32    33   ar
    23    32    31   ar
    24    41    33    1
    25    20    31    1
    26    20    21   ar
    27    33    34   ar
    28    13     4    1
    29    31    30   ar
    30    38    37    1
    31     7     3    1
    32     4     3   ar
    33     4     5   ar
    34    30    37    1
    35    30    35   ar
    36    17     5    1
    37    17    16   ar
    38     3     2   ar
    39    34    35   ar
    40    34    45    1
    41    37    40    1
    42     5     6   ar
    43    45    44   ar
    44     2     8    1
    45     2     1   ar
    46     6     1   ar
    47    48    51    1
    48    48    49   ar
    49    10     9    1
    50     1     9    1
    51     9    12    1
    52    21    16   ar
    53    16    23    1
    54    49    44   ar
    55    44    52    1
    56    25    23    1
    57    54    52    1
    58    23    26    1
    59    23    24    1
    60    52    53    1
    61    52    55    1
