@<TRIPOS>MOLECULE
mol_data/opt/cam/geoms/mol2/6ih6dl12dh-6hh.out
 53 56 0 0 0
SMALL
GASTEIGER

@<TRIPOS>ATOM
      1 C          -4.3228   -2.1346    0.6025 C.ar    1  LIG1        0.0390
      2 C          -3.0253   -2.2445    0.1012 C.ar    1  LIG1       -0.0389
      3 C          -2.4403   -1.1560   -0.5186 C.ar    1  LIG1       -0.0373
      4 C          -3.1433    0.0435   -0.6349 C.ar    1  LIG1        0.0510
      5 C          -4.4357    0.0723   -0.0790 C.ar    1  LIG1        0.0946
      6 N          -4.9908   -0.9881    0.5065 N.ar    1  LIG1       -0.2499
      7 H          -1.4367   -1.2300   -0.9284 H       1  LIG1        0.0637
      8 H          -2.4844   -3.1806    0.1873 H       1  LIG1        0.0636
      9 C          -5.0330   -3.2792    1.2682 C.3     1  LIG1       -0.0223
     10 H          -4.4500   -4.2008    1.2132 H       1  LIG1        0.0292
     11 H          -6.0022   -3.4448    0.7921 H       1  LIG1        0.0292
     12 H          -5.2237   -3.0535    2.3212 H       1  LIG1        0.0292
     13 N          -2.5628    1.1578   -1.2435 N.pl3   1  LIG1       -0.3563
     14 H          -1.7822    0.9322   -1.8446 H       1  LIG1        0.1424
     15 H          -3.2154    1.7738   -1.7086 H       1  LIG1        0.1424
     16 C          -6.6402    1.2457   -0.4538 C.ar    1  LIG1        0.1503
     17 C          -5.2818    1.2932   -0.1059 C.ar    1  LIG1        0.0415
     18 C          -4.7719    2.5361    0.2717 C.ar    1  LIG1       -0.0057
     19 C          -5.6006    3.6478    0.3002 C.ar    1  LIG1        0.1497
     20 C          -6.9496    3.4980   -0.0844 C.ar    1  LIG1        0.1502
     21 N          -7.4351    2.3151   -0.4459 N.ar    1  LIG1       -0.2288
     22 H          -3.7327    2.6145    0.5642 H       1  LIG1        0.0662
     23 N          -7.8166   -0.9069   -1.3135 N.1     1  LIG1       -0.1893
     24 C          -7.2720    0.0276   -0.9066 C.1     1  LIG1        0.1198
     25 O          -5.2269    4.8759    0.6845 O.3     1  LIG1       -0.4928
     26 C          -3.8611    5.1499    0.9502 C.3     1  LIG1        0.0789
     27 H          -3.8066    6.2265    1.1018 H       1  LIG1        0.0660
     28 H          -3.5227    4.6254    1.8494 H       1  LIG1        0.0660
     29 H          -3.2306    4.8691    0.1006 H       1  LIG1        0.0660
     30 C          -7.8947    4.6128   -0.1004 C.ar    1  LIG1        0.1766
     31 C          -7.8316    5.9912   -0.1460 C.ar    1  LIG1        0.1203
     32 C          -9.1832    6.4680   -0.2272 C.ar    1  LIG1        0.0894
     33 C          -9.9830    5.3561   -0.2139 C.ar    1  LIG1        0.1609
     34 O          -9.1852    4.2477   -0.1375 O.2     1  LIG1       -0.4498
     35 N          -5.9227    7.7100   -0.2989 N.1     1  LIG1       -0.1907
     36 C          -6.7270    6.8808   -0.2124 C.1     1  LIG1        0.1049
     37 N          -9.5571    7.8045   -0.2802 N.pl3   1  LIG1       -0.3540
     38 H          -8.7994    8.4225   -0.5417 H       1  LIG1        0.1425
     39 H         -10.3819    7.9729   -0.8412 H       1  LIG1        0.1425
     40 C         -12.0265    4.0080   -0.8166 C.ar    1  LIG1        0.1270
     41 C         -11.4229    5.1651   -0.2587 C.ar    1  LIG1        0.0603
     42 C         -12.2607    6.1601    0.2440 C.ar    1  LIG1       -0.0255
     43 C         -13.6446    6.0316    0.1725 C.ar    1  LIG1        0.0437
     44 C         -14.1263    4.8612   -0.4096 C.ar    1  LIG1        0.0503
     45 N         -13.3530    3.8872   -0.8745 N.ar    1  LIG1       -0.2382
     46 H         -11.8214    7.0323    0.7201 H       1  LIG1        0.0644
     47 H         -15.2009    4.7011   -0.4932 H       1  LIG1        0.0849
     48 N         -11.3026    2.9828   -1.3804 N.pl3   1  LIG1       -0.3426
     49 H         -11.8639    2.1720   -1.5913 H       1  LIG1        0.1437
     50 H         -10.3700    2.7982   -1.0446 H       1  LIG1        0.1437
     51 N         -14.5082    6.9886    0.7234 N.pl3   1  LIG1       -0.3568
     52 H         -14.1440    7.9308    0.7109 H       1  LIG1        0.1424
     53 H         -15.4430    6.9623    0.3403 H       1  LIG1        0.1424
@<TRIPOS>BOND
     1    14    13    1
     2    15    13    1
     3    49    48    1
     4    48    50    1
     5    48    40    1
     6    23    24    3
     7    13     4    1
     8     7     3    1
     9    24    16    1
    10    45    40   ar
    11    45    44   ar
    12    39    37    1
    13    40    41   ar
    14     4     3   ar
    15     4     5   ar
    16    38    37    1
    17     3     2   ar
    18    47    44    1
    19    16    21   ar
    20    16    17   ar
    21    21    20   ar
    22    44    43   ar
    23    35    36    3
    24    37    32    1
    25    41    33    1
    26    41    42   ar
    27    32    33   ar
    28    32    31   ar
    29    33    34   ar
    30    36    31    1
    31    31    30   ar
    32    34    30   ar
    33    17     5    1
    34    17    18   ar
    35    30    20    1
    36    20    19   ar
    37     5     6   ar
    38    29    26    1
    39     2     8    1
    40     2     1   ar
    41    43    42   ar
    42    43    51    1
    43    42    46    1
    44    18    19   ar
    45    18    22    1
    46    19    25    1
    47    53    51    1
    48     6     1   ar
    49     1     9    1
    50    25    26    1
    51    52    51    1
    52    11     9    1
    53    26    27    1
    54    26    28    1
    55    10     9    1
    56     9    12    1
