@<TRIPOS>MOLECULE
mol_data/opt/cam/geoms/mol2/6ih6ih6ih-6ih.out
 58 61 0 0 0
SMALL
GASTEIGER

@<TRIPOS>ATOM
      1 C          -3.9600   -1.9117    0.9738 C.ar    1  LIG1        0.0390
      2 C          -2.9697   -2.2101    0.0410 C.ar    1  LIG1       -0.0389
      3 C          -2.7606   -1.3521   -1.0243 C.ar    1  LIG1       -0.0373
      4 C          -3.5318   -0.1977   -1.1487 C.ar    1  LIG1        0.0510
      5 C          -4.5011    0.0369   -0.1522 C.ar    1  LIG1        0.0936
      6 N          -4.6990   -0.8077    0.8594 N.ar    1  LIG1       -0.2500
      7 H          -1.9987   -1.5714   -1.7675 H       1  LIG1        0.0637
      8 H          -2.3733   -3.1103    0.1449 H       1  LIG1        0.0636
      9 C          -4.2539   -2.8057    2.1471 C.3     1  LIG1       -0.0223
     10 H          -3.5770   -3.6621    2.1792 H       1  LIG1        0.0292
     11 H          -5.2806   -3.1792    2.0980 H       1  LIG1        0.0292
     12 H          -4.1581   -2.2514    3.0843 H       1  LIG1        0.0292
     13 N          -3.3162    0.6956   -2.1979 N.pl3   1  LIG1       -0.3563
     14 H          -2.9027    0.2780   -3.0193 H       1  LIG1        0.1424
     15 H          -4.1122    1.2743   -2.4261 H       1  LIG1        0.1424
     16 C          -6.7606    1.1880   -0.1316 C.ar    1  LIG1        0.0482
     17 C          -5.3561    1.2586   -0.1762 C.ar    1  LIG1        0.0249
     18 C          -4.7672    2.5156   -0.2265 C.ar    1  LIG1       -0.0280
     19 C          -5.5456    3.6724   -0.2051 C.ar    1  LIG1        0.0516
     20 C          -6.9368    3.5037   -0.1204 C.ar    1  LIG1        0.0936
     21 N          -7.5016    2.2938   -0.1140 N.ar    1  LIG1       -0.2493
     22 H          -3.6852    2.5993   -0.2801 H       1  LIG1        0.0644
     23 C          -7.5077   -0.1174   -0.1103 C.3     1  LIG1       -0.0217
     24 H          -7.3585   -0.6337    0.8403 H       1  LIG1        0.0293
     25 H          -7.1601   -0.7957   -0.8951 H       1  LIG1        0.0293
     26 H          -8.5697    0.0834   -0.2509 H       1  LIG1        0.0293
     27 N          -4.9526    4.9310   -0.2372 N.pl3   1  LIG1       -0.3563
     28 H          -4.0328    4.9612   -0.6515 H       1  LIG1        0.1424
     29 H          -5.5524    5.6767   -0.5602 H       1  LIG1        0.1424
     30 C          -7.9074    5.6123    0.9296 C.ar    1  LIG1        0.0482
     31 C          -7.8713    4.6663   -0.1099 C.ar    1  LIG1        0.0249
     32 C          -8.7734    4.8070   -1.1559 C.ar    1  LIG1       -0.0280
     33 C          -9.6740    5.8686   -1.1849 C.ar    1  LIG1        0.0516
     34 C          -9.6362    6.7673   -0.1038 C.ar    1  LIG1        0.0936
     35 N          -8.7684    6.6307    0.8994 N.ar    1  LIG1       -0.2493
     36 H          -8.7741    4.0730   -1.9567 H       1  LIG1        0.0644
     37 C          -7.0316    5.5105    2.1497 C.3     1  LIG1       -0.0217
     38 H          -7.3302    6.2819    2.8592 H       1  LIG1        0.0293
     39 H          -5.9737    5.6378    1.9037 H       1  LIG1        0.0293
     40 H          -7.1367    4.5313    2.6260 H       1  LIG1        0.0293
     41 N         -10.5824    6.0090   -2.2289 N.pl3   1  LIG1       -0.3563
     42 H         -10.9403    6.9437   -2.3638 H       1  LIG1        0.1424
     43 H         -10.3164    5.5615   -3.0932 H       1  LIG1        0.1424
     44 C         -11.9286    7.8594    0.0644 C.ar    1  LIG1        0.0475
     45 C         -10.5304    7.9608   -0.0462 C.ar    1  LIG1        0.0249
     46 C          -9.9521    9.2251   -0.0628 C.ar    1  LIG1       -0.0286
     47 C         -10.7512   10.3639   -0.0058 C.ar    1  LIG1        0.0435
     48 C         -12.1307   10.1542    0.0634 C.ar    1  LIG1        0.0485
     49 N         -12.6939    8.9544    0.1075 N.ar    1  LIG1       -0.2577
     50 H          -8.8702    9.3132   -0.1056 H       1  LIG1        0.0643
     51 H         -12.8054   11.0094    0.0998 H       1  LIG1        0.0848
     52 C         -12.6375    6.5377    0.1926 C.3     1  LIG1       -0.0217
     53 H         -12.2099    5.9394    1.0023 H       1  LIG1        0.0293
     54 H         -12.5607    5.9441   -0.7227 H       1  LIG1        0.0293
     55 H         -13.6891    6.7255    0.4084 H       1  LIG1        0.0293
     56 N         -10.2112   11.6458    0.0312 N.pl3   1  LIG1       -0.3568
     57 H          -9.2911   11.7397   -0.3720 H       1  LIG1        0.1424
     58 H         -10.8342   12.3832   -0.2635 H       1  LIG1        0.1424
@<TRIPOS>BOND
     1    43    41    1
     2    14    13    1
     3    15    13    1
     4    42    41    1
     5    41    33    1
     6    13     4    1
     7    36    32    1
     8     7     3    1
     9    33    32   ar
    10    33    34   ar
    11    32    31   ar
    12     4     3   ar
    13     4     5   ar
    14     3     2   ar
    15    25    23    1
    16    54    52    1
    17    28    27    1
    18    29    27    1
    19    57    56    1
    20    22    18    1
    21    58    56    1
    22    26    23    1
    23    27    19    1
    24    18    19   ar
    25    18    17   ar
    26    19    20   ar
    27    17     5    1
    28    17    16   ar
    29     5     6   ar
    30    16    21   ar
    31    16    23    1
    32    20    21   ar
    33    20    31    1
    34    23    24    1
    35    31    30   ar
    36    50    46    1
    37    34    45    1
    38    34    35   ar
    39    46    45   ar
    40    46    47   ar
    41    45    44   ar
    42    47    56    1
    43    47    48   ar
    44     2     8    1
    45     2     1   ar
    46    48    51    1
    47    48    49   ar
    48    44    49   ar
    49    44    52    1
    50    52    55    1
    51    52    53    1
    52     6     1   ar
    53    35    30   ar
    54    30    37    1
    55     1     9    1
    56    39    37    1
    57    11     9    1
    58     9    10    1
    59     9    12    1
    60    37    40    1
    61    37    38    1
