@<TRIPOS>MOLECULE
mol_data/opt/cam/geoms/mol2/6ih6ih-6ih6ih-.out
 58 61 0 0 0
SMALL
GASTEIGER

@<TRIPOS>ATOM
      1 C          -4.2992   -2.1372    0.5188 C.ar    1  LIG1        0.0390
      2 C          -3.0365   -2.2571   -0.0570 C.ar    1  LIG1       -0.0389
      3 C          -2.4769   -1.1672   -0.7003 C.ar    1  LIG1       -0.0373
      4 C          -3.1744    0.0385   -0.7543 C.ar    1  LIG1        0.0510
      5 C          -4.4304    0.0829   -0.1180 C.ar    1  LIG1        0.0936
      6 N          -4.9684   -0.9838    0.4732 N.ar    1  LIG1       -0.2500
      7 H          -1.5007   -1.2454   -1.1711 H       1  LIG1        0.0637
      8 H          -2.5018   -3.1999   -0.0112 H       1  LIG1        0.0636
      9 C          -4.9720   -3.2835    1.2227 C.3     1  LIG1       -0.0223
     10 H          -4.4113   -4.2133    1.1040 H       1  LIG1        0.0292
     11 H          -5.9819   -3.4310    0.8324 H       1  LIG1        0.0292
     12 H          -5.0685   -3.0757    2.2924 H       1  LIG1        0.0292
     13 N          -2.6332    1.1527   -1.3893 N.pl3   1  LIG1       -0.3563
     14 H          -1.9555    0.9459   -2.1083 H       1  LIG1        0.1424
     15 H          -3.3088    1.8445   -1.6814 H       1  LIG1        0.1424
     16 C          -4.8896    2.5096    0.5089 C.ar    1  LIG1        0.0482
     17 C          -5.2687    1.3177   -0.1327 C.ar    1  LIG1        0.0249
     18 C          -6.4977    1.2818   -0.7773 C.ar    1  LIG1       -0.0280
     19 C          -7.3228    2.4033   -0.8039 C.ar    1  LIG1        0.0516
     20 C          -6.8611    3.5513   -0.1363 C.ar    1  LIG1        0.0936
     21 N          -5.6794    3.5841    0.4807 N.ar    1  LIG1       -0.2493
     22 H          -6.8153    0.3625   -1.2611 H       1  LIG1        0.0644
     23 C          -3.6156    2.6346    1.3009 C.3     1  LIG1       -0.0217
     24 H          -3.6069    3.6045    1.7978 H       1  LIG1        0.0293
     25 H          -2.7306    2.5491    0.6641 H       1  LIG1        0.0293
     26 H          -3.5466    1.8482    2.0583 H       1  LIG1        0.0293
     27 N          -8.5586    2.3693   -1.4419 N.pl3   1  LIG1       -0.3563
     28 H          -8.9212    3.2697   -1.7207 H       1  LIG1        0.1424
     29 H          -8.6509    1.6689   -2.1623 H       1  LIG1        0.1424
     30 C          -8.8893    4.9431    0.5222 C.ar    1  LIG1        0.0482
     31 C          -7.6469    4.8200   -0.1239 C.ar    1  LIG1        0.0249
     32 C          -7.1175    5.9420   -0.7464 C.ar    1  LIG1       -0.0280
     33 C          -7.8077    7.1517   -0.7462 C.ar    1  LIG1        0.0516
     34 C          -9.0423    7.1816   -0.0738 C.ar    1  LIG1        0.0936
     35 N          -9.5506    6.1013    0.5204 N.ar    1  LIG1       -0.2493
     36 H          -6.1496    5.8708   -1.2346 H       1  LIG1        0.0644
     37 C          -9.5184    3.8112    1.2894 C.3     1  LIG1       -0.0217
     38 H          -8.8298    3.4197    2.0440 H       1  LIG1        0.0293
     39 H          -9.7890    2.9775    0.6354 H       1  LIG1        0.0293
     40 H         -10.4141    4.1816    1.7875 H       1  LIG1        0.0293
     41 N          -7.2766    8.2791   -1.3641 N.pl3   1  LIG1       -0.3563
     42 H          -6.6066    8.0933   -2.0952 H       1  LIG1        0.1424
     43 H          -7.9511    8.9862   -1.6194 H       1  LIG1        0.1424
     44 C          -9.4770    9.5917    0.6168 C.ar    1  LIG1        0.0475
     45 C          -9.8833    8.4140   -0.0353 C.ar    1  LIG1        0.0249
     46 C         -11.1373    8.3816   -0.6351 C.ar    1  LIG1       -0.0286
     47 C         -11.9539    9.5092   -0.6167 C.ar    1  LIG1        0.0435
     48 C         -11.4402   10.6402    0.0227 C.ar    1  LIG1        0.0485
     49 N         -10.2581   10.6764    0.6226 N.ar    1  LIG1       -0.2577
     50 H         -11.4775    7.4628   -1.1041 H       1  LIG1        0.0643
     51 H         -12.0315   11.5550    0.0586 H       1  LIG1        0.0848
     52 C          -8.1848    9.6894    1.3826 C.3     1  LIG1       -0.0217
     53 H          -8.1661   10.6400    1.9153 H       1  LIG1        0.0293
     54 H          -7.3146    9.6324    0.7226 H       1  LIG1        0.0293
     55 H          -8.0946    8.8745    2.1067 H       1  LIG1        0.0293
     56 N         -13.2351    9.5042   -1.1594 N.pl3   1  LIG1       -0.3568
     57 H         -13.6041   10.4126   -1.3989 H       1  LIG1        0.1424
     58 H         -13.3950    8.8232   -1.8865 H       1  LIG1        0.1424
@<TRIPOS>BOND
     1    29    27    1
     2    14    13    1
     3    42    41    1
     4    58    56    1
     5    28    27    1
     6    15    13    1
     7    43    41    1
     8    27    19    1
     9    57    56    1
    10    13     4    1
    11    41    33    1
    12    22    18    1
    13    36    32    1
    14     7     3    1
    15    56    47    1
    16    50    46    1
    17    19    18   ar
    18    19    20   ar
    19    18    17   ar
    20     4     3   ar
    21     4     5   ar
    22    32    33   ar
    23    32    31   ar
    24    33    34   ar
    25     3     2   ar
    26    46    47   ar
    27    46    45   ar
    28    47    48   ar
    29    20    31    1
    30    20    21   ar
    31    17     5    1
    32    17    16   ar
    33    31    30   ar
    34     5     6   ar
    35    34    45    1
    36    34    35   ar
    37     2     8    1
    38     2     1   ar
    39    45    44   ar
    40    48    51    1
    41    48    49   ar
    42     6     1   ar
    43    21    16   ar
    44    16    23    1
    45     1     9    1
    46    35    30   ar
    47    30    37    1
    48    44    49   ar
    49    44    52    1
    50    39    37    1
    51    25    23    1
    52    54    52    1
    53    11     9    1
    54    10     9    1
    55     9    12    1
    56    37    40    1
    57    37    38    1
    58    23    24    1
    59    23    26    1
    60    52    53    1
    61    52    55    1
