@<TRIPOS>MOLECULE
mol_data/opt/cam/geoms/mol2/6ih6ih6ih6ih.out
 58 61 0 0 0
SMALL
GASTEIGER

@<TRIPOS>ATOM
      1 C          -3.5141   -1.5672    1.2916 C.ar    1  LIG1        0.0390
      2 C          -2.8577   -2.1320    0.2006 C.ar    1  LIG1       -0.0389
      3 C          -3.0679   -1.6087   -1.0630 C.ar    1  LIG1       -0.0373
      4 C          -3.9226   -0.5205   -1.2315 C.ar    1  LIG1        0.0510
      5 C          -4.5341   -0.0002   -0.0727 C.ar    1  LIG1        0.0936
      6 N          -4.3314   -0.5252    1.1352 N.ar    1  LIG1       -0.2500
      7 H          -2.5716   -2.0405   -1.9280 H       1  LIG1        0.0637
      8 H          -2.1940   -2.9787    0.3397 H       1  LIG1        0.0636
      9 C          -3.3465   -2.0937    2.6905 C.3     1  LIG1       -0.0223
     10 H          -2.6285   -2.9158    2.7270 H       1  LIG1        0.0292
     11 H          -4.3019   -2.4530    3.0831 H       1  LIG1        0.0292
     12 H          -3.0019   -1.3008    3.3593 H       1  LIG1        0.0292
     13 N          -4.1236    0.0418   -2.4913 N.pl3   1  LIG1       -0.3563
     14 H          -3.9640   -0.5935   -3.2601 H       1  LIG1        0.1424
     15 H          -4.9913    0.5494   -2.5919 H       1  LIG1        0.1424
     16 C          -6.7506    1.1510    0.3716 C.ar    1  LIG1        0.0482
     17 C          -5.4411    1.1817   -0.1424 C.ar    1  LIG1        0.0249
     18 C          -4.9918    2.3660   -0.7120 C.ar    1  LIG1       -0.0280
     19 C          -5.8063    3.4974   -0.7536 C.ar    1  LIG1        0.0516
     20 C          -7.0931    3.3760   -0.2033 C.ar    1  LIG1        0.0936
     21 N          -7.5291    2.2287    0.3218 N.ar    1  LIG1       -0.2493
     22 H          -3.9877    2.4150   -1.1245 H       1  LIG1        0.0644
     23 C          -7.3495   -0.0813    0.9923 C.3     1  LIG1       -0.0217
     24 H          -6.8464   -0.3274    1.9297 H       1  LIG1        0.0293
     25 H          -7.2449   -0.9533    0.3398 H       1  LIG1        0.0293
     26 H          -8.4072    0.0989    1.1835 H       1  LIG1        0.0293
     27 N          -5.3309    4.6948   -1.2857 N.pl3   1  LIG1       -0.3563
     28 H          -4.5820    4.5871   -1.9546 H       1  LIG1        0.1424
     29 H          -6.0483    5.3276   -1.6101 H       1  LIG1        0.1424
     30 C          -9.3354    4.4486   -0.7099 C.ar    1  LIG1        0.0482
     31 C          -8.0378    4.5283   -0.1717 C.ar    1  LIG1        0.0249
     32 C          -7.6498    5.7240    0.4192 C.ar    1  LIG1       -0.0280
     33 C          -8.5277    6.8049    0.4967 C.ar    1  LIG1        0.0516
     34 C          -9.8065    6.6278   -0.0572 C.ar    1  LIG1        0.0936
     35 N         -10.1671    5.4850   -0.6452 N.ar    1  LIG1       -0.2493
     36 H          -6.6507    5.8154    0.8367 H       1  LIG1        0.0644
     37 C          -9.8570    3.2127   -1.3905 C.3     1  LIG1       -0.0217
     38 H          -9.9834    2.3985   -0.6739 H       1  LIG1        0.0293
     39 H          -9.1655    2.8524   -2.1581 H       1  LIG1        0.0293
     40 H         -10.8171    3.4436   -1.8519 H       1  LIG1        0.0293
     41 N          -8.1473    7.9843    1.1341 N.pl3   1  LIG1       -0.3563
     42 H          -7.1505    8.1431    1.1627 H       1  LIG1        0.1424
     43 H          -8.6616    8.8051    0.8483 H       1  LIG1        0.1424
     44 C         -11.4604    8.1913   -1.1725 C.ar    1  LIG1        0.0475
     45 C         -10.8305    7.7108   -0.0097 C.ar    1  LIG1        0.0249
     46 C         -11.1954    8.2554    1.2175 C.ar    1  LIG1       -0.0286
     47 C         -12.1743    9.2461    1.2852 C.ar    1  LIG1        0.0435
     48 C         -12.7350    9.6515    0.0736 C.ar    1  LIG1        0.0485
     49 N         -12.3887    9.1473   -1.1050 N.ar    1  LIG1       -0.2577
     50 H         -10.7231    7.8945    2.1270 H       1  LIG1        0.0643
     51 H         -13.5032   10.4245    0.0647 H       1  LIG1        0.0848
     52 C         -11.1291    7.6756   -2.5462 C.3     1  LIG1       -0.0217
     53 H         -11.4548    6.6398   -2.6625 H       1  LIG1        0.0293
     54 H         -10.0512    7.6898   -2.7343 H       1  LIG1        0.0293
     55 H         -11.6302    8.3005   -3.2855 H       1  LIG1        0.0293
     56 N         -12.6110    9.7666    2.4992 N.pl3   1  LIG1       -0.3568
     57 H         -11.9484    9.7107    3.2581 H       1  LIG1        0.1424
     58 H         -13.0547   10.6715    2.4445 H       1  LIG1        0.1424
@<TRIPOS>BOND
     1    55    52    1
     2    14    13    1
     3    54    52    1
     4    53    52    1
     5    15    13    1
     6    52    44    1
     7    13     4    1
     8    39    37    1
     9    28    27    1
    10     7     3    1
    11    40    37    1
    12    29    27    1
    13    37    30    1
    14    37    38    1
    15    27    19    1
    16     4     3   ar
    17     4     5   ar
    18    44    49   ar
    19    44    45   ar
    20    22    18    1
    21    49    48   ar
    22     3     2   ar
    23    19    18   ar
    24    19    20   ar
    25    18    17   ar
    26    30    35   ar
    27    30    31   ar
    28    35    34   ar
    29    20    31    1
    30    20    21   ar
    31    31    32   ar
    32    17     5    1
    33    17    16   ar
    34     5     6   ar
    35    34    45    1
    36    34    33   ar
    37    45    46   ar
    38    51    48    1
    39    48    47   ar
    40     2     8    1
    41     2     1   ar
    42    21    16   ar
    43    25    23    1
    44    16    23    1
    45    32    33   ar
    46    32    36    1
    47    33    41    1
    48    43    41    1
    49    23    26    1
    50    23    24    1
    51    41    42    1
    52     6     1   ar
    53    46    47   ar
    54    46    50    1
    55    47    56    1
    56     1     9    1
    57    58    56    1
    58    56    57    1
    59     9    10    1
    60     9    11    1
    61     9    12    1
