@<TRIPOS>MOLECULE
mol_data/opt/cam/geoms/mol2/6ih6ih-6ih-6ih-.out
 58 61 0 0 0
SMALL
GASTEIGER

@<TRIPOS>ATOM
      1 C          -4.5674   -2.2548    0.1287 C.ar    1  LIG1        0.0390
      2 C          -3.1787   -2.3510    0.0812 C.ar    1  LIG1       -0.0389
      3 C          -2.4210   -1.1980   -0.0252 C.ar    1  LIG1       -0.0373
      4 C          -3.0521    0.0442   -0.0707 C.ar    1  LIG1        0.0510
      5 C          -4.4584    0.0532    0.0170 C.ar    1  LIG1        0.0936
      6 N          -5.1758   -1.0680    0.0903 N.ar    1  LIG1       -0.2500
      7 H          -1.3373   -1.2529   -0.0820 H       1  LIG1        0.0637
      8 H          -2.6962   -3.3220    0.1159 H       1  LIG1        0.0636
      9 C          -5.4525   -3.4668    0.2301 C.3     1  LIG1       -0.0223
     10 H          -4.8776   -4.3921    0.1526 H       1  LIG1        0.0292
     11 H          -6.2067   -3.4564   -0.5608 H       1  LIG1        0.0292
     12 H          -5.9878   -3.4741    1.1840 H       1  LIG1        0.0292
     13 N          -2.3151    1.2199   -0.1719 N.pl3   1  LIG1       -0.3563
     14 H          -1.4022    1.1170   -0.5900 H       1  LIG1        0.1424
     15 H          -2.8230    2.0116   -0.5403 H       1  LIG1        0.1424
     16 C          -5.1456    2.3250    0.9450 C.ar    1  LIG1        0.0482
     17 C          -5.2337    1.3268   -0.0412 C.ar    1  LIG1        0.0249
     18 C          -6.1134    1.5247   -1.0965 C.ar    1  LIG1       -0.0280
     19 C          -6.8681    2.6913   -1.1909 C.ar    1  LIG1        0.0516
     20 C          -6.6958    3.6457   -0.1717 C.ar    1  LIG1        0.0936
     21 N          -5.8612    3.4453    0.8487 N.ar    1  LIG1       -0.2493
     22 H          -6.2155    0.7503   -1.8515 H       1  LIG1        0.0644
     23 C          -4.2943    2.1750    2.1772 C.3     1  LIG1       -0.0217
     24 H          -4.5079    3.0026    2.8533 H       1  LIG1        0.0293
     25 H          -3.2277    2.1756    1.9358 H       1  LIG1        0.0293
     26 H          -4.5092    1.2331    2.6902 H       1  LIG1        0.0293
     27 N          -7.7728    2.8736   -2.2349 N.pl3   1  LIG1       -0.3563
     28 H          -7.9837    3.8379   -2.4492 H       1  LIG1        0.1424
     29 H          -7.5722    2.3304   -3.0620 H       1  LIG1        0.1424
     30 C          -6.8186    6.1773   -0.0995 C.ar    1  LIG1        0.0482
     31 C          -7.4588    4.9265   -0.1695 C.ar    1  LIG1        0.0249
     32 C          -8.8465    4.9065   -0.2213 C.ar    1  LIG1       -0.0280
     33 C          -9.5831    6.0902   -0.1826 C.ar    1  LIG1        0.0516
     34 C          -8.8573    7.2903   -0.1002 C.ar    1  LIG1        0.0936
     35 N          -7.5228    7.3057   -0.0742 N.ar    1  LIG1       -0.2493
     36 H          -9.3666    3.9545   -0.2833 H       1  LIG1        0.0644
     37 C          -5.3216    6.3195   -0.0579 C.3     1  LIG1       -0.0217
     38 H          -5.0655    7.3752   -0.1458 H       1  LIG1        0.0293
     39 H          -4.8415    5.7643   -0.8697 H       1  LIG1        0.0293
     40 H          -4.9193    5.9234    0.8768 H       1  LIG1        0.0293
     41 N         -10.9762    6.0594   -0.1869 N.pl3   1  LIG1       -0.3563
     42 H         -11.4178    6.9068   -0.5142 H       1  LIG1        0.1424
     43 H         -11.3761    5.2301   -0.6016 H       1  LIG1        0.1424
     44 C          -9.2669    9.6440   -0.9460 C.ar    1  LIG1        0.0475
     45 C          -9.5456    8.6114   -0.0317 C.ar    1  LIG1        0.0249
     46 C         -10.4777    8.8474    0.9738 C.ar    1  LIG1       -0.0286
     47 C         -11.1072   10.0875    1.0736 C.ar    1  LIG1        0.0435
     48 C         -10.7597   11.0413    0.1164 C.ar    1  LIG1        0.0485
     49 N          -9.8796   10.8256   -0.8542 N.ar    1  LIG1       -0.2577
     50 H         -10.7034    8.0637    1.6917 H       1  LIG1        0.0643
     51 H         -11.2217   12.0280    0.1431 H       1  LIG1        0.0848
     52 C          -8.2848    9.4856   -2.0743 C.3     1  LIG1       -0.0217
     53 H          -8.3633   10.3518   -2.7313 H       1  LIG1        0.0293
     54 H          -8.4758    8.5765   -2.6526 H       1  LIG1        0.0293
     55 H          -7.2638    9.4077   -1.6945 H       1  LIG1        0.0293
     56 N         -11.9947   10.3810    2.1040 N.pl3   1  LIG1       -0.3568
     57 H         -12.6299   11.1436    1.9207 H       1  LIG1        0.1424
     58 H         -12.4604    9.5855    2.5146 H       1  LIG1        0.1424
@<TRIPOS>BOND
     1    29    27    1
     2    53    52    1
     3    54    52    1
     4    28    27    1
     5    27    19    1
     6    52    55    1
     7    52    44    1
     8    22    18    1
     9    19    18   ar
    10    19    20   ar
    11    18    17   ar
    12    44    49   ar
    13    44    45   ar
    14    39    37    1
    15    49    48   ar
    16    43    41    1
    17    14    13    1
    18    11     9    1
    19    15    13    1
    20    42    41    1
    21    36    32    1
    22    32    33   ar
    23    32    31   ar
    24    41    33    1
    25    33    34   ar
    26    13     4    1
    27    20    31    1
    28    20    21   ar
    29    31    30   ar
    30    38    37    1
    31    34    35   ar
    32    34    45    1
    33    30    35   ar
    34    30    37    1
    35     7     3    1
    36     4     3   ar
    37     4     5   ar
    38    37    40    1
    39    17     5    1
    40    17    16   ar
    41    45    46   ar
    42     3     2   ar
    43     5     6   ar
    44     2     8    1
    45     2     1   ar
    46     6     1   ar
    47    48    51    1
    48    48    47   ar
    49     1     9    1
    50    10     9    1
    51     9    12    1
    52    21    16   ar
    53    16    23    1
    54    46    47   ar
    55    46    50    1
    56    47    56    1
    57    57    56    1
    58    25    23    1
    59    56    58    1
    60    23    26    1
    61    23    24    1
