@<TRIPOS>MOLECULE
mol_data/opt/cam/geoms/mol2/6ih6ih6ih.out
 44 46 0 0 0
SMALL
GASTEIGER

@<TRIPOS>ATOM
      1 C          -4.0118   -1.8567    0.9975 C.ar    1  LIG1        0.0390
      2 C          -3.0080   -2.1246    0.0699 C.ar    1  LIG1       -0.0389
      3 C          -2.8049   -1.2488   -0.9820 C.ar    1  LIG1       -0.0373
      4 C          -3.5964   -0.1073   -1.0987 C.ar    1  LIG1        0.0510
      5 C          -4.5796    0.0953   -0.1089 C.ar    1  LIG1        0.0936
      6 N          -4.7707   -0.7655    0.8902 N.ar    1  LIG1       -0.2500
      7 H          -2.0322   -1.4442   -1.7207 H       1  LIG1        0.0637
      8 H          -2.3961   -3.0150    0.1676 H       1  LIG1        0.0636
      9 C          -4.2969   -2.7696    2.1584 C.3     1  LIG1       -0.0223
     10 H          -3.6242   -3.6298    2.1677 H       1  LIG1        0.0292
     11 H          -5.3262   -3.1361    2.1150 H       1  LIG1        0.0292
     12 H          -4.1866   -2.2328    3.1044 H       1  LIG1        0.0292
     13 N          -3.3877    0.8043   -2.1327 N.pl3   1  LIG1       -0.3563
     14 H          -2.9590    0.4073   -2.9566 H       1  LIG1        0.1424
     15 H          -4.1902    1.3746   -2.3591 H       1  LIG1        0.1424
     16 C          -6.8610    1.2040   -0.1081 C.ar    1  LIG1        0.0482
     17 C          -5.4575    1.3009   -0.1278 C.ar    1  LIG1        0.0249
     18 C          -4.8915    2.5691   -0.1455 C.ar    1  LIG1       -0.0280
     19 C          -5.6901    3.7121   -0.1219 C.ar    1  LIG1        0.0516
     20 C          -7.0809    3.5167   -0.0896 C.ar    1  LIG1        0.0936
     21 N          -7.6210    2.2961   -0.0965 N.ar    1  LIG1       -0.2493
     22 H          -3.8100    2.6729   -0.1691 H       1  LIG1        0.0644
     23 C          -7.5832   -0.1155   -0.1071 C.3     1  LIG1       -0.0217
     24 H          -7.4166   -0.6482    0.8315 H       1  LIG1        0.0293
     25 H          -7.2290   -0.7705   -0.9087 H       1  LIG1        0.0293
     26 H          -8.6498    0.0669   -0.2372 H       1  LIG1        0.0293
     27 N          -5.1139    4.9807   -0.0922 N.pl3   1  LIG1       -0.3563
     28 H          -4.1829    5.0273   -0.4806 H       1  LIG1        0.1424
     29 H          -5.7099    5.7234   -0.4286 H       1  LIG1        0.1424
     30 C          -9.0498    4.8333   -0.9911 C.ar    1  LIG1        0.0475
     31 C          -8.0259    4.6693   -0.0401 C.ar    1  LIG1        0.0249
     32 C          -7.9127    5.6051    0.9833 C.ar    1  LIG1       -0.0286
     33 C          -8.8069    6.6717    1.0642 C.ar    1  LIG1        0.0435
     34 C          -9.7840    6.7421    0.0706 C.ar    1  LIG1        0.0485
     35 N          -9.8967    5.8616   -0.9168 N.ar    1  LIG1       -0.2577
     36 H          -7.1307    5.4931    1.7293 H       1  LIG1        0.0643
     37 H         -10.5088    7.5558    0.0812 H       1  LIG1        0.0848
     38 C          -9.2493    3.8834   -2.1403 C.3     1  LIG1       -0.0217
     39 H          -9.5865    2.9072   -1.7852 H       1  LIG1        0.0293
     40 H          -8.3192    3.7142   -2.6915 H       1  LIG1        0.0293
     41 H          -9.9950    4.3023   -2.8159 H       1  LIG1        0.0293
     42 N          -8.7652    7.5891    2.1093 N.pl3   1  LIG1       -0.3568
     43 H          -7.8667    7.6971    2.5558 H       1  LIG1        0.1424
     44 H          -9.2078    8.4763    1.9207 H       1  LIG1        0.1424
@<TRIPOS>BOND
     1    14    13    1
     2    41    38    1
     3    40    38    1
     4    15    13    1
     5    38    39    1
     6    38    30    1
     7    13     4    1
     8     7     3    1
     9     4     3   ar
    10     4     5   ar
    11    30    35   ar
    12    30    31   ar
    13     3     2   ar
    14    35    34   ar
    15    25    23    1
    16    28    27    1
    17    29    27    1
    18    26    23    1
    19    22    18    1
    20    18    17   ar
    21    18    19   ar
    22    17     5    1
    23    17    16   ar
    24    19    27    1
    25    19    20   ar
    26     5     6   ar
    27    16    23    1
    28    16    21   ar
    29    23    24    1
    30    21    20   ar
    31    20    31    1
    32    31    32   ar
    33     2     8    1
    34     2     1   ar
    35    34    37    1
    36    34    33   ar
    37     6     1   ar
    38    32    33   ar
    39    32    36    1
    40     1     9    1
    41    33    42    1
    42    44    42    1
    43    42    43    1
    44    11     9    1
    45     9    10    1
    46     9    12    1
