@<TRIPOS>MOLECULE
mol_data/opt/cam/geoms/mol2/6ih6ih-4ih6ih.out
 59 62 0 0 0
SMALL
GASTEIGER

@<TRIPOS>ATOM
      1 C          -4.4988   -2.2493   -0.0184 C.ar    1  LIG1        0.0390
      2 C          -3.1078   -2.3123   -0.0479 C.ar    1  LIG1       -0.0389
      3 C          -2.3758   -1.1392   -0.1047 C.ar    1  LIG1       -0.0373
      4 C          -3.0352    0.0887   -0.1192 C.ar    1  LIG1        0.0510
      5 C          -4.4427    0.0632   -0.0538 C.ar    1  LIG1        0.0936
      6 N          -5.1343   -1.0760   -0.0276 N.ar    1  LIG1       -0.2500
      7 H          -1.2904   -1.1672   -0.1461 H       1  LIG1        0.0637
      8 H          -2.6034   -3.2727   -0.0375 H       1  LIG1        0.0636
      9 C          -5.3570   -3.4837    0.0298 C.3     1  LIG1       -0.0223
     10 H          -4.7592   -4.3930   -0.0631 H       1  LIG1        0.0292
     11 H          -6.0958   -3.4673   -0.7755 H       1  LIG1        0.0292
     12 H          -5.9105   -3.5311    0.9721 H       1  LIG1        0.0292
     13 N          -2.3244    1.2840   -0.1702 N.pl3   1  LIG1       -0.3563
     14 H          -1.4068    1.2172   -0.5853 H       1  LIG1        0.1424
     15 H          -2.8489    2.0759   -0.5144 H       1  LIG1        0.1424
     16 C          -5.1978    2.2875    0.9339 C.ar    1  LIG1        0.0482
     17 C          -5.2455    1.3206   -0.0848 C.ar    1  LIG1        0.0249
     18 C          -6.1108    1.5343   -1.1492 C.ar    1  LIG1       -0.0280
     19 C          -6.8894    2.6868   -1.2197 C.ar    1  LIG1        0.0515
     20 C          -6.7552    3.6140   -0.1687 C.ar    1  LIG1        0.0922
     21 N          -5.9345    3.3960    0.8595 N.ar    1  LIG1       -0.2494
     22 H          -6.1835    0.7827   -1.9302 H       1  LIG1        0.0644
     23 C          -4.3664    2.1153    2.1772 C.3     1  LIG1       -0.0217
     24 H          -4.6028    2.9222    2.8707 H       1  LIG1        0.0293
     25 H          -3.2955    2.1347    1.9560 H       1  LIG1        0.0293
     26 H          -4.5794    1.1582    2.6623 H       1  LIG1        0.0293
     27 N          -7.7779    2.8802   -2.2747 N.pl3   1  LIG1       -0.3563
     28 H          -8.0423    3.8416   -2.4346 H       1  LIG1        0.1424
     29 H          -7.5339    2.3942   -3.1252 H       1  LIG1        0.1424
     30 C          -6.9061    6.1342   -0.0271 C.ar    1  LIG1       -0.0405
     31 C          -7.7164    7.2638    0.0082 C.ar    1  LIG1       -0.0487
     32 C          -7.5389    4.8850   -0.1448 C.ar    1  LIG1        0.0068
     33 C          -9.1092    7.2146   -0.0516 C.ar    1  LIG1        0.0048
     34 H          -7.2479    8.2404    0.0958 H       1  LIG1        0.0627
     35 C          -8.9280    4.8198   -0.2263 C.ar    1  LIG1       -0.0310
     36 C          -9.7303    5.9623   -0.1793 C.ar    1  LIG1        0.0330
     37 H          -9.4048    3.8479   -0.3187 H       1  LIG1        0.0643
     38 C          -5.4088    6.2757    0.0558 C.3     1  LIG1       -0.0391
     39 H          -5.1191    7.3278    0.0033 H       1  LIG1        0.0278
     40 H          -4.9078    5.7464   -0.7608 H       1  LIG1        0.0278
     41 H          -5.0247    5.8516    0.9856 H       1  LIG1        0.0278
     42 N         -11.1178    5.8435   -0.2213 N.pl3   1  LIG1       -0.3575
     43 H         -11.6100    6.6645   -0.5427 H       1  LIG1        0.1423
     44 H         -11.4630    4.9917   -0.6378 H       1  LIG1        0.1423
     45 C         -10.7233    8.8282    1.0590 C.ar    1  LIG1        0.0461
     46 C          -9.8963    8.4792   -0.0259 C.ar    1  LIG1        0.0066
     47 C          -9.7920    9.3690   -1.0907 C.ar    1  LIG1       -0.0301
     48 C         -10.5022   10.5683   -1.0817 C.ar    1  LIG1        0.0435
     49 C         -11.3083   10.8063    0.0329 C.ar    1  LIG1        0.0485
     50 N         -11.4104    9.9734    1.0610 N.ar    1  LIG1       -0.2577
     51 H          -9.1491    9.1215   -1.9313 H       1  LIG1        0.0643
     52 H         -11.8913   11.7251    0.0918 H       1  LIG1        0.0848
     53 C         -10.8576    7.9547    2.2764 C.3     1  LIG1       -0.0218
     54 H          -9.8787    7.7155    2.7015 H       1  LIG1        0.0293
     55 H         -11.3430    7.0047    2.0340 H       1  LIG1        0.0293
     56 H         -11.4524    8.4803    3.0232 H       1  LIG1        0.0293
     57 N         -10.3803   11.5059   -2.1034 N.pl3   1  LIG1       -0.3568
     58 H         -10.1137   11.1316   -3.0020 H       1  LIG1        0.1424
     59 H         -11.1473   12.1581   -2.1778 H       1  LIG1        0.1424
@<TRIPOS>BOND
     1    29    27    1
     2    58    57    1
     3    28    27    1
     4    27    19    1
     5    59    57    1
     6    57    48    1
     7    51    47    1
     8    22    18    1
     9    19    18   ar
    10    19    20   ar
    11    18    17   ar
    12    47    48   ar
    13    47    46   ar
    14    48    49   ar
    15    11     9    1
    16    40    38    1
    17    44    42    1
    18    14    13    1
    19    43    42    1
    20    15    13    1
    21    37    35    1
    22    35    36   ar
    23    35    32   ar
    24    42    36    1
    25    36    33   ar
    26    13     4    1
    27    20    32    1
    28    20    21   ar
    29     7     3    1
    30    32    30   ar
    31     4     3   ar
    32     4     5   ar
    33     3     2   ar
    34    17     5    1
    35    17    16   ar
    36    10     9    1
    37     5     6   ar
    38    33    46    1
    39    33    31   ar
    40     2     8    1
    41     2     1   ar
    42     6     1   ar
    43    30    31   ar
    44    30    38    1
    45    46    45   ar
    46     1     9    1
    47    39    38    1
    48    31    34    1
    49     9    12    1
    50    49    52    1
    51    49    50   ar
    52    38    41    1
    53    21    16   ar
    54    16    23    1
    55    45    50   ar
    56    45    53    1
    57    25    23    1
    58    55    53    1
    59    23    26    1
    60    23    24    1
    61    53    54    1
    62    53    56    1
