@<TRIPOS>MOLECULE
mol_data/opt/cam/geoms/mol2/6ih6ih6ih6ih-.out
 58 61 0 0 0
SMALL
GASTEIGER

@<TRIPOS>ATOM
      1 C          -3.4541   -1.5326    1.2045 C.ar    1  LIG1        0.0390
      2 C          -2.8365   -2.1115    0.0984 C.ar    1  LIG1       -0.0389
      3 C          -3.0855   -1.5999   -1.1629 C.ar    1  LIG1       -0.0373
      4 C          -3.9403   -0.5092   -1.3142 C.ar    1  LIG1        0.0510
      5 C          -4.5113    0.0255   -0.1414 C.ar    1  LIG1        0.0936
      6 N          -4.2716   -0.4884    1.0645 N.ar    1  LIG1       -0.2500
      7 H          -2.6200   -2.0428   -2.0393 H       1  LIG1        0.0637
      8 H          -2.1724   -2.9600    0.2243 H       1  LIG1        0.0636
      9 C          -3.2417   -2.0448    2.6026 C.3     1  LIG1       -0.0223
     10 H          -2.5403   -2.8816    2.6217 H       1  LIG1        0.0292
     11 H          -4.1881   -2.3778    3.0378 H       1  LIG1        0.0292
     12 H          -2.8536   -1.2514    3.2465 H       1  LIG1        0.0292
     13 N          -4.1804    0.0415   -2.5725 N.pl3   1  LIG1       -0.3563
     14 H          -4.0506   -0.6031   -3.3392 H       1  LIG1        0.1424
     15 H          -5.0487    0.5522   -2.6488 H       1  LIG1        0.1424
     16 C          -6.7076    1.1918    0.3607 C.ar    1  LIG1        0.0482
     17 C          -5.4145    1.2111   -0.1937 C.ar    1  LIG1        0.0249
     18 C          -4.9774    2.3879   -0.7877 C.ar    1  LIG1       -0.0280
     19 C          -5.7872    3.5229   -0.8146 C.ar    1  LIG1        0.0516
     20 C          -7.0574    3.4129   -0.2249 C.ar    1  LIG1        0.0936
     21 N          -7.4825    2.2726    0.3240 N.ar    1  LIG1       -0.2493
     22 H          -3.9861    2.4280   -1.2310 H       1  LIG1        0.0644
     23 C          -7.2925   -0.0312    1.0126 C.3     1  LIG1       -0.0217
     24 H          -6.7618   -0.2694    1.9367 H       1  LIG1        0.0293
     25 H          -7.2119   -0.9106    0.3667 H       1  LIG1        0.0293
     26 H          -8.3430    0.1563    1.2342 H       1  LIG1        0.0293
     27 N          -5.3223    4.7133   -1.3718 N.pl3   1  LIG1       -0.3563
     28 H          -4.5945    4.5955   -2.0618 H       1  LIG1        0.1424
     29 H          -6.0465    5.3462   -1.6803 H       1  LIG1        0.1424
     30 C          -9.3091    4.4877   -0.6780 C.ar    1  LIG1        0.0482
     31 C          -7.9970    4.5690   -0.1766 C.ar    1  LIG1        0.0249
     32 C          -7.5882    5.7701    0.3886 C.ar    1  LIG1       -0.0280
     33 C          -8.4626    6.8528    0.4811 C.ar    1  LIG1        0.0516
     34 C          -9.7643    6.6653   -0.0111 C.ar    1  LIG1        0.0936
     35 N         -10.1411    5.5232   -0.5915 N.ar    1  LIG1       -0.2493
     36 H          -6.5747    5.8666    0.7683 H       1  LIG1        0.0644
     37 C          -9.8484    3.2514   -1.3439 C.3     1  LIG1       -0.0217
     38 H          -9.9653    2.4408   -0.6215 H       1  LIG1        0.0293
     39 H          -9.1731    2.8842   -2.1226 H       1  LIG1        0.0293
     40 H         -10.8162    3.4852   -1.7873 H       1  LIG1        0.0293
     41 N          -8.0557    8.0484    1.0638 N.pl3   1  LIG1       -0.3563
     42 H          -7.0606    8.2154    1.0532 H       1  LIG1        0.1424
     43 H          -8.5938    8.8605    0.7972 H       1  LIG1        0.1424
     44 C         -11.2809    8.3066    1.2077 C.ar    1  LIG1        0.0475
     45 C         -10.7796    7.7581    0.0137 C.ar    1  LIG1        0.0249
     46 C         -11.2808    8.2243   -1.1968 C.ar    1  LIG1       -0.0286
     47 C         -12.2324    9.2402   -1.2187 C.ar    1  LIG1        0.0435
     48 C         -12.6344    9.7443    0.0208 C.ar    1  LIG1        0.0485
     49 N         -12.1865    9.2896    1.1832 N.ar    1  LIG1       -0.2577
     50 H         -10.9315    7.7758   -2.1223 H       1  LIG1        0.0643
     51 H         -13.3696   10.5477    0.0640 H       1  LIG1        0.0848
     52 C         -10.8810    7.7962    2.5663 C.3     1  LIG1       -0.0217
     53 H         -11.5157    8.2678    3.3163 H       1  LIG1        0.0293
     54 H          -9.8344    8.0176    2.7936 H       1  LIG1        0.0293
     55 H         -11.0020    6.7109    2.6298 H       1  LIG1        0.0293
     56 N         -12.7959    9.7010   -2.4047 N.pl3   1  LIG1       -0.3568
     57 H         -13.1960   10.6266   -2.3587 H       1  LIG1        0.1424
     58 H         -12.2316    9.5701   -3.2308 H       1  LIG1        0.1424
@<TRIPOS>BOND
     1    14    13    1
     2    58    56    1
     3    15    13    1
     4    13     4    1
     5    56    57    1
     6    56    47    1
     7    39    37    1
     8    50    46    1
     9    28    27    1
    10     7     3    1
    11    40    37    1
    12    29    27    1
    13    27    19    1
    14    37    30    1
    15    37    38    1
    16     4     3   ar
    17     4     5   ar
    18    22    18    1
    19    47    46   ar
    20    47    48   ar
    21    46    45   ar
    22     3     2   ar
    23    19    18   ar
    24    19    20   ar
    25    18    17   ar
    26    30    35   ar
    27    30    31   ar
    28    35    34   ar
    29    20    31    1
    30    20    21   ar
    31    17     5    1
    32    17    16   ar
    33    31    32   ar
    34     5     6   ar
    35    34    45    1
    36    34    33   ar
    37    45    44   ar
    38    48    51    1
    39    48    49   ar
    40     2     8    1
    41     2     1   ar
    42    21    16   ar
    43    16    23    1
    44    25    23    1
    45    32    33   ar
    46    32    36    1
    47    33    41    1
    48    43    41    1
    49    23    26    1
    50    23    24    1
    51    42    41    1
    52     6     1   ar
    53    49    44   ar
    54     1     9    1
    55    44    52    1
    56    52    55    1
    57    52    54    1
    58    52    53    1
    59     9    10    1
    60     9    11    1
    61     9    12    1
