@<TRIPOS>MOLECULE
mol_data/opt/cam/geoms/mol2/6ih6ih-6ih.out
 44 46 0 0 0
SMALL
GASTEIGER

@<TRIPOS>ATOM
      1 C          -4.4072   -2.1044    0.3301 C.ar    1  LIG1        0.0390
      2 C          -3.0794   -2.1706   -0.0849 C.ar    1  LIG1       -0.0389
      3 C          -2.4517   -1.0240   -0.5394 C.ar    1  LIG1       -0.0373
      4 C          -3.1482    0.1830   -0.5651 C.ar    1  LIG1        0.0510
      5 C          -4.4770    0.1680   -0.0969 C.ar    1  LIG1        0.0936
      6 N          -5.0765   -0.9502    0.3116 N.ar    1  LIG1       -0.2500
      7 H          -1.4217   -1.0580   -0.8838 H       1  LIG1        0.0637
      8 H          -2.5457   -3.1148   -0.0622 H       1  LIG1        0.0636
      9 C          -5.1558   -3.3134    0.8205 C.3     1  LIG1       -0.0223
     10 H          -4.5568   -4.2219    0.7282 H       1  LIG1        0.0292
     11 H          -6.0811   -3.4462    0.2540 H       1  LIG1        0.0292
     12 H          -5.4374   -3.1918    1.8703 H       1  LIG1        0.0292
     13 N          -2.5404    1.3532   -1.0107 N.pl3   1  LIG1       -0.3563
     14 H          -1.7734    1.2168   -1.6527 H       1  LIG1        0.1424
     15 H          -3.1797    2.0722   -1.3187 H       1  LIG1        0.1424
     16 C          -5.0363    2.5217    0.7019 C.ar    1  LIG1        0.0482
     17 C          -5.3176    1.4013   -0.0990 C.ar    1  LIG1        0.0249
     18 C          -6.4507    1.4356   -0.9003 C.ar    1  LIG1       -0.0280
     19 C          -7.2748    2.5580   -0.9241 C.ar    1  LIG1        0.0516
     20 C          -6.9147    3.6320   -0.0905 C.ar    1  LIG1        0.0936
     21 N          -5.8246    3.5974    0.6766 N.ar    1  LIG1       -0.2493
     22 H          -6.6939    0.5708   -1.5111 H       1  LIG1        0.0644
     23 C          -3.8776    2.5622    1.6621 C.3     1  LIG1       -0.0217
     24 H          -3.9482    3.4730    2.2564 H       1  LIG1        0.0293
     25 H          -2.9164    2.5474    1.1405 H       1  LIG1        0.0293
     26 H          -3.8945    1.6987    2.3336 H       1  LIG1        0.0293
     27 N          -8.4142    2.5930   -1.7205 N.pl3   1  LIG1       -0.3563
     28 H          -8.7507    3.5174   -1.9487 H       1  LIG1        0.1424
     29 H          -8.4039    1.9707   -2.5146 H       1  LIG1        0.1424
     30 C          -9.0287    4.9575    0.4081 C.ar    1  LIG1        0.0475
     31 C          -7.7042    4.8981   -0.0605 C.ar    1  LIG1        0.0249
     32 C          -7.0901    6.0740   -0.4767 C.ar    1  LIG1       -0.0286
     33 C          -7.7913    7.2769   -0.4595 C.ar    1  LIG1        0.0435
     34 C          -9.1136    7.2209   -0.0120 C.ar    1  LIG1        0.0485
     35 N          -9.7030    6.1116    0.4132 N.ar    1  LIG1       -0.2577
     36 H          -6.0538    6.0454   -0.8012 H       1  LIG1        0.0643
     37 H          -9.7136    8.1303    0.0133 H       1  LIG1        0.0848
     38 C          -9.7424    3.7588    0.9738 C.3     1  LIG1       -0.0217
     39 H          -9.1527    3.2881    1.7658 H       1  LIG1        0.0293
     40 H          -9.9258    2.9968    0.2111 H       1  LIG1        0.0293
     41 H         -10.6959    4.0846    1.3890 H       1  LIG1        0.0293
     42 N          -7.1996    8.4836   -0.8195 N.pl3   1  LIG1       -0.3568
     43 H          -6.4127    8.4099   -1.4467 H       1  LIG1        0.1424
     44 H          -7.8418    9.2114   -1.0965 H       1  LIG1        0.1424
@<TRIPOS>BOND
     1    29    27    1
     2    28    27    1
     3    27    19    1
     4    14    13    1
     5    22    18    1
     6    43    42    1
     7    15    13    1
     8    44    42    1
     9    13     4    1
    10    19    18   ar
    11    19    20   ar
    12    18    17   ar
    13     7     3    1
    14    42    33    1
    15    36    32    1
    16     4     3   ar
    17     4     5   ar
    18     3     2   ar
    19    32    33   ar
    20    32    31   ar
    21    33    34   ar
    22    17     5    1
    23    17    16   ar
    24     5     6   ar
    25    20    31    1
    26    20    21   ar
    27     2     8    1
    28     2     1   ar
    29    31    30   ar
    30    34    37    1
    31    34    35   ar
    32    40    38    1
    33    11     9    1
    34     6     1   ar
    35     1     9    1
    36    30    35   ar
    37    30    38    1
    38    21    16   ar
    39    16    23    1
    40    10     9    1
    41     9    12    1
    42    38    41    1
    43    38    39    1
    44    25    23    1
    45    23    24    1
    46    23    26    1
