@<TRIPOS>MOLECULE
mol_data/opt/cam/geoms/mol2/6ii.out
 17 17 0 0 0
SMALL
GASTEIGER

@<TRIPOS>ATOM
      1 C          -4.5703   -2.0438    0.0026 C.ar    1  LIG1        0.0382
      2 C          -3.1760   -2.0221    0.0014 C.ar    1  LIG1       -0.0404
      3 C          -2.5160   -0.8033   -0.0012 C.ar    1  LIG1       -0.0557
      4 C          -3.2502    0.3797   -0.0026 C.ar    1  LIG1       -0.0323
      5 C          -4.6369    0.2451   -0.0013 C.ar    1  LIG1        0.0308
      6 N          -5.2868   -0.9160    0.0013 N.ar    1  LIG1       -0.2599
      7 H          -1.4296   -0.7705   -0.0021 H       1  LIG1        0.0621
      8 H          -2.6188   -2.9529    0.0026 H       1  LIG1        0.0635
      9 H          -5.2607    1.1382   -0.0023 H       1  LIG1        0.0832
     10 C          -5.3457   -3.3322    0.0055 C.3     1  LIG1       -0.0224
     11 H          -4.6864   -4.2026    0.0063 H       1  LIG1        0.0292
     12 H          -5.9943   -3.3859   -0.8728 H       1  LIG1        0.0292
     13 H          -5.9928   -3.3830    0.8851 H       1  LIG1        0.0292
     14 C          -2.5915    1.7313   -0.0055 C.3     1  LIG1       -0.0383
     15 H          -3.3348    2.5316   -0.0061 H       1  LIG1        0.0278
     16 H          -1.9576    1.8646   -0.8874 H       1  LIG1        0.0278
     17 H          -1.9559    1.8675    0.8748 H       1  LIG1        0.0278
@<TRIPOS>BOND
     1    16    14    1
     2    12    10    1
     3    15    14    1
     4    14     4    1
     5    14    17    1
     6     4     5   ar
     7     4     3   ar
     8     9     5    1
     9     7     3    1
    10     5     6   ar
    11     3     2   ar
    12     6     1   ar
    13     2     8    1
    14     2     1   ar
    15     1    10    1
    16    10    11    1
    17    10    13    1
