@<TRIPOS>MOLECULE
mol_data/opt/cam/geoms/mol2/6ii13fd6fd-6hf-4af4he-12hf-6fi-.out
 98 105 0 0 0
SMALL
GASTEIGER

@<TRIPOS>ATOM
      1 C          -3.9026   -0.7113   -2.0901 C.ar    1  LIG1        0.0390
      2 C          -2.5470   -0.9780   -1.9288 C.ar    1  LIG1       -0.0404
      3 C          -1.8416   -0.2641   -0.9740 C.ar    1  LIG1       -0.0551
      4 C          -2.4546    0.7195   -0.2030 C.ar    1  LIG1       -0.0229
      5 C          -3.8120    0.9595   -0.4775 C.ar    1  LIG1        0.0939
      6 N          -4.5038    0.2395   -1.3767 N.ar    1  LIG1       -0.2500
      7 H          -0.7917   -0.4836   -0.8032 H       1  LIG1        0.0621
      8 H          -2.0628   -1.7443   -2.5232 H       1  LIG1        0.0635
      9 C          -4.7594   -1.4693   -3.0648 C.3     1  LIG1       -0.0223
     10 H          -4.1819   -2.2200   -3.6071 H       1  LIG1        0.0292
     11 H          -5.2098   -0.7863   -3.7897 H       1  LIG1        0.0292
     12 H          -5.5775   -1.9727   -2.5424 H       1  LIG1        0.0292
     13 C          -1.6768    1.4131    0.8798 C.3     1  LIG1       -0.0376
     14 H          -2.2413    1.4517    1.8139 H       1  LIG1        0.0278
     15 H          -1.4369    2.4446    0.6179 H       1  LIG1        0.0278
     16 H          -0.7433    0.8787    1.0675 H       1  LIG1        0.0278
     17 C          -4.6599    1.9565    0.1961 C.ar    1  LIG1        0.1089
     18 C          -4.5049    3.1281    0.9140 C.ar    1  LIG1        0.1616
     19 C          -5.8039    3.6240    1.2311 C.ar    1  LIG1        0.1191
     20 C          -6.7379    2.7499    0.6813 C.ar    1  LIG1        0.0734
     21 N          -6.0267    1.7785    0.0620 N.ar    1  LIG1       -0.3488
     22 H          -6.3692    0.9464   -0.4028 H       1  LIG1        0.1661
     23 O          -3.3470    3.7511    1.2185 O.3     1  LIG1       -0.5034
     24 H          -3.5422    4.5635    1.7055 H       1  LIG1        0.2923
     25 N          -6.1336    5.8309    2.5126 N.1     1  LIG1       -0.1907
     26 C          -6.0316    4.8342    1.9298 C.1     1  LIG1        0.1050
     27 C          -8.9732    2.4361   -0.4268 C.ar    1  LIG1        0.2223
     28 C          -8.1987    2.7889    0.6987 C.ar    1  LIG1        0.0623
     29 C          -8.9083    3.1603    1.8296 C.ar    1  LIG1       -0.0280
     30 C         -10.3037    3.1683    1.8326 C.ar    1  LIG1        0.0786
     31 C         -10.9886    2.8045    0.6520 C.ar    1  LIG1        0.0955
     32 N         -10.2894    2.4414   -0.4314 N.ar    1  LIG1       -0.2111
     33 H          -8.3772    3.4213    2.7380 H       1  LIG1        0.0639
     34 O          -8.4171    2.0562   -1.5933 O.3     1  LIG1       -0.4919
     35 H          -7.4774    2.2870   -1.6094 H       1  LIG1        0.2937
     36 N         -11.4210    3.6975    4.1062 N.1     1  LIG1       -0.1908
     37 C         -10.9544    3.4655    3.0733 C.1     1  LIG1        0.1013
     38 C         -13.1480    1.8707   -0.3054 C.ar    1  LIG1        0.1264
     39 C         -12.4586    2.8017    0.5231 C.ar    1  LIG1        0.0447
     40 C         -13.2397    3.7276    1.2065 C.ar    1  LIG1       -0.0055
     41 C         -14.6208    3.7294    1.0911 C.ar    1  LIG1        0.1435
     42 C         -15.2136    2.7742    0.2592 C.ar    1  LIG1        0.1145
     43 N         -14.4758    1.8722   -0.3949 N.ar    1  LIG1       -0.2281
     44 H         -12.7959    4.4779    1.8480 H       1  LIG1        0.0662
     45 N         -12.5040    0.8893   -1.0148 N.pl3   1  LIG1       -0.3426
     46 H         -13.1058    0.4269   -1.6792 H       1  LIG1        0.1437
     47 H         -11.5688    1.1163   -1.3227 H       1  LIG1        0.1437
     48 O         -15.3082    4.6702    1.8015 O.3     1  LIG1       -0.5046
     49 H         -16.2290    4.3920    1.8904 H       1  LIG1        0.2922
     50 C         -17.5110    3.8050    0.0144 C.ar    1  LIG1       -0.0516
     51 C         -18.8794    3.6510   -0.1768 C.ar    1  LIG1       -0.0499
     52 C         -16.6840    2.6795    0.0718 C.ar    1  LIG1        0.0075
     53 C         -19.4749    2.3971   -0.3142 C.ar    1  LIG1        0.0254
     54 H         -19.5125    4.5306   -0.2252 H       1  LIG1        0.0625
     55 C         -17.2610    1.4192   -0.0810 C.ar    1  LIG1       -0.0103
     56 C         -18.6287    1.2740   -0.2659 C.ar    1  LIG1        0.1252
     57 H         -16.6128    0.5482   -0.0701 H       1  LIG1        0.0661
     58 H         -17.0893    4.8021    0.0716 H       1  LIG1        0.0624
     59 O         -19.1954    0.0469   -0.4121 O.3     1  LIG1       -0.5061
     60 H         -18.5077   -0.6272   -0.3561 H       1  LIG1        0.2922
     61 C         -21.6346    2.9503   -1.5041 C.ar    1  LIG1        0.0332
     62 C         -23.0218    2.8143   -1.5962 C.ar    1  LIG1       -0.0285
     63 C         -20.9446    2.2574   -0.4880 C.ar    1  LIG1        0.0074
     64 C         -23.7521    2.0052   -0.7274 C.ar    1  LIG1        0.0364
     65 H         -23.5539    3.3855   -2.3509 H       1  LIG1        0.0643
     66 C         -21.6775    1.4433    0.3668 C.ar    1  LIG1       -0.0361
     67 C         -23.0623    1.2901    0.2758 C.ar    1  LIG1        0.0361
     68 H         -21.1509    0.8864    1.1322 H       1  LIG1        0.0637
     69 N         -20.9742    3.7992   -2.3779 N.pl3   1  LIG1       -0.3575
     70 H         -19.9894    3.6226   -2.5093 H       1  LIG1        0.1423
     71 H         -21.4641    4.0112   -3.2335 H       1  LIG1        0.1423
     72 C         -23.7033    0.3788    1.1742 C.1     1  LIG1       -0.0689
     73 C         -24.1745   -0.4197    1.9445 C.1     1  LIG1       -0.1139
     74 H         -24.6275   -1.1007    2.6283 H       1  LIG1        0.1232
     75 C         -25.1919    1.9226   -0.9248 C.ar    1  LIG1        0.1612
     76 C         -25.9571    1.9843   -2.0578 C.ar    1  LIG1        0.1138
     77 C         -27.3108    1.8666   -1.6286 C.ar    1  LIG1        0.1846
     78 C         -27.3115    1.7609   -0.2687 C.ar    1  LIG1        0.1839
     79 O         -26.0171    1.7831    0.1662 O.2     1  LIG1       -0.4489
     80 N         -25.5752    2.1418   -3.3865 N.pl3   1  LIG1       -0.3522
     81 H         -24.6866    1.7107   -3.6059 H       1  LIG1        0.1425
     82 H         -26.3013    1.8384   -4.0233 H       1  LIG1        0.1425
     83 O         -28.3453    1.8436   -2.5155 O.3     1  LIG1       -0.5020
     84 H         -29.0761    1.3408   -2.1336 H       1  LIG1        0.2924
     85 C         -28.2074    0.9593    1.9509 C.ar    1  LIG1        0.2234
     86 C         -28.3844    1.6045    0.6998 C.ar    1  LIG1        0.0825
     87 C         -29.6671    2.0604    0.4024 C.ar    1  LIG1       -0.0415
     88 C         -30.7290    1.8536    1.2793 C.ar    1  LIG1       -0.0314
     89 C         -30.4247    1.1793    2.4550 C.ar    1  LIG1        0.0343
     90 N         -29.2081    0.7527    2.7879 N.ar    1  LIG1       -0.2206
     91 H         -29.8302    2.6110   -0.5208 H       1  LIG1        0.0629
     92 H         -31.2111    0.9760    3.1802 H       1  LIG1        0.0833
     93 O         -27.0181    0.5089    2.3757 O.3     1  LIG1       -0.4919
     94 H         -26.2992    0.7664    1.7751 H       1  LIG1        0.2937
     95 C         -32.1195    2.3419    0.9802 C.3     1  LIG1       -0.0383
     96 H         -32.8086    2.0729    1.7838 H       1  LIG1        0.0278
     97 H         -32.5091    1.9111    0.0525 H       1  LIG1        0.0278
     98 H         -32.1480    3.4303    0.8700 H       1  LIG1        0.0278
@<TRIPOS>BOND
     1    82    80    1
     2    11     9    1
     3    10     9    1
     4    81    80    1
     5    80    76    1
     6    71    69    1
     7     9    12    1
     8     9     1    1
     9     8     2    1
    10    83    84    1
    11    83    77    1
    12    70    69    1
    13    69    61    1
    14    65    62    1
    15     1     2   ar
    16     1     6   ar
    17    76    77   ar
    18    76    75   ar
    19     2     3   ar
    20    46    45    1
    21    77    78   ar
    22    35    34    1
    23    62    61   ar
    24    62    64   ar
    25    34    27    1
    26    61    63   ar
    27     6     5   ar
    28    47    45    1
    29    45    38    1
    30     3     7    1
    31     3     4   ar
    32    75    64    1
    33    75    79   ar
    34    64    67   ar
    35    91    87    1
    36    63    53    1
    37    63    66   ar
    38     5     4   ar
    39     5    17    1
    40    32    27   ar
    41    32    31   ar
    42    27    28   ar
    43    59    60    1
    44    59    56    1
    45    22    21    1
    46    43    38   ar
    47    43    42   ar
    48    53    56   ar
    49    53    51   ar
    50    38    39   ar
    51    78    79   ar
    52    78    86    1
    53    56    55   ar
    54    54    51    1
    55     4    13    1
    56    51    50   ar
    57    55    57    1
    58    55    52   ar
    59    50    58    1
    60    50    52   ar
    61    97    95    1
    62    21    17   ar
    63    21    20   ar
    64    52    42    1
    65    17    18   ar
    66    42    41   ar
    67    67    66   ar
    68    67    72    1
    69    66    68    1
    70    87    86   ar
    71    87    88   ar
    72    39    31    1
    73    39    40   ar
    74    15    13    1
    75    31    30   ar
    76    20    28    1
    77    20    19   ar
    78    28    29   ar
    79    86    85   ar
    80    98    95    1
    81    13    16    1
    82    13    14    1
    83    18    23    1
    84    18    19   ar
    85    95    88    1
    86    95    96    1
    87    41    40   ar
    88    41    48    1
    89    72    73    3
    90    40    44    1
    91    23    24    1
    92    19    26    1
    93    88    89   ar
    94    94    93    1
    95    48    49    1
    96    29    30   ar
    97    29    33    1
    98    30    37    1
    99    26    25    3
   100    73    74    1
   101    85    93    1
   102    85    90   ar
   103    89    90   ar
   104    89    92    1
   105    37    36    3
