@<TRIPOS>MOLECULE
mol_data/opt/cam/geoms/mol2/6ii6ii6ii6ii.out
 62 65 0 0 0
SMALL
GASTEIGER

@<TRIPOS>ATOM
      1 C          -3.5137   -1.4228   -1.6978 C.ar    1  LIG1        0.0389
      2 C          -2.8824   -2.1027   -0.6598 C.ar    1  LIG1       -0.0404
      3 C          -3.1005   -1.6833    0.6424 C.ar    1  LIG1       -0.0551
      4 C          -3.9225   -0.5916    0.9056 C.ar    1  LIG1       -0.0244
      5 C          -4.5007    0.0403   -0.2078 C.ar    1  LIG1        0.0759
      6 N          -4.3066   -0.3756   -1.4623 N.ar    1  LIG1       -0.2516
      7 H          -2.6351   -2.2127    1.4692 H       1  LIG1        0.0621
      8 H          -2.2426   -2.9527   -0.8706 H       1  LIG1        0.0635
      9 C          -3.3438   -1.8253   -3.1363 C.3     1  LIG1       -0.0223
     10 H          -2.6943   -2.6968   -3.2383 H       1  LIG1        0.0292
     11 H          -2.9158   -1.0011   -3.7129 H       1  LIG1        0.0292
     12 H          -4.3143   -2.0584   -3.5821 H       1  LIG1        0.0292
     13 C          -4.1777   -0.1496    2.3229 C.3     1  LIG1       -0.0377
     14 H          -5.2146    0.1597    2.4687 H       1  LIG1        0.0278
     15 H          -3.5474    0.6992    2.6064 H       1  LIG1        0.0278
     16 H          -3.9619   -0.9620    3.0206 H       1  LIG1        0.0278
     17 C          -6.7162    1.2372   -0.4884 C.ar    1  LIG1        0.0481
     18 C          -5.3776    1.2395   -0.0616 C.ar    1  LIG1        0.0219
     19 C          -4.8813    2.4123    0.4889 C.ar    1  LIG1       -0.0459
     20 C          -5.6676    3.5563    0.5991 C.ar    1  LIG1       -0.0238
     21 C          -6.9829    3.4541    0.1311 C.ar    1  LIG1        0.0759
     22 N          -7.4807    2.3214   -0.3788 N.ar    1  LIG1       -0.2509
     23 H          -3.8514    2.4430    0.8346 H       1  LIG1        0.0628
     24 C          -7.3642    0.0174   -1.0823 C.3     1  LIG1       -0.0217
     25 H          -7.2537   -0.8528   -0.4283 H       1  LIG1        0.0293
     26 H          -6.8955   -0.2392   -2.0348 H       1  LIG1        0.0293
     27 H          -8.4238    0.2177   -1.2385 H       1  LIG1        0.0293
     28 C          -5.1035    4.8129    1.2090 C.3     1  LIG1       -0.0377
     29 H          -5.8513    5.3455    1.7994 H       1  LIG1        0.0278
     30 H          -4.7410    5.5089    0.4457 H       1  LIG1        0.0278
     31 H          -4.2579    4.5766    1.8594 H       1  LIG1        0.0278
     32 C          -9.1337    4.5687    0.8749 C.ar    1  LIG1        0.0481
     33 C          -7.9251    4.6106    0.1595 C.ar    1  LIG1        0.0219
     34 C          -7.6378    5.7697   -0.5470 C.ar    1  LIG1       -0.0459
     35 C          -8.5182    6.8484   -0.5678 C.ar    1  LIG1       -0.0238
     36 C          -9.7006    6.7009    0.1666 C.ar    1  LIG1        0.0759
     37 N          -9.9782    5.5978    0.8713 N.ar    1  LIG1       -0.2509
     38 H          -6.7081    5.8347   -1.1060 H       1  LIG1        0.0628
     39 C          -9.5395    3.3725    1.6903 C.3     1  LIG1       -0.0217
     40 H          -8.7550    3.0858    2.3971 H       1  LIG1        0.0293
     41 H          -9.7148    2.5099    1.0437 H       1  LIG1        0.0293
     42 H         -10.4502    3.6090    2.2397 H       1  LIG1        0.0293
     43 C          -8.1764    8.0968   -1.3382 C.3     1  LIG1       -0.0377
     44 H          -8.5046    8.9967   -0.8143 H       1  LIG1        0.0278
     45 H          -8.6505    8.1087   -2.3248 H       1  LIG1        0.0278
     46 H          -7.0975    8.1659   -1.4960 H       1  LIG1        0.0278
     47 C         -11.1190    8.3892    1.4136 C.ar    1  LIG1        0.0474
     48 C         -10.7429    7.7687    0.2074 C.ar    1  LIG1        0.0219
     49 C         -11.3914    8.1569   -0.9570 C.ar    1  LIG1       -0.0465
     50 C         -12.3881    9.1299   -0.9275 C.ar    1  LIG1       -0.0317
     51 C         -12.6751    9.6750    0.3169 C.ar    1  LIG1        0.0308
     52 N         -12.0661    9.3262    1.4498 N.ar    1  LIG1       -0.2592
     53 H         -11.1275    7.6823   -1.8989 H       1  LIG1        0.0628
     54 H         -13.4439   10.4413    0.4068 H       1  LIG1        0.0832
     55 C         -10.4727    8.0379    2.7251 C.3     1  LIG1       -0.0217
     56 H          -9.3826    8.1134    2.6672 H       1  LIG1        0.0293
     57 H         -10.7052    7.0078    3.0041 H       1  LIG1        0.0293
     58 H         -10.8397    8.7175    3.4937 H       1  LIG1        0.0293
     59 C         -13.1158    9.5627   -2.1699 C.3     1  LIG1       -0.0383
     60 H         -13.8568   10.3326   -1.9434 H       1  LIG1        0.0278
     61 H         -13.6392    8.7235   -2.6379 H       1  LIG1        0.0278
     62 H         -12.4268    9.9719   -2.9152 H       1  LIG1        0.0278
@<TRIPOS>BOND
     1    11     9    1
     2    12     9    1
     3    10     9    1
     4     9     1    1
     5    62    59    1
     6    61    59    1
     7    45    43    1
     8    59    60    1
     9    59    50    1
    10    26    24    1
    11    53    49    1
    12     1     6   ar
    13     1     2   ar
    14    46    43    1
    15     6     5   ar
    16    43    44    1
    17    43    35    1
    18    27    24    1
    19    38    34    1
    20    24    17    1
    21    24    25    1
    22    49    50   ar
    23    49    48   ar
    24    50    51   ar
    25     8     2    1
    26     2     3   ar
    27    35    34   ar
    28    35    36   ar
    29    34    33   ar
    30    17    22   ar
    31    17    18   ar
    32    22    21   ar
    33     5    18    1
    34     5     4   ar
    35    18    19   ar
    36    21    33    1
    37    21    20   ar
    38    33    32   ar
    39    36    48    1
    40    36    37   ar
    41    48    47   ar
    42    51    54    1
    43    51    52   ar
    44    30    28    1
    45    19    20   ar
    46    19    23    1
    47    20    28    1
    48     3     4   ar
    49     3     7    1
    50    37    32   ar
    51    32    39    1
    52     4    13    1
    53    41    39    1
    54    28    29    1
    55    28    31    1
    56    47    52   ar
    57    47    55    1
    58    39    42    1
    59    39    40    1
    60    13    14    1
    61    13    15    1
    62    13    16    1
    63    56    55    1
    64    55    57    1
    65    55    58    1
