@<TRIPOS>MOLECULE
mol_data/opt/cam/geoms/mol2/6ii6ii.out
 32 33 0 0 0
SMALL
GASTEIGER

@<TRIPOS>ATOM
      1 C          -4.4646   -1.9929   -0.7203 C.ar    1  LIG1        0.0389
      2 C          -3.1661   -2.1111   -0.2330 C.ar    1  LIG1       -0.0404
      3 C          -2.5934   -1.0257    0.4101 C.ar    1  LIG1       -0.0551
      4 C          -3.2992    0.1651    0.5510 C.ar    1  LIG1       -0.0244
      5 C          -4.5962    0.1935    0.0121 C.ar    1  LIG1        0.0759
      6 N          -5.1557   -0.8584   -0.5913 N.ar    1  LIG1       -0.2516
      7 H          -1.5884   -1.1022    0.8162 H       1  LIG1        0.0621
      8 H          -2.6207   -3.0418   -0.3462 H       1  LIG1        0.0635
      9 C          -5.1644   -3.1288   -1.4132 C.3     1  LIG1       -0.0223
     10 H          -4.5285   -4.0136   -1.4822 H       1  LIG1        0.0292
     11 H          -5.4621   -2.8319   -2.4222 H       1  LIG1        0.0292
     12 H          -6.0777   -3.3965   -0.8752 H       1  LIG1        0.0292
     13 C          -2.6871    1.3398    1.2683 C.3     1  LIG1       -0.0377
     14 H          -3.4152    1.8475    1.9043 H       1  LIG1        0.0278
     15 H          -2.2969    2.0870    0.5703 H       1  LIG1        0.0278
     16 H          -1.8541    1.0128    1.8950 H       1  LIG1        0.0278
     17 C          -6.6711    1.4409    0.7587 C.ar    1  LIG1        0.0474
     18 C          -5.4415    1.4231    0.0741 C.ar    1  LIG1        0.0219
     19 C          -5.0390    2.5807   -0.5776 C.ar    1  LIG1       -0.0465
     20 C          -5.8337    3.7248   -0.5548 C.ar    1  LIG1       -0.0317
     21 C          -7.0238    3.6293    0.1544 C.ar    1  LIG1        0.0308
     22 N          -7.4337    2.5335    0.7925 N.ar    1  LIG1       -0.2592
     23 H          -4.0994    2.5865   -1.1246 H       1  LIG1        0.0628
     24 H          -7.6890    4.4897    0.2120 H       1  LIG1        0.0832
     25 C          -7.1916    0.2362    1.4927 C.3     1  LIG1       -0.0217
     26 H          -6.4579   -0.1446    2.2098 H       1  LIG1        0.0293
     27 H          -7.4052   -0.5761    0.7944 H       1  LIG1        0.0293
     28 H          -8.1024    0.5118    2.0234 H       1  LIG1        0.0293
     29 C          -5.4307    4.9894   -1.2610 C.3     1  LIG1       -0.0383
     30 H          -6.1765    5.7744   -1.1173 H       1  LIG1        0.0278
     31 H          -5.3210    4.8270   -2.3376 H       1  LIG1        0.0278
     32 H          -4.4730    5.3673   -0.8903 H       1  LIG1        0.0278
@<TRIPOS>BOND
     1    11     9    1
     2    31    29    1
     3    10     9    1
     4     9    12    1
     5     9     1    1
     6    29    30    1
     7    29    32    1
     8    29    20    1
     9    23    19    1
    10     1     6   ar
    11     1     2   ar
    12     6     5   ar
    13    19    20   ar
    14    19    18   ar
    15    20    21   ar
    16     8     2    1
    17     2     3   ar
    18     5    18    1
    19     5     4   ar
    20    18    17   ar
    21    21    24    1
    22    21    22   ar
    23     3     4   ar
    24     3     7    1
    25     4    13    1
    26    15    13    1
    27    17    22   ar
    28    17    25    1
    29    27    25    1
    30    13    16    1
    31    13    14    1
    32    25    28    1
    33    25    26    1
