@<TRIPOS>MOLECULE
mol_data/opt/cam/geoms/mol2/6ii6hf6fe6ha-.out
 52 55 0 0 0
SMALL
GASTEIGER

@<TRIPOS>ATOM
      1 C          -4.1439   -2.0502   -0.9220 C.ar    1  LIG1        0.0389
      2 C          -2.9607   -2.2109   -0.2077 C.ar    1  LIG1       -0.0404
      3 C          -2.5730   -1.2067    0.6612 C.ar    1  LIG1       -0.0551
      4 C          -3.3217   -0.0394    0.7946 C.ar    1  LIG1       -0.0243
      5 C          -4.4725    0.0628   -0.0094 C.ar    1  LIG1        0.0775
      6 N          -4.8684   -0.9373   -0.8114 N.ar    1  LIG1       -0.2515
      7 H          -1.6766   -1.3290    1.2628 H       1  LIG1        0.0621
      8 H          -2.3740   -3.1168   -0.3121 H       1  LIG1        0.0635
      9 C          -4.6792   -3.1188   -1.8336 C.3     1  LIG1       -0.0223
     10 H          -3.9362   -3.8962   -2.0206 H       1  LIG1        0.0292
     11 H          -4.9862   -2.6852   -2.7876 H       1  LIG1        0.0292
     12 H          -5.5611   -3.5928   -1.3912 H       1  LIG1        0.0292
     13 C          -2.8880    0.9943    1.8021 C.3     1  LIG1       -0.0377
     14 H          -3.7371    1.5260    2.2336 H       1  LIG1        0.0278
     15 H          -2.2192    1.7430    1.3657 H       1  LIG1        0.0278
     16 H          -2.3403    0.5124    2.6153 H       1  LIG1        0.0278
     17 C          -6.7575    1.1895   -0.0751 C.ar    1  LIG1        0.1263
     18 C          -5.3388    1.2733   -0.0321 C.ar    1  LIG1        0.0436
     19 C          -4.8023    2.5481   -0.0211 C.ar    1  LIG1       -0.0056
     20 C          -5.6006    3.6879   -0.0397 C.ar    1  LIG1        0.1436
     21 C          -6.9838    3.5272   -0.1004 C.ar    1  LIG1        0.1195
     22 N          -7.5123    2.2850   -0.0871 N.ar    1  LIG1       -0.2279
     23 H          -3.7303    2.6992   -0.0016 H       1  LIG1        0.0662
     24 N          -7.4110   -0.0138   -0.0607 N.pl3   1  LIG1       -0.3426
     25 H          -8.3866    0.0428   -0.3113 H       1  LIG1        0.1437
     26 H          -6.8834   -0.7688   -0.4821 H       1  LIG1        0.1437
     27 O          -4.9543    4.8944    0.0004 O.3     1  LIG1       -0.5046
     28 H          -5.5128    5.5418    0.4491 H       1  LIG1        0.2922
     29 C          -9.2898    4.4831    0.3026 C.ar    1  LIG1        0.2225
     30 C          -7.9513    4.6443   -0.1520 C.ar    1  LIG1        0.0665
     31 C          -7.6404    5.9044   -0.6444 C.ar    1  LIG1       -0.0298
     32 C          -8.5581    6.9603   -0.6339 C.ar    1  LIG1        0.0516
     33 C          -9.8467    6.7041   -0.1140 C.ar    1  LIG1        0.0934
     34 N         -10.1577    5.4806    0.3316 N.ar    1  LIG1       -0.2111
     35 H          -6.6633    6.0940   -1.0723 H       1  LIG1        0.0639
     36 O          -9.7510    3.3140    0.7259 O.3     1  LIG1       -0.4919
     37 H          -9.0597    2.6367    0.4883 H       1  LIG1        0.2937
     38 C          -8.0921    8.2353   -1.0856 C.1     1  LIG1       -0.0675
     39 C          -7.6159    9.2740   -1.4668 C.1     1  LIG1       -0.1138
     40 H          -7.2168   10.2061   -1.7947 H       1  LIG1        0.1232
     41 C         -11.8939    7.7165    1.0071 C.ar    1  LIG1        0.1254
     42 C         -10.9172    7.7222   -0.0335 C.ar    1  LIG1        0.0412
     43 C         -11.0390    8.7192   -0.9972 C.ar    1  LIG1       -0.0478
     44 C         -12.0338    9.6818   -0.9090 C.ar    1  LIG1       -0.0428
     45 C         -12.8932    9.6118    0.1764 C.ar    1  LIG1        0.0297
     46 N         -12.8394    8.6625    1.1024 N.ar    1  LIG1       -0.2401
     47 H         -10.3506    8.7360   -1.8321 H       1  LIG1        0.0626
     48 H         -13.6817   10.3513    0.3045 H       1  LIG1        0.0830
     49 N         -11.9066    6.7781    1.9941 N.pl3   1  LIG1       -0.3426
     50 H         -12.7322    6.8067    2.5719 H       1  LIG1        0.1437
     51 H         -11.5019    5.8804    1.7621 H       1  LIG1        0.1437
     52 H         -12.1384   10.4577   -1.6575 H       1  LIG1        0.0633
@<TRIPOS>BOND
     1    11     9    1
     2    10     9    1
     3     9    12    1
     4     9     1    1
     5    47    43    1
     6    40    39    1
     7    52    44    1
     8    39    38    3
     9    38    32    1
    10    35    31    1
    11    43    44   ar
    12    43    42   ar
    13     1     6   ar
    14     1     2   ar
    15    44    45   ar
    16     6     5   ar
    17    31    32   ar
    18    31    30   ar
    19    32    33   ar
    20    26    24    1
    21     8     2    1
    22    25    24    1
    23     2     3   ar
    24    30    21    1
    25    30    29   ar
    26    33    42    1
    27    33    34   ar
    28    21    22   ar
    29    21    20   ar
    30    22    17   ar
    31    17    24    1
    32    17    18   ar
    33    20    19   ar
    34    20    27    1
    35    42    41   ar
    36    18    19   ar
    37    18     5    1
    38    19    23    1
    39     5     4   ar
    40    27    28    1
    41    45    48    1
    42    45    46   ar
    43    29    34   ar
    44    29    36    1
    45    37    36    1
    46     3     4   ar
    47     3     7    1
    48     4    13    1
    49    41    46   ar
    50    41    49    1
    51    15    13    1
    52    51    49    1
    53    13    14    1
    54    13    16    1
    55    49    50    1
