@<TRIPOS>MOLECULE
mol_data/opt/cam/geoms/mol2/6il13ie-6id4he.out
 58 61 0 0 0
SMALL
GASTEIGER

@<TRIPOS>ATOM
      1 C          -4.4698   -1.9592   -0.8024 C.ar    1  LIG1        0.0392
      2 C          -3.0960   -2.0219   -0.9880 C.ar    1  LIG1       -0.0372
      3 C          -2.3353   -0.8703   -0.8236 C.ar    1  LIG1       -0.0161
      4 C          -2.9602    0.3138   -0.4601 C.ar    1  LIG1        0.1474
      5 C          -4.3511    0.2937   -0.2303 C.ar    1  LIG1        0.1291
      6 N          -5.0613   -0.8209   -0.4303 N.ar    1  LIG1       -0.2467
      7 H          -1.2670   -0.9016   -0.9965 H       1  LIG1        0.0655
      8 H          -2.6216   -2.9543   -1.2728 H       1  LIG1        0.0636
      9 C          -5.3639   -3.1513   -1.0006 C.3     1  LIG1       -0.0223
     10 H          -4.7956   -4.0328   -1.3031 H       1  LIG1        0.0292
     11 H          -6.1141   -2.9442   -1.7689 H       1  LIG1        0.0292
     12 H          -5.9016   -3.3853   -0.0779 H       1  LIG1        0.0292
     13 O          -2.3269    1.5047   -0.3389 O.3     1  LIG1       -0.4929
     14 C          -0.9392    1.5580   -0.5948 C.3     1  LIG1        0.0789
     15 H          -0.6457    2.5971   -0.4491 H       1  LIG1        0.0660
     16 H          -0.3756    0.9246    0.0998 H       1  LIG1        0.0660
     17 H          -0.7090    1.2589   -1.6237 H       1  LIG1        0.0660
     18 C          -5.1538    1.4590    0.1691 C.ar    1  LIG1        0.0731
     19 C          -4.9445    2.6721    0.8102 C.ar    1  LIG1       -0.0076
     20 C          -6.2229    3.3015    0.9035 C.ar    1  LIG1        0.0535
     21 C          -7.1744    2.4506    0.3398 C.ar    1  LIG1        0.0645
     22 N          -6.4993    1.3550   -0.0865 N.ar    1  LIG1       -0.3516
     23 H          -6.8717    0.5142   -0.5016 H       1  LIG1        0.1660
     24 C          -3.7027    3.2670    1.3972 C.3     1  LIG1       -0.0365
     25 H          -3.9778    4.0319    2.1262 H       1  LIG1        0.0279
     26 H          -3.0792    3.7383    0.6336 H       1  LIG1        0.0279
     27 H          -3.0901    2.5158    1.8966 H       1  LIG1        0.0279
     28 C          -6.4730    4.5600    1.5154 C.1     1  LIG1       -0.0673
     29 C          -6.6676    5.6308    2.0339 C.1     1  LIG1       -0.1138
     30 H          -6.8481    6.5735    2.4968 H       1  LIG1        0.1232
     31 C          -9.5618    1.5868    0.2915 C.ar    1  LIG1        0.0481
     32 C          -8.6188    2.6304    0.1696 C.ar    1  LIG1        0.0218
     33 C          -9.1192    3.9004   -0.0981 C.ar    1  LIG1       -0.0314
     34 C         -10.4870    4.0976   -0.2702 C.ar    1  LIG1        0.0784
     35 C         -11.3497    2.9877   -0.2037 C.ar    1  LIG1        0.0904
     36 N         -10.8659    1.7820    0.0957 N.ar    1  LIG1       -0.2499
     37 H          -8.4450    4.7458   -0.1567 H       1  LIG1        0.0638
     38 C          -9.1848    0.1790    0.6648 C.3     1  LIG1       -0.0217
     39 H          -8.3608    0.1481    1.3797 H       1  LIG1        0.0293
     40 H          -8.8876   -0.4005   -0.2170 H       1  LIG1        0.0293
     41 H         -10.0602   -0.3130    1.0876 H       1  LIG1        0.0293
     42 N         -11.3388    6.5119   -0.6689 N.1     1  LIG1       -0.1908
     43 C         -10.9733    5.4303   -0.4815 C.1     1  LIG1        0.1013
     44 C         -13.4379    3.6318   -1.5162 C.ar    1  LIG1        0.0339
     45 C         -14.8396    3.6911   -1.5546 C.ar    1  LIG1       -0.0393
     46 C         -12.8238    3.0860   -0.3710 C.ar    1  LIG1        0.0234
     47 C         -15.6091    3.2106   -0.5172 C.ar    1  LIG1       -0.0446
     48 H         -15.3193    4.1105   -2.4338 H       1  LIG1        0.0636
     49 C         -13.6179    2.5712    0.6515 C.ar    1  LIG1       -0.0353
     50 C         -15.0090    2.6292    0.6083 C.ar    1  LIG1        0.0254
     51 H         -13.1287    2.1223    1.5080 H       1  LIG1        0.0637
     52 H         -16.6904    3.2718   -0.5716 H       1  LIG1        0.0630
     53 N         -12.7234    4.0292   -2.6322 N.pl3   1  LIG1       -0.3575
     54 H         -11.7412    4.2146   -2.5141 H       1  LIG1        0.1423
     55 H         -13.1765    4.7173   -3.2140 H       1  LIG1        0.1423
     56 C         -15.8008    2.1137    1.6823 C.1     1  LIG1       -0.0696
     57 C         -16.4716    1.6809    2.5842 C.1     1  LIG1       -0.1139
     58 H         -17.0628    1.2986    3.3836 H       1  LIG1        0.1232
@<TRIPOS>BOND
     1    55    53    1
     2    53    54    1
     3    53    44    1
     4    48    45    1
     5    11     9    1
     6    17    14    1
     7    45    44   ar
     8    45    47   ar
     9    44    46   ar
    10    10     9    1
    11     8     2    1
    12     9     1    1
    13     9    12    1
    14     7     3    1
    15     2     3   ar
    16     2     1   ar
    17     3     4   ar
    18     1     6   ar
    19    42    43    3
    20    14    15    1
    21    14    13    1
    22    14    16    1
    23    52    47    1
    24    47    50   ar
    25    23    22    1
    26    43    34    1
    27     4    13    1
    28     4     5   ar
    29     6     5   ar
    30    46    35    1
    31    46    49   ar
    32    34    35   ar
    33    34    33   ar
    34     5    18    1
    35    40    38    1
    36    35    36   ar
    37    37    33    1
    38    33    32   ar
    39    22    18   ar
    40    22    21   ar
    41    36    31   ar
    42    18    19   ar
    43    32    31   ar
    44    32    21    1
    45    31    38    1
    46    21    20   ar
    47    50    49   ar
    48    50    56    1
    49    26    24    1
    50    49    51    1
    51    38    41    1
    52    38    39    1
    53    19    20   ar
    54    19    24    1
    55    20    28    1
    56    24    27    1
    57    24    25    1
    58    28    29    3
    59    56    57    3
    60    29    30    1
    61    57    58    1
