@<TRIPOS>MOLECULE
mol_data/opt/cam/geoms/mol2/6il13ad4de12di.out
 51 54 0 0 0
SMALL
GASTEIGER

@<TRIPOS>ATOM
      1 C          -4.5476   -1.9952   -0.7364 C.ar    1  LIG1        0.0392
      2 C          -3.1674   -2.1230   -0.6465 C.ar    1  LIG1       -0.0372
      3 C          -2.3971   -1.0218   -0.2902 C.ar    1  LIG1       -0.0161
      4 C          -3.0246    0.1876   -0.0303 C.ar    1  LIG1        0.1474
      5 C          -4.4275    0.2423   -0.1420 C.ar    1  LIG1        0.1288
      6 N          -5.1465   -0.8277   -0.4850 N.ar    1  LIG1       -0.2467
      7 H          -1.3209   -1.1162   -0.2194 H       1  LIG1        0.0655
      8 H          -2.6921   -3.0752   -0.8533 H       1  LIG1        0.0636
      9 C          -5.4383   -3.1443   -1.1175 C.3     1  LIG1       -0.0223
     10 H          -4.8626   -4.0528   -1.3037 H       1  LIG1        0.0292
     11 H          -6.0077   -2.9047   -2.0195 H       1  LIG1        0.0292
     12 H          -6.1607   -3.3496   -0.3229 H       1  LIG1        0.0292
     13 O          -2.3898    1.3297    0.3258 O.3     1  LIG1       -0.4929
     14 C          -0.9792    1.3073    0.4294 C.3     1  LIG1        0.0789
     15 H          -0.6812    2.3151    0.7152 H       1  LIG1        0.0660
     16 H          -0.6457    0.6006    1.1975 H       1  LIG1        0.0660
     17 H          -0.5124    1.0504   -0.5279 H       1  LIG1        0.0660
     18 C          -5.2015    1.4589    0.1012 C.ar    1  LIG1        0.0703
     19 C          -4.8930    2.7567    0.4466 C.ar    1  LIG1       -0.0168
     20 C          -6.1143    3.4776    0.4926 C.ar    1  LIG1        0.0776
     21 C          -7.1427    2.5946    0.1729 C.ar    1  LIG1        0.0658
     22 N          -6.5630    1.3855   -0.0433 N.ar    1  LIG1       -0.3518
     23 H          -7.0064    0.5300   -0.3496 H       1  LIG1        0.1660
     24 H          -3.9117    3.1483    0.6494 H       1  LIG1        0.0652
     25 N          -6.3773    5.9260    1.2603 N.1     1  LIG1       -0.1908
     26 C          -6.2671    4.8314    0.9008 C.1     1  LIG1        0.1013
     27 C          -9.2180    3.8063   -0.5907 C.ar    1  LIG1        0.0616
     28 C         -10.6060    3.9215   -0.5980 C.ar    1  LIG1       -0.0318
     29 C          -8.5977    2.7662    0.1253 C.ar    1  LIG1        0.0181
     30 C         -11.4185    3.0176    0.0837 C.ar    1  LIG1        0.0351
     31 H         -11.0548    4.7228   -1.1719 H       1  LIG1        0.0638
     32 C          -9.4141    1.8630    0.8000 C.ar    1  LIG1       -0.0353
     33 C         -10.8069    1.9642    0.7978 C.ar    1  LIG1        0.0361
     34 H          -8.9582    1.0690    1.3799 H       1  LIG1        0.0637
     35 N          -7.8826    5.4264   -2.1086 N.1     1  LIG1       -0.1908
     36 C          -8.4586    4.7110   -1.4064 C.1     1  LIG1        0.0998
     37 C         -11.5388    1.0105    1.5739 C.1     1  LIG1       -0.0689
     38 C         -12.0820    0.1873    2.2628 C.1     1  LIG1       -0.1139
     39 H         -12.5824   -0.5341    2.8674 H       1  LIG1        0.1232
     40 C         -12.8683    3.1907    0.0246 C.ar    1  LIG1        0.1535
     41 C         -13.6703    4.3016   -0.0743 C.ar    1  LIG1        0.1003
     42 C         -15.0341    3.8413   -0.1176 C.ar    1  LIG1        0.0053
     43 C         -14.9440    2.4937   -0.0425 C.ar    1  LIG1        0.0967
     44 O         -13.6476    2.0919    0.0414 O.2     1  LIG1       -0.4613
     45 H         -15.6818    1.7075   -0.0391 H       1  LIG1        0.1032
     46 N         -12.9582    6.7781   -0.1431 N.1     1  LIG1       -0.1907
     47 C         -13.2615    5.6617   -0.1054 C.1     1  LIG1        0.1032
     48 C         -16.2572    4.6907   -0.2170 C.3     1  LIG1       -0.0355
     49 H         -17.1591    4.0762   -0.2270 H       1  LIG1        0.0279
     50 H         -16.2448    5.2930   -1.1295 H       1  LIG1        0.0279
     51 H         -16.3254    5.3823    0.6272 H       1  LIG1        0.0279
@<TRIPOS>BOND
     1    35    36    3
     2    11     9    1
     3    36    27    1
     4    10     9    1
     5    31    28    1
     6    50    48    1
     7     9     1    1
     8     9    12    1
     9     8     2    1
    10     1     2   ar
    11     1     6   ar
    12     2     3   ar
    13    28    27   ar
    14    28    30   ar
    15    27    29   ar
    16    17    14    1
    17     6     5   ar
    18    23    22    1
    19     3     7    1
    20     3     4   ar
    21    49    48    1
    22    48    42    1
    23    48    51    1
    24    46    47    3
    25     5     4   ar
    26     5    18    1
    27    42    41   ar
    28    42    43   ar
    29    47    41    1
    30    41    40   ar
    31    22    18   ar
    32    22    21   ar
    33    43    45    1
    34    43    44   ar
    35     4    13    1
    36    40    44   ar
    37    40    30    1
    38    30    33   ar
    39    18    19   ar
    40    29    21    1
    41    29    32   ar
    42    21    20   ar
    43    13    14    1
    44    14    15    1
    45    14    16    1
    46    19    20   ar
    47    19    24    1
    48    20    26    1
    49    33    32   ar
    50    33    37    1
    51    32    34    1
    52    26    25    3
    53    37    38    3
    54    38    39    1
