@<TRIPOS>MOLECULE
mol_data/opt/cam/geoms/mol2/6il6il-.out
 34 35 0 0 0
SMALL
GASTEIGER

@<TRIPOS>ATOM
      1 C          -4.4495   -2.0243    0.5989 C.ar    1  LIG1        0.0392
      2 C          -3.1498   -2.1223    0.1219 C.ar    1  LIG1       -0.0372
      3 C          -2.5172   -0.9918   -0.3826 C.ar    1  LIG1       -0.0161
      4 C          -3.2028    0.2145   -0.3837 C.ar    1  LIG1        0.1460
      5 C          -4.5065    0.2449    0.1492 C.ar    1  LIG1        0.1145
      6 N          -5.1004   -0.8545    0.6024 N.ar    1  LIG1       -0.2482
      7 H          -1.5110   -1.0652   -0.7761 H       1  LIG1        0.0655
      8 H          -2.6328   -3.0758    0.1325 H       1  LIG1        0.0636
      9 C          -5.1998   -3.2106    1.1377 C.3     1  LIG1       -0.0223
     10 H          -4.6028   -4.1233    1.0834 H       1  LIG1        0.0292
     11 H          -6.1242   -3.3648    0.5749 H       1  LIG1        0.0292
     12 H          -5.4832   -3.0420    2.1800 H       1  LIG1        0.0292
     13 O          -2.7166    1.3778   -0.8879 O.3     1  LIG1       -0.4930
     14 C          -1.4292    1.3645   -1.4679 C.3     1  LIG1        0.0789
     15 H          -1.2463    2.3784   -1.8218 H       1  LIG1        0.0660
     16 H          -0.6587    1.0938   -0.7365 H       1  LIG1        0.0660
     17 H          -1.3783    0.6719   -2.3160 H       1  LIG1        0.0660
     18 C          -4.9306    2.6562    0.8735 C.ar    1  LIG1        0.0477
     19 C          -5.3170    1.4955    0.1735 C.ar    1  LIG1        0.0284
     20 C          -6.5403    1.4925   -0.4752 C.ar    1  LIG1       -0.0074
     21 C          -7.3347    2.6347   -0.4606 C.ar    1  LIG1        0.1387
     22 C          -6.8627    3.7441    0.2314 C.ar    1  LIG1        0.0695
     23 N          -5.7006    3.7411    0.8866 N.ar    1  LIG1       -0.2559
     24 H          -6.8900    0.6071   -0.9936 H       1  LIG1        0.0662
     25 H          -7.4329    4.6664    0.2800 H       1  LIG1        0.0867
     26 C          -3.6591    2.7383    1.6729 C.3     1  LIG1       -0.0217
     27 H          -3.7435    3.5576    2.3867 H       1  LIG1        0.0293
     28 H          -2.8022    2.9280    1.0216 H       1  LIG1        0.0293
     29 H          -3.4609    1.8090    2.2133 H       1  LIG1        0.0293
     30 O          -8.5169    2.5681   -1.1278 O.3     1  LIG1       -0.4936
     31 C          -9.3409    3.7143   -1.1183 C.3     1  LIG1        0.0789
     32 H         -10.2281    3.4565   -1.6964 H       1  LIG1        0.0660
     33 H          -9.6416    3.9872   -0.1000 H       1  LIG1        0.0660
     34 H          -8.8444    4.5732   -1.5852 H       1  LIG1        0.0660
@<TRIPOS>BOND
     1    17    14    1
     2    15    14    1
     3    32    31    1
     4    34    31    1
     5    14    13    1
     6    14    16    1
     7    30    31    1
     8    30    21    1
     9    31    33    1
    10    24    20    1
    11    13     4    1
    12     7     3    1
    13    20    21   ar
    14    20    19   ar
    15    21    22   ar
    16     4     3   ar
    17     4     5   ar
    18     3     2   ar
    19     2     8    1
    20     2     1   ar
    21     5    19    1
    22     5     6   ar
    23    19    18   ar
    24    22    25    1
    25    22    23   ar
    26    11     9    1
    27     1     6   ar
    28     1     9    1
    29    18    23   ar
    30    18    26    1
    31    28    26    1
    32    10     9    1
    33     9    12    1
    34    26    29    1
    35    26    27    1
