@<TRIPOS>MOLECULE
mol_data/opt/cam/geoms/mol2/6il6il6il6il.out
 66 69 0 0 0
SMALL
GASTEIGER

@<TRIPOS>ATOM
      1 C          -3.6391   -1.5328   -1.9141 C.ar    1  LIG1        0.0392
      2 C          -2.7690   -2.0629   -0.9712 C.ar    1  LIG1       -0.0372
      3 C          -2.6966   -1.4882    0.2919 C.ar    1  LIG1       -0.0161
      4 C          -3.4947   -0.3896    0.5783 C.ar    1  LIG1        0.1460
      5 C          -4.3515    0.0987   -0.4307 C.ar    1  LIG1        0.1145
      6 N          -4.4053   -0.4744   -1.6293 N.ar    1  LIG1       -0.2482
      7 H          -2.0265   -1.9013    1.0353 H       1  LIG1        0.0655
      8 H          -2.1524   -2.9212   -1.2150 H       1  LIG1        0.0636
      9 C          -3.7754   -2.1089   -3.2960 C.3     1  LIG1       -0.0223
     10 H          -3.0986   -2.9519   -3.4493 H       1  LIG1        0.0292
     11 H          -3.5602   -1.3473   -4.0500 H       1  LIG1        0.0292
     12 H          -4.7995   -2.4511   -3.4679 H       1  LIG1        0.0292
     13 O          -3.5146    0.2508    1.7776 O.3     1  LIG1       -0.4930
     14 C          -2.7400   -0.2844    2.8306 C.3     1  LIG1        0.0789
     15 H          -2.9357    0.3432    3.6995 H       1  LIG1        0.0660
     16 H          -3.0311   -1.3160    3.0591 H       1  LIG1        0.0660
     17 H          -1.6684   -0.2565    2.6005 H       1  LIG1        0.0660
     18 C          -6.5907    1.2662   -0.5552 C.ar    1  LIG1        0.0484
     19 C          -5.2318    1.2787   -0.2089 C.ar    1  LIG1        0.0284
     20 C          -4.7018    2.4515    0.3254 C.ar    1  LIG1       -0.0068
     21 C          -5.5042    3.5709    0.4821 C.ar    1  LIG1        0.1466
     22 C          -6.8537    3.4833    0.0996 C.ar    1  LIG1        0.1146
     23 N          -7.3518    2.3501   -0.3902 N.ar    1  LIG1       -0.2475
     24 H          -3.6618    2.4702    0.6200 H       1  LIG1        0.0662
     25 C          -7.2906    0.0563   -1.1122 C.3     1  LIG1       -0.0217
     26 H          -7.0331   -0.8510   -0.5600 H       1  LIG1        0.0293
     27 H          -7.0051   -0.1152   -2.1521 H       1  LIG1        0.0293
     28 H          -8.3668    0.2202   -1.0581 H       1  LIG1        0.0293
     29 O          -5.0679    4.7555    0.9933 O.3     1  LIG1       -0.4929
     30 C          -3.7458    4.8203    1.4835 C.3     1  LIG1        0.0789
     31 H          -3.6232    5.8231    1.8922 H       1  LIG1        0.0660
     32 H          -3.5745    4.0840    2.2770 H       1  LIG1        0.0660
     33 H          -3.0086    4.6645    0.6868 H       1  LIG1        0.0660
     34 C          -9.0620    4.5103    0.7851 C.ar    1  LIG1        0.0484
     35 C          -7.7861    4.6369    0.2165 C.ar    1  LIG1        0.0284
     36 C          -7.4102    5.8848   -0.2772 C.ar    1  LIG1       -0.0068
     37 C          -8.2925    6.9522   -0.2199 C.ar    1  LIG1        0.1466
     38 C          -9.5582    6.7420    0.3529 C.ar    1  LIG1        0.1146
     39 N          -9.8972    5.5503    0.8397 N.ar    1  LIG1       -0.2475
     40 H          -6.4213    6.0052   -0.6969 H       1  LIG1        0.0662
     41 C          -9.5774    3.2290    1.3821 C.3     1  LIG1       -0.0217
     42 H          -8.8289    2.7472    2.0160 H       1  LIG1        0.0293
     43 H          -9.8368    2.5115    0.6010 H       1  LIG1        0.0293
     44 H         -10.4653    3.4526    1.9736 H       1  LIG1        0.0293
     45 O          -8.0073    8.2026   -0.6791 O.3     1  LIG1       -0.4929
     46 C          -6.7036    8.4514   -1.1578 C.3     1  LIG1        0.0789
     47 H          -6.6733    9.5093   -1.4182 H       1  LIG1        0.0660
     48 H          -5.9472    8.2467   -0.3913 H       1  LIG1        0.0660
     49 H          -6.4768    7.8555   -2.0500 H       1  LIG1        0.0660
     50 C         -11.2599    8.1036    1.6333 C.ar    1  LIG1        0.0477
     51 C         -10.5757    7.8256    0.4404 C.ar    1  LIG1        0.0284
     52 C         -10.8870    8.5681   -0.7002 C.ar    1  LIG1       -0.0074
     53 C         -11.8689    9.5436   -0.6293 C.ar    1  LIG1        0.1387
     54 C         -12.5008    9.7446    0.5966 C.ar    1  LIG1        0.0695
     55 N         -12.2016    9.0547    1.6861 N.ar    1  LIG1       -0.2559
     56 H         -10.3528    8.3708   -1.6197 H       1  LIG1        0.0662
     57 H         -13.2737   10.5058    0.6736 H       1  LIG1        0.0867
     58 C         -10.9873    7.3848    2.9267 C.3     1  LIG1       -0.0217
     59 H          -9.9158    7.2867    3.1190 H       1  LIG1        0.0293
     60 H         -11.3969    6.3728    2.9053 H       1  LIG1        0.0293
     61 H         -11.4522    7.9443    3.7386 H       1  LIG1        0.0293
     62 O         -12.2752   10.3325   -1.6607 O.3     1  LIG1       -0.4936
     63 C         -11.6479   10.1485   -2.9100 C.3     1  LIG1        0.0789
     64 H         -12.1062   10.8656   -3.5910 H       1  LIG1        0.0660
     65 H         -10.5701   10.3432   -2.8542 H       1  LIG1        0.0660
     66 H         -11.8057    9.1346   -3.2970 H       1  LIG1        0.0660
@<TRIPOS>BOND
     1    11     9    1
     2    64    63    1
     3    12     9    1
     4    10     9    1
     5    66    63    1
     6     9     1    1
     7    63    65    1
     8    63    62    1
     9    27    25    1
    10    49    46    1
    11     1     6   ar
    12     1     2   ar
    13    62    53    1
    14     6     5   ar
    15    56    52    1
    16    47    46    1
    17     8     2    1
    18    46    45    1
    19    46    48    1
    20    25    28    1
    21    25    26    1
    22    25    18    1
    23     2     3   ar
    24    52    53   ar
    25    52    51   ar
    26    40    36    1
    27    45    37    1
    28    53    54   ar
    29    18    23   ar
    30    18    19   ar
    31     5    19    1
    32     5     4   ar
    33    23    22   ar
    34    36    37   ar
    35    36    35   ar
    36    37    38   ar
    37    19    20   ar
    38    22    35    1
    39    22    21   ar
    40    35    34   ar
    41     3     4   ar
    42     3     7    1
    43    20    21   ar
    44    20    24    1
    45    38    51    1
    46    38    39   ar
    47    51    50   ar
    48    21    29    1
    49     4    13    1
    50    54    57    1
    51    54    55   ar
    52    43    41    1
    53    33    30    1
    54    34    39   ar
    55    34    41    1
    56    29    30    1
    57    41    44    1
    58    41    42    1
    59    30    31    1
    60    30    32    1
    61    50    55   ar
    62    50    58    1
    63    13    14    1
    64    17    14    1
    65    14    16    1
    66    14    15    1
    67    60    58    1
    68    58    59    1
    69    58    61    1
