@<TRIPOS>MOLECULE
mol_data/opt/cam/geoms/mol2/6la12fh12fi-4de-.out
 49 52 0 0 0
SMALL
GASTEIGER

@<TRIPOS>ATOM
      1 C          -4.0352   -1.9955   -0.0042 C.ar    1  LIG1        0.2150
      2 C          -2.6450   -1.8666   -0.1197 C.ar    1  LIG1        0.0000
      3 C          -2.1427   -0.5895   -0.2698 C.ar    1  LIG1       -0.0546
      4 C          -3.0070    0.5015   -0.3020 C.ar    1  LIG1       -0.0323
      5 C          -4.3735    0.2562   -0.1770 C.ar    1  LIG1        0.1135
      6 N          -4.8773   -0.9823   -0.0291 N.ar    1  LIG1       -0.2097
      7 H          -1.0724   -0.4348   -0.3639 H       1  LIG1        0.0620
      8 H          -2.0168   -2.7476   -0.0898 H       1  LIG1        0.0671
      9 O          -4.5184   -3.2462    0.1406 O.3     1  LIG1       -0.4796
     10 C          -5.9289   -3.3784    0.2520 C.3     1  LIG1        0.0804
     11 H          -6.1149   -4.4476    0.3538 H       1  LIG1        0.0660
     12 H          -6.3086   -2.8418    1.1249 H       1  LIG1        0.0660
     13 H          -6.4343   -2.9874   -0.6342 H       1  LIG1        0.0660
     14 H          -2.6424    1.5138   -0.4190 H       1  LIG1        0.0640
     15 C          -5.3244    1.3531   -0.2009 C.ar    1  LIG1        0.1971
     16 C          -5.1887    2.7081   -0.3327 C.ar    1  LIG1        0.1861
     17 C          -6.4890    3.2815   -0.3010 C.ar    1  LIG1        0.1170
     18 C          -7.3496    2.2302   -0.1264 C.ar    1  LIG1        0.1985
     19 O          -6.6586    1.0688   -0.0638 O.2     1  LIG1       -0.4443
     20 O          -4.0605    3.4345   -0.4721 O.3     1  LIG1       -0.5019
     21 H          -4.3428    4.3622   -0.4001 H       1  LIG1        0.2924
     22 N          -6.6774    4.6778   -0.4228 N.pl3   1  LIG1       -0.3521
     23 H          -6.8569    4.9434   -1.3870 H       1  LIG1        0.1425
     24 H          -7.4646    4.9923    0.1364 H       1  LIG1        0.1425
     25 C          -8.7755    2.1695    0.0384 C.ar    1  LIG1        0.2139
     26 C          -9.7102    3.0920    0.4147 C.ar    1  LIG1        0.1694
     27 C         -10.9884    2.4588    0.4015 C.ar    1  LIG1        0.0376
     28 C         -10.7408    1.1740   -0.0039 C.ar    1  LIG1        0.1436
     29 O          -9.4086    0.9910   -0.2119 O.2     1  LIG1       -0.4475
     30 O          -9.4328    4.3692    0.7997 O.3     1  LIG1       -0.5029
     31 H         -10.2577    4.8606    0.8883 H       1  LIG1        0.2923
     32 C         -12.2592    3.1004    0.8573 C.3     1  LIG1       -0.0326
     33 H         -12.9791    2.3561    1.2010 H       1  LIG1        0.0280
     34 H         -12.7455    3.6715    0.0616 H       1  LIG1        0.0280
     35 H         -12.0645    3.7705    1.7021 H       1  LIG1        0.0280
     36 C         -12.8412   -0.0054   -0.7504 C.ar    1  LIG1        0.0625
     37 C         -13.5908   -1.1834   -0.8472 C.ar    1  LIG1       -0.0425
     38 C         -11.5611   -0.0238   -0.1645 C.ar    1  LIG1        0.0361
     39 C         -13.0753   -2.3826   -0.3982 C.ar    1  LIG1       -0.0451
     40 H         -14.5750   -1.1450   -1.2995 H       1  LIG1        0.0631
     41 C         -11.0459   -1.2497    0.2617 C.ar    1  LIG1       -0.0344
     42 C         -11.7857   -2.4260    0.1501 C.ar    1  LIG1        0.0254
     43 H         -10.0520   -1.2799    0.6907 H       1  LIG1        0.0637
     44 H         -13.6545   -3.2946   -0.4780 H       1  LIG1        0.0630
     45 N         -13.8409    2.1331   -1.8172 N.1     1  LIG1       -0.1908
     46 C         -13.3835    1.1887   -1.3292 C.1     1  LIG1        0.0999
     47 C         -11.2359   -3.6671    0.6036 C.1     1  LIG1       -0.0696
     48 C         -10.7780   -4.7130    0.9837 C.1     1  LIG1       -0.1139
     49 H         -10.3701   -5.6382    1.3214 H       1  LIG1        0.1232
@<TRIPOS>BOND
     1    45    46    3
     2    23    22    1
     3    46    36    1
     4    40    37    1
     5    37    36   ar
     6    37    39   ar
     7    36    38   ar
     8    13    10    1
     9    44    39    1
    10    20    21    1
    11    20    16    1
    12    22    17    1
    13    22    24    1
    14    14     4    1
    15    39    42   ar
    16     7     3    1
    17    16    17   ar
    18    16    15   ar
    19     4     3   ar
    20     4     5   ar
    21    17    18   ar
    22     3     2   ar
    23    29    28   ar
    24    29    25   ar
    25    15     5    1
    26    15    19   ar
    27     5     6   ar
    28    38    28    1
    29    38    41   ar
    30    18    19   ar
    31    18    25    1
    32     2     8    1
    33     2     1   ar
    34     6     1   ar
    35     1     9    1
    36    28    27   ar
    37    25    26   ar
    38    34    32    1
    39     9    10    1
    40    42    41   ar
    41    42    47    1
    42    10    11    1
    43    10    12    1
    44    41    43    1
    45    27    26   ar
    46    27    32    1
    47    26    30    1
    48    47    48    3
    49    30    31    1
    50    32    33    1
    51    32    35    1
    52    48    49    1
