@<TRIPOS>MOLECULE
mol_data/opt/cam/geoms/mol2/6la12ha13ff13ef-.out
 45 48 0 0 0
SMALL
GASTEIGER

@<TRIPOS>ATOM
      1 C          -4.2501   -2.0385    0.1245 C.ar    1  LIG1        0.2150
      2 C          -2.9044   -1.9688    0.5094 C.ar    1  LIG1        0.0000
      3 C          -2.3923   -0.7133    0.7631 C.ar    1  LIG1       -0.0546
      4 C          -3.1997    0.4120    0.6176 C.ar    1  LIG1       -0.0324
      5 C          -4.5207    0.2326    0.1996 C.ar    1  LIG1        0.1116
      6 N          -5.0353   -0.9927   -0.0335 N.ar    1  LIG1       -0.2097
      7 H          -1.3629   -0.6020    1.0890 H       1  LIG1        0.0620
      8 H          -2.3223   -2.8760    0.6077 H       1  LIG1        0.0671
      9 O          -4.7476   -3.2726   -0.0981 O.3     1  LIG1       -0.4796
     10 C          -6.1085   -3.3559   -0.4916 C.3     1  LIG1        0.0804
     11 H          -6.3097   -4.4187   -0.6270 H       1  LIG1        0.0660
     12 H          -6.7674   -2.9410    0.2756 H       1  LIG1        0.0660
     13 H          -6.2846   -2.8139   -1.4241 H       1  LIG1        0.0660
     14 H          -2.8330    1.3970    0.8762 H       1  LIG1        0.0640
     15 C          -5.4020    1.3636   -0.0013 C.ar    1  LIG1        0.1745
     16 C          -5.1835    2.7109   -0.1757 C.ar    1  LIG1        0.0732
     17 C          -6.4624    3.3217   -0.3209 C.ar    1  LIG1        0.0072
     18 C          -7.3750    2.3103   -0.2375 C.ar    1  LIG1        0.1574
     19 O          -6.7569    1.1236   -0.0550 O.2     1  LIG1       -0.4498
     20 N          -3.9622    3.3800   -0.1929 N.pl3   1  LIG1       -0.3550
     21 H          -3.2098    2.8457   -0.6071 H       1  LIG1        0.1424
     22 H          -4.0224    4.2966   -0.6140 H       1  LIG1        0.1424
     23 H          -6.6865    4.3669   -0.4712 H       1  LIG1        0.0675
     24 C          -8.8065    2.2790   -0.2958 C.ar    1  LIG1        0.1284
     25 C          -9.7262    3.2994   -0.3982 C.ar    1  LIG1        0.1879
     26 C         -11.0185    2.7308   -0.3446 C.ar    1  LIG1        0.1864
     27 C         -10.8727    1.3615   -0.2046 C.ar    1  LIG1        0.1105
     28 N          -9.5151    1.0960   -0.2109 N.ar    1  LIG1       -0.3447
     29 H          -9.0987    0.2693    0.1894 H       1  LIG1        0.1663
     30 O          -9.4523    4.6170   -0.5595 O.3     1  LIG1       -0.5018
     31 H         -10.3032    5.0767   -0.5908 H       1  LIG1        0.2924
     32 O         -12.1201    3.5048   -0.5139 O.3     1  LIG1       -0.5019
     33 H         -12.8720    3.1288   -0.0232 H       1  LIG1        0.2924
     34 C         -11.8532    0.3069   -0.1651 C.ar    1  LIG1        0.0858
     35 C         -13.1668    0.3085    0.2972 C.ar    1  LIG1        0.0928
     36 C         -13.6883   -1.0005    0.0608 C.ar    1  LIG1        0.1501
     37 C         -12.7034   -1.7547   -0.5153 C.ar    1  LIG1        0.0454
     38 N         -11.5848   -0.9456   -0.6310 N.ar    1  LIG1       -0.3554
     39 H         -10.7711   -1.1673   -1.1808 H       1  LIG1        0.1655
     40 H         -12.6945   -2.7848   -0.8340 H       1  LIG1        0.0845
     41 C         -13.8295    1.3884    0.9286 C.1     1  LIG1       -0.0638
     42 C         -14.3766    2.3294    1.4524 C.1     1  LIG1       -0.1137
     43 H         -14.8697    3.1234    1.9645 H       1  LIG1        0.1232
     44 O         -14.9522   -1.3467    0.4081 O.3     1  LIG1       -0.5040
     45 H         -15.1054   -2.2695    0.1767 H       1  LIG1        0.2923
@<TRIPOS>BOND
     1    13    10    1
     2    39    38    1
     3    40    37    1
     4    38    37   ar
     5    38    34   ar
     6    11    10    1
     7    22    20    1
     8    21    20    1
     9    31    30    1
    10    30    25    1
    11    37    36   ar
    12    32    26    1
    13    32    33    1
    14    10     9    1
    15    10    12    1
    16    23    17    1
    17    25    26   ar
    18    25    24   ar
    19    26    27   ar
    20    17    18   ar
    21    17    16   ar
    22    24    18    1
    23    24    28   ar
    24    18    19   ar
    25    28    27   ar
    26    28    29    1
    27    27    34    1
    28    20    16    1
    29    16    15   ar
    30    34    35   ar
    31     9     1    1
    32    19    15   ar
    33     6     1   ar
    34     6     5   ar
    35    15     5    1
    36    36    35   ar
    37    36    44    1
    38     1     2   ar
    39    45    44    1
    40     5     4   ar
    41    35    41    1
    42     2     8    1
    43     2     3   ar
    44     4     3   ar
    45     4    14    1
    46     3     7    1
    47    41    42    3
    48    42    43    1
