@<TRIPOS>MOLECULE
mol_data/opt/cam/geoms/mol2/6la6la6la6la.out
 54 57 0 0 0
SMALL
GASTEIGER

@<TRIPOS>ATOM
      1 C          -3.8450   -1.9287   -0.3871 C.ar    1  LIG1        0.2149
      2 C          -3.1279   -2.2746    0.7676 C.ar    1  LIG1        0.0000
      3 C          -3.3002   -1.4784    1.8782 C.ar    1  LIG1       -0.0547
      4 C          -4.1642   -0.3833    1.8161 C.ar    1  LIG1       -0.0353
      5 C          -4.8218   -0.1249    0.6205 C.ar    1  LIG1        0.0799
      6 N          -4.6553   -0.8928   -0.4692 N.ar    1  LIG1       -0.2127
      7 H          -2.7745   -1.7069    2.7998 H       1  LIG1        0.0620
      8 H          -2.4772   -3.1399    0.7583 H       1  LIG1        0.0671
      9 O          -3.6755   -2.7177   -1.4650 O.3     1  LIG1       -0.4796
     10 C          -4.4194   -2.3781   -2.6289 C.3     1  LIG1        0.0804
     11 H          -4.1902   -3.1544   -3.3585 H       1  LIG1        0.0660
     12 H          -5.4907   -2.3528   -2.4174 H       1  LIG1        0.0660
     13 H          -4.1240   -1.3985   -3.0127 H       1  LIG1        0.0660
     14 H          -4.3375    0.2431    2.6827 H       1  LIG1        0.0639
     15 C          -7.0136    0.9720   -0.0738 C.ar    1  LIG1        0.2244
     16 C          -5.7186    1.0495    0.4903 C.ar    1  LIG1        0.0620
     17 C          -5.3273    2.3010    0.9340 C.ar    1  LIG1       -0.0454
     18 C          -6.1703    3.4023    0.8032 C.ar    1  LIG1       -0.0347
     19 C          -7.4096    3.2147    0.2078 C.ar    1  LIG1        0.0799
     20 N          -7.8134    2.0088   -0.2185 N.ar    1  LIG1       -0.2122
     21 H          -4.3439    2.4183    1.3785 H       1  LIG1        0.0626
     22 O          -7.4572   -0.2366   -0.4545 O.3     1  LIG1       -0.4792
     23 C          -8.7796   -0.2988   -0.9744 C.3     1  LIG1        0.0804
     24 H          -8.9671   -1.3558   -1.1619 H       1  LIG1        0.0660
     25 H          -9.5034    0.1013   -0.2610 H       1  LIG1        0.0660
     26 H          -8.8641    0.2721   -1.9022 H       1  LIG1        0.0660
     27 H          -5.8730    4.3797    1.1631 H       1  LIG1        0.0639
     28 C          -9.7034    4.3180    0.3180 C.ar    1  LIG1        0.2244
     29 C          -8.3282    4.3574   -0.0125 C.ar    1  LIG1        0.0620
     30 C          -7.8710    5.5465   -0.5541 C.ar    1  LIG1       -0.0454
     31 C          -8.7384    6.6156   -0.7672 C.ar    1  LIG1       -0.0347
     32 C         -10.0748    6.4549   -0.4310 C.ar    1  LIG1        0.0799
     33 N         -10.5368    5.3161    0.1060 N.ar    1  LIG1       -0.2122
     34 H          -6.8233    5.6334   -0.8245 H       1  LIG1        0.0626
     35 O         -10.1721    3.2074    0.9091 O.3     1  LIG1       -0.4792
     36 C         -11.5457    3.2091    1.2781 C.3     1  LIG1        0.0804
     37 H         -11.7093    2.2599    1.7877 H       1  LIG1        0.0660
     38 H         -11.7753    4.0471    1.9400 H       1  LIG1        0.0660
     39 H         -12.1890    3.2834    0.3980 H       1  LIG1        0.0660
     40 H          -8.3813    7.5520   -1.1781 H       1  LIG1        0.0639
     41 C         -11.9893    7.9742    0.2817 C.ar    1  LIG1        0.2239
     42 C         -11.0585    7.5354   -0.6890 C.ar    1  LIG1        0.0619
     43 C         -11.1017    8.1779   -1.9151 C.ar    1  LIG1       -0.0460
     44 C         -12.0364    9.1840   -2.1582 C.ar    1  LIG1       -0.0427
     45 C         -12.9070    9.5097   -1.1382 C.ar    1  LIG1        0.0314
     46 N         -12.8827    8.9222    0.0634 N.ar    1  LIG1       -0.2208
     47 H         -10.4097    7.8715   -2.6932 H       1  LIG1        0.0626
     48 H         -13.6640   10.2781   -1.2745 H       1  LIG1        0.0831
     49 O         -11.9309    7.4114    1.4992 O.3     1  LIG1       -0.4792
     50 C         -12.8545    7.8799    2.4726 C.3     1  LIG1        0.0804
     51 H         -12.6403    7.3066    3.3742 H       1  LIG1        0.0660
     52 H         -12.7230    8.9480    2.6612 H       1  LIG1        0.0660
     53 H         -13.8851    7.7124    2.1513 H       1  LIG1        0.0660
     54 H         -12.0881    9.6871   -3.1163 H       1  LIG1        0.0633
@<TRIPOS>BOND
     1    11    10    1
     2    54    44    1
     3    13    10    1
     4    47    43    1
     5    10    12    1
     6    10     9    1
     7    44    43   ar
     8    44    45   ar
     9    43    42   ar
    10    26    23    1
    11     9     1    1
    12    48    45    1
    13    40    31    1
    14    24    23    1
    15    45    46   ar
    16    23    22    1
    17    23    25    1
    18    34    30    1
    19    31    30   ar
    20    31    32   ar
    21    42    32    1
    22    42    41   ar
    23    30    29   ar
    24     6     1   ar
    25     6     5   ar
    26    22    15    1
    27    32    33   ar
    28     1     2   ar
    29    20    15   ar
    30    20    19   ar
    31    15    16   ar
    32    29    19    1
    33    29    28   ar
    34    46    41   ar
    35    33    28   ar
    36    19    18   ar
    37    41    49    1
    38    28    35    1
    39    39    36    1
    40    16     5    1
    41    16    17   ar
    42     5     4   ar
    43     8     2    1
    44     2     3   ar
    45    18    17   ar
    46    18    27    1
    47    35    36    1
    48    17    21    1
    49    36    37    1
    50    36    38    1
    51    49    50    1
    52     4     3   ar
    53     4    14    1
    54     3     7    1
    55    53    50    1
    56    50    52    1
    57    50    51    1
