@<TRIPOS>MOLECULE
mol_data/opt/cam/geoms/mol2/6la6fi-4de12ld-13la12ah12il13ee.out
 100 107 0 0 0
SMALL
GASTEIGER

@<TRIPOS>ATOM
      1 C          -5.1554   -2.4239   -1.3997 C.ar    1  LIG1        0.2149
      2 C          -3.9813   -2.8928   -0.8018 C.ar    1  LIG1        0.0000
      3 C          -3.3440   -2.0462    0.0802 C.ar    1  LIG1       -0.0547
      4 C          -3.8681   -0.7840    0.3518 C.ar    1  LIG1       -0.0353
      5 C          -5.0472   -0.3965   -0.2749 C.ar    1  LIG1        0.0799
      6 N          -5.6649   -1.2309   -1.1429 N.ar    1  LIG1       -0.2127
      7 H          -2.4254   -2.3619    0.5640 H       1  LIG1        0.0620
      8 H          -3.6102   -3.8791   -1.0480 H       1  LIG1        0.0671
      9 O          -5.7701   -3.2389   -2.2677 O.3     1  LIG1       -0.4796
     10 C          -6.9241   -2.7482   -2.9478 C.3     1  LIG1        0.0804
     11 H          -7.2188   -3.5453   -3.6285 H       1  LIG1        0.0660
     12 H          -7.7384   -2.5352   -2.2505 H       1  LIG1        0.0660
     13 H          -6.6879   -1.8443   -3.5155 H       1  LIG1        0.0660
     14 H          -3.3544   -0.1249    1.0374 H       1  LIG1        0.0639
     15 C          -6.8894    1.2918   -0.7273 C.ar    1  LIG1        0.2223
     16 C          -5.6982    0.9139   -0.0503 C.ar    1  LIG1        0.0621
     17 C          -5.2051    1.8418    0.8596 C.ar    1  LIG1       -0.0425
     18 C          -5.8041    3.0796    1.0838 C.ar    1  LIG1       -0.0236
     19 C          -6.9461    3.3479    0.3219 C.ar    1  LIG1        0.0790
     20 N          -7.4710    2.4627   -0.5309 N.ar    1  LIG1       -0.2122
     21 H          -4.3252    1.5990    1.4458 H       1  LIG1        0.0629
     22 O          -7.5133    0.4984   -1.5925 O.3     1  LIG1       -0.4919
     23 H          -7.0060   -0.3558   -1.6135 H       1  LIG1        0.2937
     24 C          -5.2489    4.0009    2.1378 C.3     1  LIG1       -0.0377
     25 H          -6.0157    4.6698    2.5334 H       1  LIG1        0.0278
     26 H          -4.4402    4.6242    1.7480 H       1  LIG1        0.0278
     27 H          -4.8532    3.4208    2.9754 H       1  LIG1        0.0278
     28 C          -7.2765    5.8996    0.2251 C.ar    1  LIG1        0.0617
     29 C          -8.1496    6.9866    0.1912 C.ar    1  LIG1       -0.0317
     30 C          -7.7601    4.5941    0.4099 C.ar    1  LIG1        0.0193
     31 C          -9.5303    6.8237    0.3264 C.ar    1  LIG1        0.0376
     32 H          -7.7527    7.9780    0.0153 H       1  LIG1        0.0638
     33 C          -9.1308    4.4422    0.5664 C.ar    1  LIG1       -0.0352
     34 C         -10.0245    5.5113    0.5321 C.ar    1  LIG1        0.0361
     35 H          -9.5248    3.4425    0.6983 H       1  LIG1        0.0637
     36 N          -4.7742    6.3915   -0.2423 N.1     1  LIG1       -0.1908
     37 C          -5.8872    6.1575   -0.0310 C.1     1  LIG1        0.0998
     38 C         -11.4052    5.1613    0.7052 C.1     1  LIG1       -0.0689
     39 C         -12.5193    4.7295    0.8717 C.1     1  LIG1       -0.1139
     40 H         -13.5158    4.3708    1.0071 H       1  LIG1        0.1232
     41 C         -10.4011    7.9732    0.1983 C.ar    1  LIG1        0.1797
     42 C         -10.2202    9.3311    0.1814 C.ar    1  LIG1        0.1838
     43 C         -11.5143    9.9335   -0.0477 C.ar    1  LIG1        0.1412
     44 C         -12.4001    8.8757   -0.1646 C.ar    1  LIG1        0.1764
     45 O         -11.7279    7.7222   -0.0209 O.2     1  LIG1       -0.4481
     46 O          -9.0131    9.9047    0.3241 O.3     1  LIG1       -0.4901
     47 C          -8.9361   11.2567    0.7708 C.3     1  LIG1        0.0790
     48 H          -7.8871   11.4274    1.0090 H       1  LIG1        0.0660
     49 H          -9.2541   11.9516   -0.0083 H       1  LIG1        0.0660
     50 H          -9.5451   11.4091    1.6662 H       1  LIG1        0.0660
     51 N         -12.0224   12.4510   -0.2459 N.1     1  LIG1       -0.1906
     52 C         -11.8169   11.3146   -0.1598 C.1     1  LIG1        0.1068
     53 C         -13.7927    8.6687   -0.3994 C.ar    1  LIG1        0.1262
     54 C         -14.8797    9.4899   -0.6929 C.ar    1  LIG1        0.1490
     55 C         -16.0139    8.6706   -0.8679 C.ar    1  LIG1        0.0092
     56 C         -15.5911    7.3583   -0.6774 C.ar    1  LIG1        0.0863
     57 N         -14.2671    7.3750   -0.3977 N.ar    1  LIG1       -0.3464
     58 H         -13.6911    6.5620   -0.2213 H       1  LIG1        0.1662
     59 O         -14.7628   10.8257   -0.7752 O.3     1  LIG1       -0.4929
     60 C         -15.9359   11.5518   -1.0834 C.3     1  LIG1        0.0789
     61 H         -15.6442   12.6006   -1.1095 H       1  LIG1        0.0660
     62 H         -16.3376   11.2583   -2.0601 H       1  LIG1        0.0660
     63 H         -16.7051   11.4044   -0.3168 H       1  LIG1        0.0660
     64 H         -17.0204    8.9855   -1.0930 H       1  LIG1        0.0677
     65 C         -16.2949    6.1013   -0.7326 C.ar    1  LIG1        0.1539
     66 C         -17.5359    5.7231   -1.1495 C.ar    1  LIG1        0.0071
     67 C         -17.6031    4.3052   -0.9911 C.ar    1  LIG1        0.0747
     68 C         -16.3974    3.9132   -0.4695 C.ar    1  LIG1        0.1915
     69 O         -15.5928    5.0203   -0.3098 O.2     1  LIG1       -0.4483
     70 H         -18.3052    6.3683   -1.5471 H       1  LIG1        0.0675
     71 N         -18.6972    3.4994   -1.2870 N.pl3   1  LIG1       -0.3549
     72 H         -19.2642    3.8513   -2.0458 H       1  LIG1        0.1424
     73 H         -18.4495    2.5308   -1.4404 H       1  LIG1        0.1424
     74 C         -15.8894    2.6359   -0.0444 C.ar    1  LIG1        0.1790
     75 C         -16.4746    1.5952    0.6163 C.ar    1  LIG1        0.0408
     76 C         -15.4506    0.6013    0.7482 C.ar    1  LIG1        0.1707
     77 C         -14.3102    1.0927    0.1744 C.ar    1  LIG1        0.1947
     78 O         -14.5763    2.3446   -0.3164 O.2     1  LIG1       -0.4461
     79 C         -17.8412    1.5244    1.2155 C.3     1  LIG1       -0.0325
     80 H         -17.7963    0.9873    2.1662 H       1  LIG1        0.0280
     81 H         -18.5561    0.9940    0.5769 H       1  LIG1        0.0280
     82 H         -18.2440    2.5231    1.3928 H       1  LIG1        0.0280
     83 O         -15.5793   -0.5577    1.4401 O.3     1  LIG1       -0.4910
     84 C         -16.3339   -1.5672    0.7826 C.3     1  LIG1        0.0790
     85 H         -16.4088   -2.4009    1.4808 H       1  LIG1        0.0660
     86 H         -17.3410   -1.2149    0.5326 H       1  LIG1        0.0660
     87 H         -15.8242   -1.9044   -0.1243 H       1  LIG1        0.0660
     88 C         -12.9474    0.6381    0.0199 C.ar    1  LIG1        0.1026
     89 C         -12.3275   -0.5936    0.1961 C.ar    1  LIG1        0.0684
     90 C         -10.9354   -0.4083   -0.1167 C.ar    1  LIG1        0.0580
     91 C         -10.7673    0.9087   -0.4817 C.ar    1  LIG1        0.0189
     92 N         -11.9801    1.5208   -0.3949 N.ar    1  LIG1       -0.3560
     93 H         -12.1519    2.5021   -0.5581 H       1  LIG1        0.1655
     94 H          -9.8750    1.4301   -0.7998 H       1  LIG1        0.0820
     95 C         -12.8884   -1.8418    0.5691 C.1     1  LIG1       -0.0662
     96 C         -13.2831   -2.9429    0.8575 C.1     1  LIG1       -0.1138
     97 H         -13.6311   -3.9106    1.1341 H       1  LIG1        0.1232
     98 C          -9.9289   -1.4068   -0.0248 C.1     1  LIG1       -0.0669
     99 C          -9.0965   -2.2705    0.0897 C.1     1  LIG1       -0.1138
    100 H          -8.3609   -3.0291    0.2234 H       1  LIG1        0.1232
@<TRIPOS>BOND
     1    11    10    1
     2    13    10    1
     3    10     9    1
     4    10    12    1
     5     9     1    1
     6    62    60    1
     7    72    71    1
     8    23    22    1
     9    22    15    1
    10    70    66    1
    11    73    71    1
    12     1     6   ar
    13     1     2   ar
    14    71    67    1
    15    66    67   ar
    16    66    65   ar
    17     6     5   ar
    18    61    60    1
    19    64    55    1
    20    60    59    1
    21    60    63    1
    22     8     2    1
    23    67    68   ar
    24    55    54   ar
    25    55    56   ar
    26     2     3   ar
    27    94    91    1
    28    59    54    1
    29    65    56    1
    30    65    69   ar
    31    15    20   ar
    32    15    16   ar
    33    54    53   ar
    34    56    57   ar
    35    93    92    1
    36    20    19   ar
    37    91    92   ar
    38    91    90   ar
    39    68    69   ar
    40    68    74    1
    41    53    57   ar
    42    53    44    1
    43    57    58    1
    44    92    88   ar
    45    78    74   ar
    46    78    77   ar
    47     5    16    1
    48     5     4   ar
    49    51    52    3
    50    36    37    3
    51    44    43   ar
    52    44    45   ar
    53    52    43    1
    54    87    84    1
    55    90    98    1
    56    90    89   ar
    57    16    17   ar
    58    43    42   ar
    59    74    75   ar
    60    37    28    1
    61    98    99    3
    62    45    41   ar
    63    49    47    1
    64    32    29    1
    65    88    77    1
    66    88    89   ar
    67     3     4   ar
    68     3     7    1
    69    99   100    1
    70    77    76   ar
    71    42    41   ar
    72    42    46    1
    73    29    28   ar
    74    29    31   ar
    75    89    95    1
    76    41    31    1
    77    28    30   ar
    78    19    30    1
    79    19    18   ar
    80    46    47    1
    81    31    34   ar
    82     4    14    1
    83    30    33   ar
    84    34    33   ar
    85    34    38    1
    86    86    84    1
    87    33    35    1
    88    95    96    3
    89    81    79    1
    90    75    76   ar
    91    75    79    1
    92    38    39    3
    93    76    83    1
    94    47    48    1
    95    47    50    1
    96    84    83    1
    97    84    85    1
    98    96    97    1
    99    17    18   ar
   100    17    21    1
   101    39    40    1
   102    18    24    1
   103    79    82    1
   104    79    80    1
   105    26    24    1
   106    24    25    1
   107    24    27    1
