@<TRIPOS>MOLECULE
mol_data/opt/cam/geoms/mol2/6ld12fd13dh-6df.out
 47 50 0 0 0
SMALL
GASTEIGER

@<TRIPOS>ATOM
      1 C          -4.3656   -2.0012   -0.0200 C.ar    1  LIG1        0.2151
      2 C          -3.0478   -2.0345    0.4732 C.ar    1  LIG1        0.0012
      3 C          -2.4983   -0.8499    0.8882 C.ar    1  LIG1       -0.0371
      4 C          -3.2402    0.3430    0.7953 C.ar    1  LIG1        0.0811
      5 C          -4.5232    0.2712    0.2380 C.ar    1  LIG1        0.1308
      6 N          -5.0702   -0.8920   -0.1418 N.ar    1  LIG1       -0.2084
      7 H          -1.4981   -0.8182    1.3055 H       1  LIG1        0.0633
      8 H          -2.5166   -2.9758    0.5271 H       1  LIG1        0.0671
      9 O          -4.9021   -3.1651   -0.3867 O.3     1  LIG1       -0.4796
     10 C          -6.2406   -3.1417   -0.8912 C.3     1  LIG1        0.0804
     11 H          -6.4726   -4.1754   -1.1413 H       1  LIG1        0.0660
     12 H          -6.9354   -2.7658   -0.1398 H       1  LIG1        0.0660
     13 H          -6.3182   -2.5059   -1.7735 H       1  LIG1        0.0660
     14 N          -2.2354    2.4884    1.8313 N.1     1  LIG1       -0.1908
     15 C          -2.6964    1.5456    1.3442 C.1     1  LIG1        0.1014
     16 C          -5.3591    1.4460    0.0257 C.ar    1  LIG1        0.1977
     17 C          -5.1263    2.7322   -0.3721 C.ar    1  LIG1        0.1827
     18 C          -6.4049    3.3704   -0.5017 C.ar    1  LIG1        0.1409
     19 C          -7.3396    2.4147   -0.1777 C.ar    1  LIG1        0.1742
     20 O          -6.7174    1.2648    0.1263 O.2     1  LIG1       -0.4466
     21 O          -3.9345    3.2620   -0.6658 O.3     1  LIG1       -0.5023
     22 H          -4.0130    4.2160   -0.8038 H       1  LIG1        0.2923
     23 N          -6.5332    5.7675   -1.4205 N.1     1  LIG1       -0.1906
     24 C          -6.5479    4.6925   -0.9911 C.1     1  LIG1        0.1067
     25 C          -8.7774    2.3624   -0.1207 C.ar    1  LIG1        0.1034
     26 C          -9.7617    3.3470   -0.0407 C.ar    1  LIG1        0.1012
     27 C         -11.0209    2.6889   -0.0104 C.ar    1  LIG1        0.0686
     28 C         -10.7766    1.3180   -0.0597 C.ar    1  LIG1        0.0721
     29 N          -9.4042    1.1642   -0.1365 N.ar    1  LIG1       -0.3491
     30 H          -8.9097    0.2878   -0.2375 H       1  LIG1        0.1661
     31 N          -9.6313    5.9077    0.1608 N.1     1  LIG1       -0.1907
     32 C          -9.6287    4.7537    0.0606 C.1     1  LIG1        0.1033
     33 N         -12.2403    3.3411    0.0979 N.pl3   1  LIG1       -0.3553
     34 H         -12.1622    4.3463    0.0035 H       1  LIG1        0.1424
     35 H         -12.9730    2.9740   -0.4948 H       1  LIG1        0.1424
     36 C         -11.4795   -1.0983   -0.4435 C.ar    1  LIG1        0.1494
     37 C         -11.7286    0.2161    0.0132 C.ar    1  LIG1        0.0394
     38 C         -12.9880    0.4362    0.5822 C.ar    1  LIG1       -0.0068
     39 C         -13.9093   -0.5956    0.6500 C.ar    1  LIG1        0.1356
     40 C         -13.5543   -1.8546    0.1520 C.ar    1  LIG1        0.0705
     41 N         -12.3672   -2.0931   -0.3698 N.ar    1  LIG1       -0.2403
     42 H         -13.2446    1.3994    1.0055 H       1  LIG1        0.0662
     43 H         -14.2567   -2.6861    0.1874 H       1  LIG1        0.0867
     44 N          -9.1855   -1.7537   -1.4688 N.1     1  LIG1       -0.1893
     45 C         -10.2171   -1.4724   -1.0258 C.1     1  LIG1        0.1198
     46 O         -15.1105   -0.3422    1.2071 O.3     1  LIG1       -0.5052
     47 H         -15.6492   -1.1434    1.2189 H       1  LIG1        0.2922
@<TRIPOS>BOND
     1    13    10    1
     2    44    45    3
     3    23    24    3
     4    11    10    1
     5    45    36    1
     6    24    18    1
     7    10     9    1
     8    10    12    1
     9    22    21    1
    10    21    17    1
    11    18    17   ar
    12    18    19   ar
    13    35    33    1
    14    36    41   ar
    15    36    37   ar
    16     9     1    1
    17    17    16   ar
    18    41    40   ar
    19    30    29    1
    20    19    25    1
    21    19    20   ar
    22     6     1   ar
    23     6     5   ar
    24    29    25   ar
    25    29    28   ar
    26    25    26   ar
    27    28    27   ar
    28    28    37    1
    29    26    27   ar
    30    26    32    1
    31     1     2   ar
    32    27    33    1
    33    34    33    1
    34    37    38   ar
    35    16    20   ar
    36    16     5    1
    37    32    31    3
    38    40    43    1
    39    40    39   ar
    40     5     4   ar
    41     2     8    1
    42     2     3   ar
    43    38    39   ar
    44    38    42    1
    45    39    46    1
    46     4     3   ar
    47     4    15    1
    48     3     7    1
    49    46    47    1
    50    15    14    3
