@<TRIPOS>MOLECULE
mol_data/opt/cam/geoms/mol2/6ld12ae12ee-13fh.out
 47 50 0 0 0
SMALL
GASTEIGER

@<TRIPOS>ATOM
      1 C          -4.3706   -1.9473    0.6926 C.ar    1  LIG1        0.2151
      2 C          -2.9805   -2.0124    0.5001 C.ar    1  LIG1        0.0012
      3 C          -2.3598   -0.8709    0.0634 C.ar    1  LIG1       -0.0371
      4 C          -3.1075    0.2964   -0.1713 C.ar    1  LIG1        0.0809
      5 C          -4.4943    0.2560    0.0542 C.ar    1  LIG1        0.1271
      6 N          -5.0931   -0.8665    0.4780 N.ar    1  LIG1       -0.2085
      7 H          -1.2891   -0.8523   -0.1064 H       1  LIG1        0.0633
      8 H          -2.4465   -2.9327    0.6962 H       1  LIG1        0.0671
      9 O          -4.9721   -3.0619    1.1221 O.3     1  LIG1       -0.4796
     10 C          -6.3790   -3.0000    1.3461 C.3     1  LIG1        0.0804
     11 H          -6.6586   -3.9905    1.7020 H       1  LIG1        0.0660
     12 H          -6.6228   -2.2410    2.0919 H       1  LIG1        0.0660
     13 H          -6.9104   -2.7606    0.4227 H       1  LIG1        0.0660
     14 N          -1.8420    2.3920   -1.0019 N.1     1  LIG1       -0.1908
     15 C          -2.4219    1.4613   -0.6307 C.1     1  LIG1        0.1014
     16 C          -5.3755    1.4022   -0.1433 C.ar    1  LIG1        0.1565
     17 C          -5.1896    2.7110   -0.4815 C.ar    1  LIG1        0.0019
     18 C          -6.4802    3.3199   -0.5043 C.ar    1  LIG1        0.0741
     19 C          -7.3685    2.3256   -0.1568 C.ar    1  LIG1        0.1872
     20 O          -6.7042    1.1680    0.0551 O.2     1  LIG1       -0.4488
     21 H          -4.2592    3.2048   -0.7080 H       1  LIG1        0.0668
     22 C          -6.7694    4.6527   -0.8956 C.1     1  LIG1       -0.0657
     23 C          -6.9906    5.7799   -1.2531 C.1     1  LIG1       -0.1138
     24 H          -7.2023    6.7750   -1.5696 H       1  LIG1        0.1232
     25 C          -8.7974    2.2775   -0.0016 C.ar    1  LIG1        0.1884
     26 C          -9.7416    3.1559    0.4545 C.ar    1  LIG1        0.0895
     27 C         -11.0151    2.4786    0.3545 C.ar    1  LIG1        0.0880
     28 C         -10.7405    1.2255   -0.1405 C.ar    1  LIG1        0.1721
     29 O          -9.4016    1.1051   -0.3538 O.2     1  LIG1       -0.4476
     30 C          -9.5357    4.4485    0.9974 C.1     1  LIG1       -0.0645
     31 C          -9.3768    5.5378    1.4821 C.1     1  LIG1       -0.1138
     32 H          -9.2256    6.5011    1.9114 H       1  LIG1        0.1232
     33 C         -12.2619    3.0425    0.7210 C.1     1  LIG1       -0.0646
     34 C         -13.2970    3.5646    1.0422 C.1     1  LIG1       -0.1138
     35 H         -14.2239    4.0082    1.3220 H       1  LIG1        0.1232
     36 C         -11.4915    0.0535   -0.4870 C.ar    1  LIG1        0.1272
     37 C         -12.8257   -0.3077   -0.4137 C.ar    1  LIG1        0.1659
     38 C         -12.9571   -1.6241   -0.9217 C.ar    1  LIG1        0.0849
     39 C         -11.6987   -2.0458   -1.2962 C.ar    1  LIG1        0.0268
     40 N         -10.8287   -1.0392   -1.0319 N.ar    1  LIG1       -0.3536
     41 H          -9.8369   -1.0439   -1.2023 H       1  LIG1        0.1656
     42 H         -11.3695   -2.9794   -1.7271 H       1  LIG1        0.0827
     43 O         -13.8668    0.4055    0.0491 O.3     1  LIG1       -0.5030
     44 H         -14.6325   -0.1862   -0.0593 H       1  LIG1        0.2923
     45 N         -14.2376   -2.2412   -0.9594 N.pl3   1  LIG1       -0.3540
     46 H         -14.5388   -2.4634   -1.9015 H       1  LIG1        0.1425
     47 H         -14.2840   -3.0856   -0.4006 H       1  LIG1        0.1425
@<TRIPOS>BOND
     1    46    45    1
     2    42    39    1
     3    24    23    1
     4    39    40   ar
     5    39    38   ar
     6    23    22    3
     7    41    40    1
     8    40    36   ar
     9    14    15    3
    10    45    38    1
    11    45    47    1
    12    38    37   ar
    13    22    18    1
    14    21    17    1
    15    15     4    1
    16    18    17   ar
    17    18    19   ar
    18    36    37   ar
    19    36    28    1
    20    17    16   ar
    21    37    43    1
    22    29    28   ar
    23    29    25   ar
    24     4     5   ar
    25     4     3   ar
    26    19    25    1
    27    19    20   ar
    28    16     5    1
    29    16    20   ar
    30    28    27   ar
    31     7     3    1
    32    44    43    1
    33    25    26   ar
    34     5     6   ar
    35     3     2   ar
    36    27    26   ar
    37    27    33    1
    38    13    10    1
    39    26    30    1
    40     6     1   ar
    41     2     1   ar
    42     2     8    1
    43     1     9    1
    44    33    34    3
    45    30    31    3
    46    34    35    1
    47     9    10    1
    48    10    11    1
    49    10    12    1
    50    31    32    1
