@<TRIPOS>MOLECULE
mol_data/opt/cam/geoms/mol2/6ld13ia6ad-13he.out
 49 52 0 0 0
SMALL
GASTEIGER

@<TRIPOS>ATOM
      1 C          -4.7384   -2.0293    0.6028 C.ar    1  LIG1        0.2151
      2 C          -3.4163   -2.3547    0.2534 C.ar    1  LIG1        0.0012
      3 C          -2.6666   -1.3684   -0.3311 C.ar    1  LIG1       -0.0372
      4 C          -3.2110   -0.0846   -0.5263 C.ar    1  LIG1        0.0794
      5 C          -4.5124    0.1667   -0.0653 C.ar    1  LIG1        0.1085
      6 N          -5.2604   -0.8280    0.4578 N.ar    1  LIG1       -0.2101
      7 H          -1.6558   -1.5682   -0.6689 H       1  LIG1        0.0633
      8 H          -3.0421   -3.3555    0.4233 H       1  LIG1        0.0671
      9 O          -5.4801   -3.0170    1.1175 O.3     1  LIG1       -0.4796
     10 C          -6.8165   -2.7121    1.5015 C.3     1  LIG1        0.0804
     11 H          -7.2105   -3.6295    1.9360 H       1  LIG1        0.0660
     12 H          -6.8390   -1.9025    2.2339 H       1  LIG1        0.0660
     13 H          -7.4158   -2.4218    0.6349 H       1  LIG1        0.0660
     14 N          -1.8272    1.5714   -1.9490 N.1     1  LIG1       -0.1908
     15 C          -2.4597    0.8587   -1.2917 C.1     1  LIG1        0.1014
     16 C          -5.1885    1.4568   -0.1322 C.ar    1  LIG1        0.0697
     17 C          -4.7881    2.7841   -0.0031 C.ar    1  LIG1       -0.0231
     18 C          -5.9685    3.5611   -0.0524 C.ar    1  LIG1       -0.0328
     19 C          -7.0519    2.7140   -0.1952 C.ar    1  LIG1        0.0487
     20 N          -6.5600    1.4447   -0.2417 N.ar    1  LIG1       -0.3527
     21 H          -7.0850    0.5865   -0.1771 H       1  LIG1        0.1660
     22 C          -3.4204    3.3438    0.2358 C.3     1  LIG1       -0.0376
     23 H          -3.4972    4.2692    0.8115 H       1  LIG1        0.0278
     24 H          -2.8941    3.5650   -0.6958 H       1  LIG1        0.0278
     25 H          -2.7910    2.6520    0.8002 H       1  LIG1        0.0278
     26 H          -6.0104    4.6403   -0.0064 H       1  LIG1        0.0642
     27 C          -9.3628    2.1436   -0.9734 C.ar    1  LIG1        0.0375
     28 C          -8.4778    3.0007   -0.3046 C.ar    1  LIG1        0.0177
     29 C          -9.0380    4.1649    0.2049 C.ar    1  LIG1       -0.0316
     30 C         -10.4063    4.4030    0.0828 C.ar    1  LIG1        0.0798
     31 C         -11.2396    3.4170   -0.4998 C.ar    1  LIG1        0.1062
     32 N         -10.6666    2.3274   -1.0565 N.ar    1  LIG1       -0.2515
     33 H          -8.4135    4.9078    0.6887 H       1  LIG1        0.0638
     34 H          -8.9783    1.2616   -1.4827 H       1  LIG1        0.0836
     35 N         -11.2637    6.7441    0.7665 N.1     1  LIG1       -0.1908
     36 C         -10.8918    5.6867    0.4744 C.1     1  LIG1        0.1014
     37 C         -12.6805    3.4468   -0.5985 C.ar    1  LIG1        0.0884
     38 C         -13.7434    4.0547    0.0839 C.ar    1  LIG1        0.0673
     39 C         -14.9502    3.5122   -0.4645 C.ar    1  LIG1        0.0632
     40 C         -14.5898    2.5932   -1.4341 C.ar    1  LIG1        0.0195
     41 N         -13.2525    2.5616   -1.5090 N.ar    1  LIG1       -0.3568
     42 H         -12.6730    1.9471   -2.0593 H       1  LIG1        0.1655
     43 H         -15.2176    1.9839   -2.0661 H       1  LIG1        0.0820
     44 N         -13.7514    4.9055    1.1628 N.pl3   1  LIG1       -0.3553
     45 H         -13.0570    5.6371    1.2033 H       1  LIG1        0.1424
     46 H         -14.6798    5.2270    1.4010 H       1  LIG1        0.1424
     47 C         -16.2569    3.8760   -0.0499 C.1     1  LIG1       -0.0663
     48 C         -17.3458    4.2204    0.3367 C.1     1  LIG1       -0.1138
     49 H         -18.3166    4.5116    0.6651 H       1  LIG1        0.1232
@<TRIPOS>BOND
     1    43    40    1
     2    42    41    1
     3    14    15    3
     4    41    40   ar
     5    41    37   ar
     6    34    27    1
     7    40    39   ar
     8    15     4    1
     9    32    27   ar
    10    32    31   ar
    11    27    28   ar
    12    24    22    1
    13     7     3    1
    14    37    31    1
    15    37    38   ar
    16     4     3   ar
    17     4     5   ar
    18    31    30   ar
    19    39    47    1
    20    39    38   ar
    21     3     2   ar
    22    28    19    1
    23    28    29   ar
    24    20    19   ar
    25    20    21    1
    26    20    16   ar
    27    19    18   ar
    28    16     5    1
    29    16    17   ar
    30     5     6   ar
    31    18    26    1
    32    18    17   ar
    33    47    48    3
    34    17    22    1
    35    30    29   ar
    36    30    36    1
    37    38    44    1
    38    29    33    1
    39    22    25    1
    40    22    23    1
    41     2     8    1
    42     2     1   ar
    43    48    49    1
    44     6     1   ar
    45    36    35    3
    46     1     9    1
    47    13    10    1
    48     9    10    1
    49    44    45    1
    50    44    46    1
    51    10    11    1
    52    10    12    1
