@<TRIPOS>MOLECULE
mol_data/opt/cam/geoms/mol2/6ld6ld6ld6ld.out
 58 61 0 0 0
SMALL
GASTEIGER

@<TRIPOS>ATOM
      1 C          -3.7863   -1.7815   -0.8670 C.ar    1  LIG1        0.2150
      2 C          -3.1935   -2.3696    0.2640 C.ar    1  LIG1        0.0012
      3 C          -3.4448   -1.7923    1.4813 C.ar    1  LIG1       -0.0372
      4 C          -4.2707   -0.6551    1.5555 C.ar    1  LIG1        0.0781
      5 C          -4.8034   -0.1439    0.3683 C.ar    1  LIG1        0.0972
      6 N          -4.5549   -0.7086   -0.8177 N.ar    1  LIG1       -0.2114
      7 H          -3.0218   -2.2044    2.3905 H       1  LIG1        0.0633
      8 H          -2.5693   -3.2464    0.1507 H       1  LIG1        0.0671
      9 O          -3.5389   -2.3587   -2.0456 O.3     1  LIG1       -0.4796
     10 C          -4.1443   -1.7777   -3.1997 C.3     1  LIG1        0.0804
     11 H          -3.8461   -2.4126   -4.0325 H       1  LIG1        0.0660
     12 H          -5.2312   -1.7582   -3.1000 H       1  LIG1        0.0660
     13 H          -3.7890   -0.7565   -3.3524 H       1  LIG1        0.0660
     14 N          -4.7789    0.3865    3.8695 N.1     1  LIG1       -0.1908
     15 C          -4.5604   -0.0700    2.8290 C.1     1  LIG1        0.1013
     16 C          -6.9540    1.0565   -0.2203 C.ar    1  LIG1        0.2245
     17 C          -5.6587    1.0702    0.3500 C.ar    1  LIG1        0.0645
     18 C          -5.2303    2.2709    0.8700 C.ar    1  LIG1       -0.0279
     19 C          -6.0484    3.4095    0.8008 C.ar    1  LIG1        0.0787
     20 C          -7.2993    3.2890    0.1896 C.ar    1  LIG1        0.0973
     21 N          -7.7261    2.1230   -0.3016 N.ar    1  LIG1       -0.2109
     22 H          -4.2544    2.3474    1.3359 H       1  LIG1        0.0639
     23 O          -7.4135   -0.1096   -0.6746 O.3     1  LIG1       -0.4792
     24 C          -8.7362   -0.1280   -1.2104 C.3     1  LIG1        0.0804
     25 H          -8.9243   -1.1676   -1.4740 H       1  LIG1        0.0660
     26 H          -9.4597    0.2200   -0.4710 H       1  LIG1        0.0660
     27 H          -8.8054    0.5093   -2.0942 H       1  LIG1        0.0660
     28 N          -5.2007    5.6422    1.7980 N.1     1  LIG1       -0.1908
     29 C          -5.5908    4.6473    1.3548 C.1     1  LIG1        0.1013
     30 C          -9.5482    4.4050    0.5142 C.ar    1  LIG1        0.2245
     31 C          -8.2174    4.4447    0.0329 C.ar    1  LIG1        0.0645
     32 C          -7.8282    5.6036   -0.6008 C.ar    1  LIG1       -0.0279
     33 C          -8.7347    6.6619   -0.7687 C.ar    1  LIG1        0.0787
     34 C         -10.0343    6.5046   -0.2789 C.ar    1  LIG1        0.0973
     35 N         -10.4109    5.3896    0.3516 N.ar    1  LIG1       -0.2109
     36 H          -6.8175    5.7073   -0.9785 H       1  LIG1        0.0639
     37 O          -9.9275    3.3183    1.1861 O.3     1  LIG1       -0.4792
     38 C         -11.2508    3.3076    1.7214 C.3     1  LIG1        0.0804
     39 H         -11.3302    2.3704    2.2699 H       1  LIG1        0.0660
     40 H         -11.4068    4.1586    2.3867 H       1  LIG1        0.0660
     41 H         -11.9929    3.3481    0.9217 H       1  LIG1        0.0660
     42 N          -7.9542    8.8175   -1.9696 N.1     1  LIG1       -0.1908
     43 C          -8.3112    7.8611   -1.4254 C.1     1  LIG1        0.1013
     44 C         -11.7720    8.0809    0.6656 C.ar    1  LIG1        0.2240
     45 C         -11.0740    7.5511   -0.4466 C.ar    1  LIG1        0.0644
     46 C         -11.4181    8.0369   -1.6905 C.ar    1  LIG1       -0.0285
     47 C         -12.4377    8.9920   -1.8107 C.ar    1  LIG1        0.0707
     48 C         -13.0663    9.4234   -0.6488 C.ar    1  LIG1        0.0488
     49 N         -12.7355    8.9818    0.5616 N.ar    1  LIG1       -0.2195
     50 H         -10.9116    7.6761   -2.5784 H       1  LIG1        0.0639
     51 H         -13.8670   10.1559   -0.6988 H       1  LIG1        0.0844
     52 O         -11.4081    7.6577    1.8759 O.3     1  LIG1       -0.4792
     53 C         -12.0784    8.2245    3.0012 C.3     1  LIG1        0.0804
     54 H         -11.6233    7.7547    3.8717 H       1  LIG1        0.0660
     55 H         -11.9374    9.3064    3.0334 H       1  LIG1        0.0660
     56 H         -13.1483    8.0111    2.9645 H       1  LIG1        0.0660
     57 N         -13.1725    9.9044   -4.1179 N.1     1  LIG1       -0.1908
     58 C         -12.8382    9.4986   -3.0875 C.1     1  LIG1        0.1007
@<TRIPOS>BOND
     1    57    58    3
     2    11    10    1
     3    13    10    1
     4    10    12    1
     5    10     9    1
     6    58    47    1
     7    50    46    1
     8    27    24    1
     9     9     1    1
    10    42    43    3
    11    47    46   ar
    12    47    48   ar
    13    46    45   ar
    14    25    24    1
    15    43    33    1
    16    24    23    1
    17    24    26    1
    18    36    32    1
    19     1     6   ar
    20     1     2   ar
    21     6     5   ar
    22    33    32   ar
    23    33    34   ar
    24    51    48    1
    25    23    16    1
    26    48    49   ar
    27    32    31   ar
    28    45    34    1
    29    45    44   ar
    30    21    16   ar
    31    21    20   ar
    32    34    35   ar
    33    16    17   ar
    34    31    20    1
    35    31    30   ar
    36     8     2    1
    37    20    19   ar
    38     2     3   ar
    39    17     5    1
    40    17    18   ar
    41    35    30   ar
    42     5     4   ar
    43    30    37    1
    44    49    44   ar
    45    44    52    1
    46    19    18   ar
    47    19    29    1
    48    18    22    1
    49    41    38    1
    50    37    38    1
    51    29    28    3
    52     3     4   ar
    53     3     7    1
    54     4    15    1
    55    38    39    1
    56    38    40    1
    57    52    53    1
    58    15    14    3
    59    56    53    1
    60    53    55    1
    61    53    54    1
