@<TRIPOS>MOLECULE
mol_data/opt/cam/geoms/mol2/6ld6ld6ld.out
 44 46 0 0 0
SMALL
GASTEIGER

@<TRIPOS>ATOM
      1 C          -4.2299   -1.9661   -0.7368 C.ar    1  LIG1        0.2150
      2 C          -3.2618   -2.2697    0.2362 C.ar    1  LIG1        0.0012
      3 C          -3.0695   -1.3586    1.2418 C.ar    1  LIG1       -0.0372
      4 C          -3.8323   -0.1760    1.2655 C.ar    1  LIG1        0.0781
      5 C          -4.7632    0.0333    0.2436 C.ar    1  LIG1        0.0972
      6 N          -4.9469   -0.8570   -0.7367 N.ar    1  LIG1       -0.2114
      7 H          -2.3421   -1.5396    2.0251 H       1  LIG1        0.0633
      8 H          -2.7055   -3.1959    0.1724 H       1  LIG1        0.0671
      9 O          -4.4123   -2.8661   -1.7066 O.3     1  LIG1       -0.4796
     10 C          -5.4012   -2.5746   -2.6931 C.3     1  LIG1        0.0804
     11 H          -5.4111   -3.4385   -3.3558 H       1  LIG1        0.0660
     12 H          -6.3801   -2.4319   -2.2315 H       1  LIG1        0.0660
     13 H          -5.1418   -1.6708   -3.2484 H       1  LIG1        0.0660
     14 N          -3.4908    1.5043    3.2040 N.1     1  LIG1       -0.1908
     15 C          -3.6545    0.7613    2.3322 C.1     1  LIG1        0.1013
     16 C          -6.9998    1.2133    0.1119 C.ar    1  LIG1        0.2245
     17 C          -5.5866    1.2671    0.1705 C.ar    1  LIG1        0.0645
     18 C          -5.0191    2.5211    0.1366 C.ar    1  LIG1       -0.0279
     19 C          -5.8252    3.6647    0.0232 C.ar    1  LIG1        0.0787
     20 C          -7.2098    3.4934   -0.0572 C.ar    1  LIG1        0.0973
     21 N          -7.7659    2.2805   -0.0072 N.ar    1  LIG1       -0.2109
     22 H          -3.9427    2.6355    0.1936 H       1  LIG1        0.0639
     23 O          -7.5737    0.0135    0.2066 O.3     1  LIG1       -0.4792
     24 C          -9.0001   -0.0325    0.1908 C.3     1  LIG1        0.0804
     25 H          -9.2545   -1.0827    0.3248 H       1  LIG1        0.0660
     26 H          -9.4172    0.5721    0.9982 H       1  LIG1        0.0660
     27 H          -9.3896    0.3375   -0.7597 H       1  LIG1        0.0660
     28 N          -4.7091    5.9990   -0.0351 N.1     1  LIG1       -0.1908
     29 C          -5.2183    4.9607   -0.0036 C.1     1  LIG1        0.1013
     30 C          -9.2052    4.8612    0.6815 C.ar    1  LIG1        0.2240
     31 C          -8.1391    4.6396   -0.2232 C.ar    1  LIG1        0.0644
     32 C          -8.0162    5.5243   -1.2740 C.ar    1  LIG1       -0.0285
     33 C          -8.9415    6.5676   -1.4217 C.ar    1  LIG1        0.0707
     34 C          -9.9592    6.6734   -0.4815 C.ar    1  LIG1        0.0488
     35 N         -10.0832    5.8423    0.5497 N.ar    1  LIG1       -0.2195
     36 H          -7.2135    5.4111   -1.9937 H       1  LIG1        0.0639
     37 H         -10.7016    7.4621   -0.5643 H       1  LIG1        0.0844
     38 O          -9.2989    4.0444    1.7308 O.3     1  LIG1       -0.4792
     39 C         -10.3453    4.2942    2.6682 C.3     1  LIG1        0.0804
     40 H         -10.2287    3.5322    3.4371 H       1  LIG1        0.0660
     41 H         -10.2499    5.2917    3.1011 H       1  LIG1        0.0660
     42 H         -11.3234    4.2115    2.1904 H       1  LIG1        0.0660
     43 N          -8.8037    8.2301   -3.3996 N.1     1  LIG1       -0.1908
     44 C          -8.8593    7.4884   -2.5137 C.1     1  LIG1        0.1007
@<TRIPOS>BOND
     1    43    44    3
     2    11    10    1
     3    13    10    1
     4    10    12    1
     5    10     9    1
     6    44    33    1
     7    36    32    1
     8     9     1    1
     9    33    32   ar
    10    33    34   ar
    11    32    31   ar
    12    27    24    1
    13     1     6   ar
    14     1     2   ar
    15     6     5   ar
    16    37    34    1
    17    34    35   ar
    18    31    20    1
    19    31    30   ar
    20    20    21   ar
    21    20    19   ar
    22    28    29    3
    23    21    16   ar
    24    29    19    1
    25    19    18   ar
    26    16    17   ar
    27    16    23    1
    28    18    17   ar
    29    18    22    1
    30    17     5    1
    31     8     2    1
    32    24    23    1
    33    24    25    1
    34    24    26    1
    35     2     3   ar
    36     5     4   ar
    37    35    30   ar
    38    30    38    1
    39     3     4   ar
    40     3     7    1
    41     4    15    1
    42    38    39    1
    43    42    39    1
    44    15    14    3
    45    39    41    1
    46    39    40    1
