@<TRIPOS>MOLECULE
mol_data/opt/cam/geoms/mol2/6ld6ld.out
 30 31 0 0 0
SMALL
GASTEIGER

@<TRIPOS>ATOM
      1 C          -4.5285   -2.0162   -0.4083 C.ar    1  LIG1        0.2150
      2 C          -3.2608   -2.1290    0.1883 C.ar    1  LIG1        0.0012
      3 C          -2.7233   -0.9989    0.7471 C.ar    1  LIG1       -0.0372
      4 C          -3.4443    0.2091    0.7058 C.ar    1  LIG1        0.0781
      5 C          -4.6945    0.2149    0.0798 C.ar    1  LIG1        0.0972
      6 N          -5.2144   -0.8893   -0.4661 N.ar    1  LIG1       -0.2114
      7 H          -1.7520   -1.0238    1.2280 H       1  LIG1        0.0633
      8 H          -2.7513   -3.0838    0.1956 H       1  LIG1        0.0671
      9 O          -5.0439   -3.1268   -0.9428 O.3     1  LIG1       -0.4796
     10 C          -6.3354   -3.0267   -1.5409 C.3     1  LIG1        0.0804
     11 H          -6.5775   -4.0342   -1.8754 H       1  LIG1        0.0660
     12 H          -7.0725   -2.6732   -0.8174 H       1  LIG1        0.0660
     13 H          -6.3194   -2.3372   -2.3876 H       1  LIG1        0.0660
     14 N          -2.4304    2.3166    1.8140 N.1     1  LIG1       -0.1908
     15 C          -2.8968    1.3822    1.3158 C.1     1  LIG1        0.1013
     16 C          -6.8355    1.5114    0.4483 C.ar    1  LIG1        0.2240
     17 C          -5.5079    1.4524   -0.0388 C.ar    1  LIG1        0.0644
     18 C          -5.0141    2.5880   -0.6454 C.ar    1  LIG1       -0.0285
     19 C          -5.8297    3.7212   -0.7786 C.ar    1  LIG1        0.0707
     20 C          -7.1246    3.6539   -0.2796 C.ar    1  LIG1        0.0488
     21 N          -7.6132    2.5746    0.3256 N.ar    1  LIG1       -0.2195
     22 H          -4.0009    2.6057   -1.0305 H       1  LIG1        0.0639
     23 H          -7.7920    4.5062   -0.3707 H       1  LIG1        0.0844
     24 O          -7.3029    0.4368    1.0854 O.3     1  LIG1       -0.4792
     25 C          -8.6305    0.5053    1.6029 C.3     1  LIG1        0.0804
     26 H          -8.8020   -0.4582    2.0802 H       1  LIG1        0.0660
     27 H          -8.7243    1.3143    2.3299 H       1  LIG1        0.0660
     28 H          -9.3528    0.6698    0.8011 H       1  LIG1        0.0660
     29 N          -4.9848    5.8684   -1.9494 N.1     1  LIG1       -0.1908
     30 C          -5.3577    4.9085   -1.4227 C.1     1  LIG1        0.1007
@<TRIPOS>BOND
     1    13    10    1
     2    29    30    3
     3    11    10    1
     4    10     9    1
     5    10    12    1
     6    30    19    1
     7    22    18    1
     8     9     1    1
     9    19    18   ar
    10    19    20   ar
    11    18    17   ar
    12     6     1   ar
    13     6     5   ar
    14     1     2   ar
    15    23    20    1
    16    20    21   ar
    17    17     5    1
    18    17    16   ar
    19     5     4   ar
    20     2     8    1
    21     2     3   ar
    22    21    16   ar
    23    16    24    1
    24     4     3   ar
    25     4    15    1
    26     3     7    1
    27    28    25    1
    28    24    25    1
    29    15    14    3
    30    25    26    1
    31    25    27    1
