@<TRIPOS>MOLECULE
mol_data/opt/cam/geoms/mol2/6le6le6le.out
 47 49 0 0 0
SMALL
GASTEIGER

@<TRIPOS>ATOM
      1 C          -4.2187   -1.8808   -0.9664 C.ar    1  LIG1        0.2150
      2 C          -3.1922   -2.2077   -0.0674 C.ar    1  LIG1        0.0012
      3 C          -2.9357   -1.3177    0.9448 C.ar    1  LIG1       -0.0392
      4 C          -3.6870   -0.1320    1.0576 C.ar    1  LIG1        0.0510
      5 C          -4.6827    0.0945    0.0990 C.ar    1  LIG1        0.0952
      6 N          -4.9293   -0.7737   -0.8910 N.ar    1  LIG1       -0.2115
      7 H          -2.1588   -1.5186    1.6741 H       1  LIG1        0.0632
      8 H          -2.6418   -3.1321   -0.1873 H       1  LIG1        0.0671
      9 O          -4.4691   -2.7594   -1.9498 O.3     1  LIG1       -0.4796
     10 C          -5.5250   -2.4362   -2.8490 C.3     1  LIG1        0.0804
     11 H          -5.5947   -3.2823   -3.5317 H       1  LIG1        0.0660
     12 H          -6.4660   -2.2957   -2.3129 H       1  LIG1        0.0660
     13 H          -5.3029   -1.5199   -3.4008 H       1  LIG1        0.0660
     14 C          -3.4263    0.7711    2.1350 C.1     1  LIG1       -0.0675
     15 C          -3.1774    1.5049    3.0566 C.1     1  LIG1       -0.1138
     16 H          -2.9708    2.1638    3.8682 H       1  LIG1        0.1232
     17 C          -6.9268    1.2718    0.0961 C.ar    1  LIG1        0.2245
     18 C          -5.5147    1.3245    0.1016 C.ar    1  LIG1        0.0643
     19 C          -4.9535    2.5828    0.0841 C.ar    1  LIG1       -0.0299
     20 C          -5.7532    3.7372    0.0422 C.ar    1  LIG1        0.0516
     21 C          -7.1406    3.5581    0.0118 C.ar    1  LIG1        0.0953
     22 N          -7.6943    2.3410    0.0422 N.ar    1  LIG1       -0.2109
     23 H          -3.8756    2.6919    0.1033 H       1  LIG1        0.0639
     24 O          -7.5047    0.0657    0.1750 O.3     1  LIG1       -0.4792
     25 C          -8.9274    0.0334    0.2134 C.3     1  LIG1        0.0804
     26 H          -9.1892   -1.0181    0.3266 H       1  LIG1        0.0660
     27 H          -9.3106    0.6184    1.0521 H       1  LIG1        0.0660
     28 H          -9.3532    0.4347   -0.7091 H       1  LIG1        0.0660
     29 C          -5.1350    5.0267    0.0426 C.1     1  LIG1       -0.0675
     30 C          -4.5800    6.0951    0.0456 C.1     1  LIG1       -0.1138
     31 H          -4.1014    7.0472    0.0488 H       1  LIG1        0.1232
     32 C          -9.1296    4.8791    0.8552 C.ar    1  LIG1        0.2240
     33 C          -8.0844    4.7015   -0.0794 C.ar    1  LIG1        0.0643
     34 C          -7.9974    5.6290   -1.0976 C.ar    1  LIG1       -0.0305
     35 C          -8.9279    6.6759   -1.1915 C.ar    1  LIG1        0.0436
     36 C          -9.9214    6.7291   -0.2203 C.ar    1  LIG1        0.0468
     37 N         -10.0168    5.8563    0.7819 N.ar    1  LIG1       -0.2196
     38 H          -7.2087    5.5463   -1.8362 H       1  LIG1        0.0638
     39 H         -10.6717    7.5143   -0.2528 H       1  LIG1        0.0843
     40 O          -9.1961    4.0198    1.8810 O.3     1  LIG1       -0.4792
     41 C         -10.2340    4.2226    2.8327 C.3     1  LIG1        0.0804
     42 H         -10.1049    3.4339    3.5730 H       1  LIG1        0.0660
     43 H         -10.1498    5.2044    3.3039 H       1  LIG1        0.0660
     44 H         -11.2175    4.1479    2.3635 H       1  LIG1        0.0660
     45 C          -8.8676    7.6430   -2.2418 C.1     1  LIG1       -0.0681
     46 C          -8.8180    8.4582   -3.1263 C.1     1  LIG1       -0.1139
     47 H          -8.7751    9.1795   -3.9093 H       1  LIG1        0.1232
@<TRIPOS>BOND
     1    47    46    1
     2    11    10    1
     3    13    10    1
     4    46    45    3
     5    10    12    1
     6    10     9    1
     7    45    35    1
     8     9     1    1
     9    38    34    1
    10    35    34   ar
    11    35    36   ar
    12    34    33   ar
    13     1     6   ar
    14     1     2   ar
    15     6     5   ar
    16    28    25    1
    17    39    36    1
    18    36    37   ar
    19     8     2    1
    20    33    21    1
    21    33    32   ar
    22     2     3   ar
    23    21    22   ar
    24    21    20   ar
    25    22    17   ar
    26    20    29    1
    27    20    19   ar
    28    29    30    3
    29    30    31    1
    30    19    18   ar
    31    19    23    1
    32    17    18   ar
    33    17    24    1
    34     5    18    1
    35     5     4   ar
    36    24    25    1
    37    25    26    1
    38    25    27    1
    39    37    32   ar
    40    32    40    1
    41     3     4   ar
    42     3     7    1
    43     4    14    1
    44    40    41    1
    45    14    15    3
    46    44    41    1
    47    41    43    1
    48    41    42    1
    49    15    16    1
