@<TRIPOS>MOLECULE
mol_data/opt/cam/geoms/mol2/6le6le6le6le.out
 62 65 0 0 0
SMALL
GASTEIGER

@<TRIPOS>ATOM
      1 C          -3.7669   -1.6424   -1.2906 C.ar    1  LIG1        0.2150
      2 C          -3.0715   -2.2499   -0.2342 C.ar    1  LIG1        0.0012
      3 C          -3.2090   -1.6926    1.0120 C.ar    1  LIG1       -0.0392
      4 C          -4.0224   -0.5584    1.1988 C.ar    1  LIG1        0.0510
      5 C          -4.6638   -0.0315    0.0707 C.ar    1  LIG1        0.0952
      6 N          -4.5252   -0.5745   -1.1462 N.ar    1  LIG1       -0.2115
      7 H          -2.7013   -2.1217    1.8687 H       1  LIG1        0.0632
      8 H          -2.4605   -3.1240   -0.4202 H       1  LIG1        0.0671
      9 O          -3.6333   -2.1971   -2.5056 O.3     1  LIG1       -0.4796
     10 C          -4.3548   -1.5911   -3.5734 C.3     1  LIG1        0.0804
     11 H          -4.1495   -2.2062   -4.4488 H       1  LIG1        0.0660
     12 H          -5.4256   -1.5706   -3.3601 H       1  LIG1        0.0660
     13 H          -4.0174   -0.5658   -3.7418 H       1  LIG1        0.0660
     14 C          -4.1781   -0.0075    2.5091 C.1     1  LIG1       -0.0675
     15 C          -4.2844    0.4251    3.6277 C.1     1  LIG1       -0.1138
     16 H          -4.3905    0.8189    4.6122 H       1  LIG1        0.1232
     17 C          -6.8498    1.1834   -0.3383 C.ar    1  LIG1        0.2245
     18 C          -5.5219    1.1781    0.1447 C.ar    1  LIG1        0.0643
     19 C          -5.0610    2.3668    0.6674 C.ar    1  LIG1       -0.0299
     20 C          -5.8703    3.5150    0.6935 C.ar    1  LIG1        0.0516
     21 C          -7.1598    3.4054    0.1607 C.ar    1  LIG1        0.0953
     22 N          -7.6195    2.2522   -0.3372 N.ar    1  LIG1       -0.2109
     23 H          -4.0563    2.4244    1.0694 H       1  LIG1        0.0639
     24 O          -7.3504    0.0282   -0.7961 O.3     1  LIG1       -0.4792
     25 C          -8.7044    0.0413   -1.2360 C.3     1  LIG1        0.0804
     26 H          -8.9283   -0.9886   -1.5118 H       1  LIG1        0.0660
     27 H          -9.3716    0.3817   -0.4414 H       1  LIG1        0.0660
     28 H          -8.8297    0.7018   -2.0970 H       1  LIG1        0.0660
     29 C          -5.3620    4.7245    1.2624 C.1     1  LIG1       -0.0675
     30 C          -4.9007    5.7238    1.7504 C.1     1  LIG1       -0.1138
     31 H          -4.5058    6.6152    2.1805 H       1  LIG1        0.1232
     32 C          -9.4034    4.4949    0.6143 C.ar    1  LIG1        0.2245
     33 C          -8.0912    4.5592    0.0930 C.ar    1  LIG1        0.0643
     34 C          -7.7329    5.7480   -0.5050 C.ar    1  LIG1       -0.0299
     35 C          -8.6380    6.8182   -0.6012 C.ar    1  LIG1        0.0516
     36 C          -9.9194    6.6265   -0.0727 C.ar    1  LIG1        0.0953
     37 N         -10.2717    5.4811    0.5210 N.ar    1  LIG1       -0.2109
     38 H          -6.7351    5.8672   -0.9103 H       1  LIG1        0.0639
     39 O          -9.7647    3.3770    1.2582 O.3     1  LIG1       -0.4792
     40 C         -11.0725    3.3503    1.8199 C.3     1  LIG1        0.0804
     41 H         -11.1458    2.3930    2.3349 H       1  LIG1        0.0660
     42 H         -11.2156    4.1764    2.5196 H       1  LIG1        0.0660
     43 H         -11.8348    3.4232    1.0410 H       1  LIG1        0.0660
     44 C          -8.2235    8.0425   -1.2131 C.1     1  LIG1       -0.0675
     45 C          -7.8392    9.0581   -1.7331 C.1     1  LIG1       -0.1138
     46 H          -7.5110    9.9631   -2.1900 H       1  LIG1        0.1232
     47 C         -11.6593    8.1268    0.9923 C.ar    1  LIG1        0.2240
     48 C         -10.9746    7.6685   -0.1561 C.ar    1  LIG1        0.0643
     49 C         -11.3519    8.2181   -1.3646 C.ar    1  LIG1       -0.0305
     50 C         -12.3838    9.1678   -1.4263 C.ar    1  LIG1        0.0436
     51 C         -12.9922    9.5207   -0.2270 C.ar    1  LIG1        0.0468
     52 N         -12.6353    9.0176    0.9540 N.ar    1  LIG1       -0.2196
     53 H         -10.8532    7.9100   -2.2760 H       1  LIG1        0.0638
     54 H         -13.8025   10.2447   -0.2210 H       1  LIG1        0.0843
     55 O         -11.2698    7.6444    2.1801 O.3     1  LIG1       -0.4792
     56 C         -11.9465    8.1314    3.3328 C.3     1  LIG1        0.0804
     57 H         -11.4802    7.6245    4.1770 H       1  LIG1        0.0660
     58 H         -11.8327    9.2135    3.4285 H       1  LIG1        0.0660
     59 H         -13.0129    7.8988    3.2901 H       1  LIG1        0.0660
     60 C         -12.8015    9.7443   -2.6653 C.1     1  LIG1       -0.0681
     61 C         -13.1546   10.2308   -3.7084 C.1     1  LIG1       -0.1139
     62 H         -13.4685   10.6611   -4.6312 H       1  LIG1        0.1232
@<TRIPOS>BOND
     1    62    61    1
     2    11    10    1
     3    13    10    1
     4    61    60    3
     5    10    12    1
     6    10     9    1
     7    60    50    1
     8     9     1    1
     9    53    49    1
    10    46    45    1
    11    28    25    1
    12    45    44    3
    13    26    25    1
    14    50    49   ar
    15    50    51   ar
    16    49    48   ar
    17     1     6   ar
    18     1     2   ar
    19    25    24    1
    20    25    27    1
    21    44    35    1
    22     6     5   ar
    23    38    34    1
    24    24    17    1
    25    35    34   ar
    26    35    36   ar
    27    34    33   ar
    28     8     2    1
    29    17    22   ar
    30    17    18   ar
    31    22    21   ar
    32     2     3   ar
    33    51    54    1
    34    51    52   ar
    35    48    36    1
    36    48    47   ar
    37    36    37   ar
    38     5    18    1
    39     5     4   ar
    40    33    21    1
    41    33    32   ar
    42    18    19   ar
    43    21    20   ar
    44    37    32   ar
    45    32    39    1
    46    19    20   ar
    47    19    23    1
    48    20    29    1
    49    52    47   ar
    50    47    55    1
    51     3     4   ar
    52     3     7    1
    53    43    40    1
    54     4    14    1
    55    39    40    1
    56    29    30    3
    57    30    31    1
    58    40    41    1
    59    40    42    1
    60    55    56    1
    61    14    15    3
    62    59    56    1
    63    56    58    1
    64    56    57    1
    65    15    16    1
