@<TRIPOS>MOLECULE
mol_data/opt/cam/geoms/mol2/6le6le.out
 32 33 0 0 0
SMALL
GASTEIGER

@<TRIPOS>ATOM
      1 C          -4.5287   -1.9778   -0.5319 C.ar    1  LIG1        0.2150
      2 C          -3.2372   -2.1079    0.0009 C.ar    1  LIG1        0.0012
      3 C          -2.6762   -0.9926    0.5699 C.ar    1  LIG1       -0.0392
      4 C          -3.3885    0.2216    0.6075 C.ar    1  LIG1        0.0510
      5 C          -4.6681    0.2369    0.0390 C.ar    1  LIG1        0.0952
      6 N          -5.2131   -0.8517   -0.5198 N.ar    1  LIG1       -0.2115
      7 H          -1.6832   -1.0330    1.0036 H       1  LIG1        0.0632
      8 H          -2.7265   -3.0613   -0.0450 H       1  LIG1        0.0671
      9 O          -5.0733   -3.0749   -1.0811 O.3     1  LIG1       -0.4796
     10 C          -6.3908   -2.9468   -1.6061 C.3     1  LIG1        0.0804
     11 H          -6.6600   -3.9408   -1.9615 H       1  LIG1        0.0660
     12 H          -7.0883   -2.6120   -0.8353 H       1  LIG1        0.0660
     13 H          -6.4165   -2.2289   -2.4291 H       1  LIG1        0.0660
     14 C          -2.8018    1.3685    1.2280 C.1     1  LIG1       -0.0675
     15 C          -2.2743    2.3109    1.7603 C.1     1  LIG1       -0.1138
     16 H          -1.8211    3.1533    2.2298 H       1  LIG1        0.1232
     17 C          -6.8029    1.5056    0.5290 C.ar    1  LIG1        0.2240
     18 C          -5.4949    1.4707   -0.0044 C.ar    1  LIG1        0.0643
     19 C          -5.0318    2.6309   -0.5905 C.ar    1  LIG1       -0.0305
     20 C          -5.8484    3.7706   -0.6606 C.ar    1  LIG1        0.0436
     21 C          -7.1238    3.6703   -0.1159 C.ar    1  LIG1        0.0468
     22 N          -7.5881    2.5673    0.4699 N.ar    1  LIG1       -0.2196
     23 H          -4.0318    2.6628   -1.0072 H       1  LIG1        0.0638
     24 H          -7.7987    4.5211   -0.1525 H       1  LIG1        0.0843
     25 O          -7.2477    0.4038    1.1483 O.3     1  LIG1       -0.4792
     26 C          -8.5569    0.4536    1.7028 C.3     1  LIG1        0.0804
     27 H          -8.7167   -0.5250    2.1542 H       1  LIG1        0.0660
     28 H          -8.6348    1.2384    2.4585 H       1  LIG1        0.0660
     29 H          -9.3043    0.6433    0.9293 H       1  LIG1        0.0660
     30 C          -5.3979    4.9814   -1.2712 C.1     1  LIG1       -0.0681
     31 C          -5.0196    6.0021   -1.7854 C.1     1  LIG1       -0.1139
     32 H          -4.6858    6.9055   -2.2412 H       1  LIG1        0.1232
@<TRIPOS>BOND
     1    13    10    1
     2    32    31    1
     3    11    10    1
     4    31    30    3
     5    10     9    1
     6    10    12    1
     7    30    20    1
     8     9     1    1
     9    23    19    1
    10    20    19   ar
    11    20    21   ar
    12    19    18   ar
    13     1     6   ar
    14     1     2   ar
    15     6     5   ar
    16    24    21    1
    17    21    22   ar
    18     8     2    1
    19    18     5    1
    20    18    17   ar
    21     2     3   ar
    22     5     4   ar
    23    22    17   ar
    24    17    25    1
    25     3     4   ar
    26     3     7    1
    27     4    14    1
    28    29    26    1
    29    25    26    1
    30    14    15    3
    31    26    27    1
    32    26    28    1
    33    15    16    1
