@<TRIPOS>MOLECULE
mol_data/opt/cam/geoms/mol2/6le6fd-12ha-6ff-.out
 48 51 0 0 0
SMALL
GASTEIGER

@<TRIPOS>ATOM
      1 C          -4.5272   -2.1143    0.0194 C.ar    1  LIG1        0.2150
      2 C          -3.1422   -2.2108    0.1928 C.ar    1  LIG1        0.0012
      3 C          -2.4483   -1.0339    0.3097 C.ar    1  LIG1       -0.0392
      4 C          -3.0966    0.2147    0.2344 C.ar    1  LIG1        0.0510
      5 C          -4.4848    0.2192    0.0075 C.ar    1  LIG1        0.0952
      6 N          -5.1536   -0.9556   -0.0709 N.ar    1  LIG1       -0.2115
      7 H          -1.3767   -1.0454    0.4741 H       1  LIG1        0.0632
      8 H          -2.6691   -3.1822    0.2487 H       1  LIG1        0.0671
      9 O          -5.2170   -3.2566   -0.0564 O.3     1  LIG1       -0.4796
     10 C          -6.6307   -3.1810   -0.2191 C.3     1  LIG1        0.0804
     11 H          -6.9698   -4.2122   -0.3008 H       1  LIG1        0.0660
     12 H          -7.1011   -2.7068    0.6466 H       1  LIG1        0.0660
     13 H          -6.8948   -2.6273   -1.1232 H       1  LIG1        0.0660
     14 C          -2.2902    1.3762    0.4455 C.1     1  LIG1       -0.0675
     15 C          -1.5391    2.2960    0.6473 C.1     1  LIG1       -0.1138
     16 H          -0.8951    3.1265    0.8271 H       1  LIG1        0.1232
     17 C          -6.7479    1.3887    0.0064 C.ar    1  LIG1        0.2225
     18 C          -5.3219    1.4268   -0.1453 C.ar    1  LIG1        0.0642
     19 C          -4.8038    2.6616   -0.4994 C.ar    1  LIG1       -0.0278
     20 C          -5.6125    3.7943   -0.5965 C.ar    1  LIG1        0.0816
     21 C          -6.9844    3.6747   -0.2679 C.ar    1  LIG1        0.1289
     22 N          -7.5067    2.4694   -0.0155 N.ar    1  LIG1       -0.2080
     23 H          -3.7538    2.7629   -0.7331 H       1  LIG1        0.0639
     24 O          -7.3985    0.2526    0.1881 O.3     1  LIG1       -0.4919
     25 H          -6.7242   -0.4739    0.0961 H       1  LIG1        0.2937
     26 N          -4.5848    5.9757   -1.5200 N.1     1  LIG1       -0.1908
     27 C          -5.0423    4.9948   -1.1032 C.1     1  LIG1        0.1014
     28 C          -7.9208    4.7703   -0.1906 C.ar    1  LIG1        0.1757
     29 C          -7.9096    6.1341    0.0770 C.ar    1  LIG1        0.0732
     30 C          -9.2776    6.5325    0.1819 C.ar    1  LIG1        0.0058
     31 C         -10.0388    5.4192   -0.0155 C.ar    1  LIG1        0.1428
     32 O          -9.2408    4.3621   -0.2414 O.2     1  LIG1       -0.4512
     33 N          -6.8636    6.9821    0.3295 N.pl3   1  LIG1       -0.3550
     34 H          -5.9818    6.8112   -0.1333 H       1  LIG1        0.1424
     35 H          -7.1127    7.9586    0.3559 H       1  LIG1        0.1424
     36 H          -9.6275    7.5280    0.4111 H       1  LIG1        0.0674
     37 C         -12.0298    3.8678    0.0286 C.ar    1  LIG1        0.2234
     38 C         -11.4731    5.1725   -0.0214 C.ar    1  LIG1        0.0820
     39 C         -12.3530    6.2523   -0.0495 C.ar    1  LIG1       -0.0029
     40 C         -13.7191    6.0333   -0.0200 C.ar    1  LIG1        0.1358
     41 C         -14.1581    4.7151    0.0328 C.ar    1  LIG1        0.0728
     42 N         -13.3397    3.6718    0.0547 N.ar    1  LIG1       -0.2172
     43 H         -11.9821    7.2696   -0.1042 H       1  LIG1        0.0663
     44 H         -15.2262    4.4946    0.0558 H       1  LIG1        0.0868
     45 O         -11.3054    2.7406    0.0617 O.3     1  LIG1       -0.4919
     46 H         -10.3529    2.9219    0.0033 H       1  LIG1        0.2937
     47 O         -14.5581    7.1071   -0.0493 O.3     1  LIG1       -0.5052
     48 H         -15.4715    6.7979   -0.0330 H       1  LIG1        0.2922
@<TRIPOS>BOND
     1    26    27    3
     2    13    10    1
     3    27    20    1
     4    23    19    1
     5    20    19   ar
     6    20    21   ar
     7    19    18   ar
     8    11    10    1
     9    21    28    1
    10    21    22   ar
    11    32    28   ar
    12    32    31   ar
    13    10     9    1
    14    10    12    1
    15    28    29   ar
    16    18    17   ar
    17    18     5    1
    18    34    33    1
    19    43    39    1
    20     6     5   ar
    21     6     1   ar
    22     9     1    1
    23    39    38   ar
    24    39    40   ar
    25    47    48    1
    26    47    40    1
    27    38    31    1
    28    38    37   ar
    29    40    41   ar
    30    22    17   ar
    31    31    30   ar
    32    46    45    1
    33    17    24    1
    34     5     4   ar
    35     1     2   ar
    36    37    42   ar
    37    37    45    1
    38    41    42   ar
    39    41    44    1
    40    29    30   ar
    41    29    33    1
    42    25    24    1
    43    30    36    1
    44     2     8    1
    45     2     3   ar
    46     4     3   ar
    47     4    14    1
    48     3     7    1
    49    33    35    1
    50    14    15    3
    51    15    16    1
