@<TRIPOS>MOLECULE
mol_data/opt/cam/geoms/mol2/6lf12ee-12hd-4ed.out
 50 53 0 0 0
SMALL
GASTEIGER

@<TRIPOS>ATOM
      1 C          -4.6893   -2.0362    0.1835 C.ar    1  LIG1        0.2153
      2 C          -3.4252   -2.1666    0.7880 C.ar    1  LIG1        0.0035
      3 C          -2.7875   -1.0188    1.1793 C.ar    1  LIG1       -0.0129
      4 C          -3.3897    0.2345    0.9800 C.ar    1  LIG1        0.1460
      5 C          -4.6446    0.2562    0.3703 C.ar    1  LIG1        0.1522
      6 N          -5.2673   -0.8791   -0.0185 N.ar    1  LIG1       -0.2060
      7 H          -1.8150   -1.0415    1.6581 H       1  LIG1        0.0656
      8 H          -2.9930   -3.1495    0.9290 H       1  LIG1        0.0672
      9 O          -5.3032   -3.1752   -0.1908 O.3     1  LIG1       -0.4796
     10 C          -6.5911   -3.0488   -0.7819 C.3     1  LIG1        0.0804
     11 H          -6.9276   -4.0623   -0.9936 H       1  LIG1        0.0660
     12 H          -7.2876   -2.5552   -0.0990 H       1  LIG1        0.0660
     13 H          -6.5427   -2.4669   -1.7059 H       1  LIG1        0.0660
     14 O          -2.7143    1.3038    1.4649 O.3     1  LIG1       -0.5045
     15 H          -2.9385    2.1234    0.9986 H       1  LIG1        0.2922
     16 C          -5.4269    1.4730    0.1376 C.ar    1  LIG1        0.1742
     17 C          -5.1511    2.7839   -0.1536 C.ar    1  LIG1        0.0881
     18 C          -6.4234    3.4541   -0.3106 C.ar    1  LIG1        0.0896
     19 C          -7.3760    2.4872   -0.0972 C.ar    1  LIG1        0.1890
     20 O          -6.7730    1.3070    0.1721 O.2     1  LIG1       -0.4475
     21 C          -3.8780    3.3772   -0.3432 C.1     1  LIG1       -0.0646
     22 C          -2.7887    3.8720   -0.4908 C.1     1  LIG1       -0.1138
     23 H          -1.8280    4.3091   -0.6426 H       1  LIG1        0.1232
     24 C          -6.5887    4.8115   -0.6816 C.1     1  LIG1       -0.0645
     25 C          -6.6833    5.9680   -1.0097 C.1     1  LIG1       -0.1138
     26 H          -6.7461    6.9896   -1.3081 H       1  LIG1        0.1232
     27 C          -8.8098    2.4408   -0.1177 C.ar    1  LIG1        0.1936
     28 C          -9.8303    3.3595   -0.1860 C.ar    1  LIG1        0.0924
     29 C         -11.0447    2.5830   -0.1998 C.ar    1  LIG1        0.1188
     30 C         -10.6825    1.2581   -0.1131 C.ar    1  LIG1        0.1562
     31 O          -9.3462    1.1760   -0.0663 O.2     1  LIG1       -0.4484
     32 N          -9.7947    4.7231   -0.1838 N.pl3   1  LIG1       -0.3539
     33 H          -8.9267    5.1744   -0.4353 H       1  LIG1        0.1425
     34 H         -10.6363    5.1924   -0.4826 H       1  LIG1        0.1425
     35 N         -13.2816    3.7869   -0.6005 N.1     1  LIG1       -0.1907
     36 C         -12.3120    3.1864   -0.4007 C.1     1  LIG1        0.1049
     37 C         -12.6278   -0.2799    0.4378 C.ar    1  LIG1        0.0354
     38 C         -13.1788   -1.5670    0.3560 C.ar    1  LIG1       -0.0444
     39 C         -11.3631   -0.0369   -0.1358 C.ar    1  LIG1        0.0352
     40 C         -12.4939   -2.6069   -0.2410 C.ar    1  LIG1       -0.0432
     41 H         -14.1538   -1.7388    0.7958 H       1  LIG1        0.0630
     42 C         -10.6707   -1.0980   -0.7241 C.ar    1  LIG1       -0.0325
     43 C         -11.2220   -2.3730   -0.7728 C.ar    1  LIG1        0.0525
     44 H          -9.6865   -0.9216   -1.1394 H       1  LIG1        0.0638
     45 H         -12.9273   -3.5990   -0.2860 H       1  LIG1        0.0631
     46 C         -13.3505    0.7192    1.1568 C.1     1  LIG1       -0.0690
     47 C         -13.9854    1.5213    1.7900 C.1     1  LIG1       -0.1139
     48 H         -14.5362    2.2628    2.3227 H       1  LIG1        0.1232
     49 N          -9.8343   -4.2928   -1.8253 N.1     1  LIG1       -0.1909
     50 C         -10.4646   -3.4411   -1.3612 C.1     1  LIG1        0.0992
@<TRIPOS>BOND
     1    49    50    3
     2    13    10    1
     3    50    43    1
     4    26    25    1
     5    44    42    1
     6    25    24    3
     7    11    10    1
     8    10     9    1
     9    10    12    1
    10    43    42   ar
    11    43    40   ar
    12    42    39   ar
    13    24    18    1
    14    23    22    1
    15    35    36    3
    16    22    21    3
    17    34    32    1
    18    33    32    1
    19    36    29    1
    20    21    17    1
    21    18    17   ar
    22    18    19   ar
    23    45    40    1
    24    40    38   ar
    25    29    28   ar
    26    29    30   ar
    27     9     1    1
    28    28    32    1
    29    28    27   ar
    30    17    16   ar
    31    39    30    1
    32    39    37   ar
    33    27    19    1
    34    27    31   ar
    35    30    31   ar
    36    19    20   ar
    37     6     1   ar
    38     6     5   ar
    39    16    20   ar
    40    16     5    1
    41     1     2   ar
    42    38    37   ar
    43    38    41    1
    44     5     4   ar
    45    37    46    1
    46     2     8    1
    47     2     3   ar
    48     4     3   ar
    49     4    14    1
    50    15    14    1
    51    46    47    3
    52     3     7    1
    53    47    48    1
