@<TRIPOS>MOLECULE
mol_data/opt/cam/geoms/mol2/6lf4ia12el4ii.out
 58 61 0 0 0
SMALL
GASTEIGER

@<TRIPOS>ATOM
      1 C          -4.2453   -2.1186    0.8146 C.ar    1  LIG1        0.2152
      2 C          -3.2700   -2.4272   -0.1446 C.ar    1  LIG1        0.0035
      3 C          -3.0064   -1.4887   -1.1149 C.ar    1  LIG1       -0.0130
      4 C          -3.6988   -0.2753   -1.1002 C.ar    1  LIG1        0.1430
      5 C          -4.6234   -0.0430   -0.0870 C.ar    1  LIG1        0.1163
      6 N          -4.8988   -0.9767    0.8422 N.ar    1  LIG1       -0.2092
      7 H          -2.2818   -1.6695   -1.9012 H       1  LIG1        0.0656
      8 H          -2.7635   -3.3837   -0.1099 H       1  LIG1        0.0672
      9 O          -4.5046   -3.0626    1.7453 O.3     1  LIG1       -0.4796
     10 C          -5.4888   -2.7466    2.7185 C.3     1  LIG1        0.0804
     11 H          -5.5463   -3.6170    3.3716 H       1  LIG1        0.0660
     12 H          -5.2080   -1.8598    3.2924 H       1  LIG1        0.0660
     13 H          -6.4600   -2.5585    2.2533 H       1  LIG1        0.0660
     14 O          -3.4355    0.6213   -2.0943 O.3     1  LIG1       -0.5046
     15 H          -4.0985    1.3245   -2.0571 H       1  LIG1        0.2922
     16 C          -4.7857    2.4770    0.1637 C.ar    1  LIG1       -0.0405
     17 C          -5.5831    3.6186    0.2014 C.ar    1  LIG1       -0.0475
     18 C          -5.4019    1.2267   -0.0265 C.ar    1  LIG1        0.0070
     19 C          -6.9721    3.5536    0.0689 C.ar    1  LIG1        0.0189
     20 H          -5.1086    4.5803    0.3542 H       1  LIG1        0.0627
     21 C          -6.7932    1.1614   -0.1345 C.ar    1  LIG1       -0.0515
     22 C          -7.5746    2.3008   -0.0917 C.ar    1  LIG1       -0.0504
     23 H          -7.2592    0.1888   -0.2504 H       1  LIG1        0.0624
     24 C          -3.2979    2.6042    0.3822 C.3     1  LIG1       -0.0391
     25 H          -3.0357    3.6288    0.6513 H       1  LIG1        0.0278
     26 H          -2.7262    2.3302   -0.5084 H       1  LIG1        0.0278
     27 H          -2.9657    1.9453    1.1891 H       1  LIG1        0.0278
     28 H          -8.6518    2.2304   -0.1801 H       1  LIG1        0.0625
     29 C          -7.7962    4.7561    0.1059 C.ar    1  LIG1        0.1547
     30 C          -7.5427    6.0979    0.2649 C.ar    1  LIG1        0.1126
     31 C          -8.8275    6.7470    0.2094 C.ar    1  LIG1        0.1817
     32 C          -9.7702    5.7799    0.0338 C.ar    1  LIG1        0.1786
     33 O          -9.1314    4.5706   -0.0333 O.2     1  LIG1       -0.4498
     34 C          -6.3055    6.7637    0.4632 C.1     1  LIG1       -0.0622
     35 C          -5.2766    7.3686    0.6289 C.1     1  LIG1       -0.1137
     36 H          -4.3672    7.9004    0.7894 H       1  LIG1        0.1232
     37 O          -9.0507    8.0812    0.3143 O.3     1  LIG1       -0.4901
     38 C          -8.6153    8.8421   -0.8089 C.3     1  LIG1        0.0790
     39 H          -8.8623    9.8813   -0.5907 H       1  LIG1        0.0660
     40 H          -7.5355    8.7484   -0.9552 H       1  LIG1        0.0660
     41 H          -9.1374    8.5245   -1.7178 H       1  LIG1        0.0660
     42 C         -12.0921    6.5221    0.6527 C.ar    1  LIG1       -0.0397
     43 C         -13.4578    6.4450    0.3750 C.ar    1  LIG1       -0.0579
     44 C         -11.2236    5.7688   -0.1539 C.ar    1  LIG1        0.0241
     45 C         -13.9577    5.6465   -0.6410 C.ar    1  LIG1       -0.0586
     46 H         -14.1464    7.0191    0.9881 H       1  LIG1        0.0620
     47 C         -11.7413    4.9523   -1.1671 C.ar    1  LIG1       -0.0478
     48 C         -13.1023    4.8741   -1.4274 C.ar    1  LIG1       -0.0498
     49 H         -11.0487    4.3698   -1.7669 H       1  LIG1        0.0627
     50 H         -15.0290    5.6139   -0.8201 H       1  LIG1        0.0620
     51 C         -11.6087    7.3580    1.8067 C.3     1  LIG1       -0.0390
     52 H         -12.4470    7.6590    2.4386 H       1  LIG1        0.0278
     53 H         -11.0875    8.2551    1.4665 H       1  LIG1        0.0278
     54 H         -10.8978    6.8027    2.4251 H       1  LIG1        0.0278
     55 C         -13.6422    3.9876   -2.5187 C.3     1  LIG1       -0.0397
     56 H         -12.8355    3.5229   -3.0898 H       1  LIG1        0.0278
     57 H         -14.2661    4.5522   -3.2179 H       1  LIG1        0.0278
     58 H         -14.2631    3.1855   -2.1073 H       1  LIG1        0.0278
@<TRIPOS>BOND
     1    57    55    1
     2    56    55    1
     3    55    58    1
     4    55    48    1
     5    14    15    1
     6    14     4    1
     7     7     3    1
     8    49    47    1
     9    41    38    1
    10    48    47   ar
    11    48    45   ar
    12    47    44   ar
    13     3     4   ar
    14     3     2   ar
    15     4     5   ar
    16    40    38    1
    17    50    45    1
    18    38    39    1
    19    38    37    1
    20    45    43   ar
    21    26    24    1
    22    23    21    1
    23    28    22    1
    24    44    32    1
    25    44    42   ar
    26     2     8    1
    27     2     1   ar
    28    21    22   ar
    29    21    18   ar
    30    22    19   ar
    31     5    18    1
    32     5     6   ar
    33    33    32   ar
    34    33    29   ar
    35    18    16   ar
    36    32    31   ar
    37    19    29    1
    38    19    17   ar
    39    29    30   ar
    40    16    17   ar
    41    16    24    1
    42    17    20    1
    43    31    30   ar
    44    31    37    1
    45    30    34    1
    46    43    42   ar
    47    43    46    1
    48    24    25    1
    49    24    27    1
    50    34    35    3
    51    35    36    1
    52    42    51    1
    53     1     6   ar
    54     1     9    1
    55    53    51    1
    56     9    10    1
    57    51    54    1
    58    51    52    1
    59    13    10    1
    60    10    12    1
    61    10    11    1
