@<TRIPOS>MOLECULE
mol_data/opt/cam/geoms/mol2/6lf4ae-13aa4fi.out
 50 53 0 0 0
SMALL
GASTEIGER

@<TRIPOS>ATOM
      1 C          -4.2505   -2.1318    0.3420 C.ar    1  LIG1        0.2152
      2 C          -2.9253   -2.1774   -0.1151 C.ar    1  LIG1        0.0035
      3 C          -2.3888   -1.0187   -0.6237 C.ar    1  LIG1       -0.0130
      4 C          -3.1562    0.1495   -0.6475 C.ar    1  LIG1        0.1429
      5 C          -4.4506    0.1100   -0.1314 C.ar    1  LIG1        0.1161
      6 N          -4.9803   -1.0393    0.3319 N.ar    1  LIG1       -0.2092
      7 H          -1.3803   -0.9839   -1.0207 H       1  LIG1        0.0656
      8 H          -2.3698   -3.1058   -0.0717 H       1  LIG1        0.0672
      9 O          -4.7711   -3.2849    0.8146 O.3     1  LIG1       -0.4796
     10 C          -6.1079   -3.2370    1.2891 C.3     1  LIG1        0.0804
     11 H          -6.3295   -4.2427    1.6457 H       1  LIG1        0.0660
     12 H          -6.2143   -2.5142    2.1020 H       1  LIG1        0.0660
     13 H          -6.8020   -2.9600    0.4909 H       1  LIG1        0.0660
     14 O          -2.5801    1.2602   -1.1927 O.3     1  LIG1       -0.5046
     15 H          -3.2678    1.9086   -1.3922 H       1  LIG1        0.2922
     16 C          -4.8580    2.5876    0.1987 C.ar    1  LIG1       -0.0518
     17 C          -5.7184    3.6688    0.2388 C.ar    1  LIG1       -0.0508
     18 C          -5.3324    1.3023   -0.0965 C.ar    1  LIG1        0.0052
     19 C          -7.0901    3.5473   -0.0216 C.ar    1  LIG1        0.0137
     20 H          -5.3239    4.6415    0.5062 H       1  LIG1        0.0625
     21 C          -6.6962    1.1569   -0.3227 C.ar    1  LIG1       -0.0364
     22 C          -7.5737    2.2446   -0.2970 C.ar    1  LIG1        0.0344
     23 H          -7.0897    0.1676   -0.5214 H       1  LIG1        0.0636
     24 H          -3.8130    2.7375    0.4510 H       1  LIG1        0.0624
     25 C          -8.9513    1.9533   -0.5726 C.1     1  LIG1       -0.0690
     26 C         -10.0942    1.6430   -0.8004 C.1     1  LIG1       -0.1139
     27 H         -11.0980    1.3576   -1.0179 H       1  LIG1        0.1232
     28 C          -7.9106    4.7536    0.0146 C.ar    1  LIG1        0.0481
     29 C          -7.5160    6.0836    0.0323 C.ar    1  LIG1       -0.0358
     30 C          -8.6716    6.8816    0.0988 C.ar    1  LIG1       -0.0357
     31 C          -9.7674    6.0340    0.1104 C.ar    1  LIG1        0.0504
     32 N          -9.2819    4.7545    0.0551 N.ar    1  LIG1       -0.3540
     33 H          -9.8408    3.9176    0.1036 H       1  LIG1        0.1659
     34 H          -6.4993    6.4438   -0.0199 H       1  LIG1        0.0639
     35 H          -8.7204    7.9574    0.1210 H       1  LIG1        0.0639
     36 C         -11.7477    7.4858    0.6217 C.ar    1  LIG1        0.1259
     37 C         -13.1227    7.6804    0.6386 C.ar    1  LIG1       -0.0193
     38 C         -11.2085    6.2872    0.1236 C.ar    1  LIG1        0.0399
     39 C         -13.9846    6.7007    0.1640 C.ar    1  LIG1       -0.0554
     40 H         -13.5222    8.6136    1.0286 H       1  LIG1        0.0654
     41 C         -12.1059    5.3304   -0.3605 C.ar    1  LIG1       -0.0462
     42 C         -13.4873    5.5053   -0.3453 C.ar    1  LIG1       -0.0496
     43 H         -11.7069    4.4183   -0.7963 H       1  LIG1        0.0628
     44 H         -15.0557    6.8768    0.1847 H       1  LIG1        0.0621
     45 O         -10.8884    8.4383    1.0818 O.3     1  LIG1       -0.5061
     46 H         -11.3978    9.1855    1.4159 H       1  LIG1        0.2922
     47 C         -14.4074    4.4270   -0.8557 C.3     1  LIG1       -0.0397
     48 H         -14.5651    3.6459   -0.1039 H       1  LIG1        0.0278
     49 H         -13.9997    3.9433   -1.7476 H       1  LIG1        0.0278
     50 H         -15.3882    4.8320   -1.1153 H       1  LIG1        0.0278
@<TRIPOS>BOND
     1    49    47    1
     2    15    14    1
     3    14     4    1
     4    50    47    1
     5     7     3    1
     6    27    26    1
     7    47    42    1
     8    47    48    1
     9    26    25    3
    10    43    41    1
    11     4     3   ar
    12     4     5   ar
    13     3     2   ar
    14    25    22    1
    15    23    21    1
    16    41    42   ar
    17    41    38   ar
    18    42    39   ar
    19    21    22   ar
    20    21    18   ar
    21    22    19   ar
    22     5    18    1
    23     5     6   ar
    24     2     8    1
    25     2     1   ar
    26    18    16   ar
    27    19    28    1
    28    19    17   ar
    29    34    29    1
    30    28    29   ar
    31    28    32   ar
    32    29    30   ar
    33    32    33    1
    34    32    31   ar
    35    30    31   ar
    36    30    35    1
    37    31    38    1
    38    38    36   ar
    39    39    44    1
    40    39    37   ar
    41    16    17   ar
    42    16    24    1
    43    17    20    1
    44     6     1   ar
    45     1     9    1
    46    13    10    1
    47    36    37   ar
    48    36    45    1
    49    37    40    1
    50     9    10    1
    51    45    46    1
    52    10    11    1
    53    10    12    1
