@<TRIPOS>MOLECULE
mol_data/opt/cam/geoms/mol2/6lf6lf6lf.out
 44 46 0 0 0
SMALL
GASTEIGER

@<TRIPOS>ATOM
      1 C          -4.2020   -1.9905   -0.6878 C.ar    1  LIG1        0.2152
      2 C          -3.2662   -2.2459    0.3263 C.ar    1  LIG1        0.0035
      3 C          -3.1301   -1.3093    1.3230 C.ar    1  LIG1       -0.0130
      4 C          -3.9136   -0.1510    1.2908 C.ar    1  LIG1        0.1431
      5 C          -4.8070    0.0154    0.2374 C.ar    1  LIG1        0.1212
      6 N          -4.9401   -0.9049   -0.7329 N.ar    1  LIG1       -0.2090
      7 H          -2.4334   -1.4456    2.1427 H       1  LIG1        0.0656
      8 H          -2.6853   -3.1596    0.3065 H       1  LIG1        0.0672
      9 O          -4.3261   -2.9270   -1.6540 O.3     1  LIG1       -0.4796
     10 C          -5.2903   -2.6700   -2.6640 C.3     1  LIG1        0.0804
     11 H          -5.2675   -3.5396   -3.3207 H       1  LIG1        0.0660
     12 H          -6.2873   -2.5420   -2.2347 H       1  LIG1        0.0660
     13 H          -5.0430   -1.7656   -3.2262 H       1  LIG1        0.0660
     14 O          -3.7556    0.7470    2.3026 O.3     1  LIG1       -0.5046
     15 H          -4.4267    1.4370    2.2169 H       1  LIG1        0.2922
     16 C          -7.0620    1.1749    0.0883 C.ar    1  LIG1        0.2248
     17 C          -5.6489    1.2364    0.1388 C.ar    1  LIG1        0.0690
     18 C          -5.0851    2.4987    0.0885 C.ar    1  LIG1       -0.0036
     19 C          -5.8925    3.6336   -0.0245 C.ar    1  LIG1        0.1438
     20 C          -7.2697    3.4573   -0.0910 C.ar    1  LIG1        0.1213
     21 N          -7.8252    2.2370   -0.0287 N.ar    1  LIG1       -0.2085
     22 H          -4.0078    2.6273    0.1161 H       1  LIG1        0.0663
     23 O          -7.6321   -0.0399    0.1864 O.3     1  LIG1       -0.4792
     24 C          -9.0515   -0.0814    0.1603 C.3     1  LIG1        0.0804
     25 H          -9.3147   -1.1311    0.2879 H       1  LIG1        0.0660
     26 H          -9.4791    0.5215    0.9653 H       1  LIG1        0.0660
     27 H          -9.4393    0.2934   -0.7905 H       1  LIG1        0.0660
     28 O          -5.2750    4.8456   -0.0644 O.3     1  LIG1       -0.5046
     29 H          -5.9461    5.5409   -0.0542 H       1  LIG1        0.2922
     30 C          -9.2077    4.8942    0.6942 C.ar    1  LIG1        0.2242
     31 C          -8.1832    4.6199   -0.2430 C.ar    1  LIG1        0.0690
     32 C          -8.0715    5.4825   -1.3204 C.ar    1  LIG1       -0.0043
     33 C          -8.9567    6.5558   -1.4534 C.ar    1  LIG1        0.1357
     34 C          -9.9293    6.7160   -0.4851 C.ar    1  LIG1        0.0728
     35 N         -10.0472    5.9002    0.5689 N.ar    1  LIG1       -0.2171
     36 H          -7.3182    5.3209   -2.0850 H       1  LIG1        0.0663
     37 H         -10.6475    7.5327   -0.5496 H       1  LIG1        0.0868
     38 O          -9.2953    4.0870    1.7665 O.3     1  LIG1       -0.4792
     39 C         -10.3270    4.3708    2.7008 C.3     1  LIG1        0.0804
     40 H         -10.2312    3.6146    3.4792 H       1  LIG1        0.0660
     41 H         -10.2113    5.3707    3.1267 H       1  LIG1        0.0660
     42 H         -11.3118    4.3092    2.2312 H       1  LIG1        0.0660
     43 O          -8.8129    7.3754   -2.5303 O.3     1  LIG1       -0.5052
     44 H          -9.4980    8.0542   -2.5124 H       1  LIG1        0.2922
@<TRIPOS>BOND
     1    11    10    1
     2    13    10    1
     3    10    12    1
     4    10     9    1
     5    43    44    1
     6    43    33    1
     7    36    32    1
     8     9     1    1
     9    33    32   ar
    10    33    34   ar
    11    32    31   ar
    12    27    24    1
    13     6     1   ar
    14     6     5   ar
    15     1     2   ar
    16    37    34    1
    17    34    35   ar
    18    31    20    1
    19    31    30   ar
    20    20    21   ar
    21    20    19   ar
    22    28    29    1
    23    28    19    1
    24    21    16   ar
    25    19    18   ar
    26    16    17   ar
    27    16    23    1
    28    18    22    1
    29    18    17   ar
    30    17     5    1
    31    24    23    1
    32    24    25    1
    33    24    26    1
    34     5     4   ar
    35     8     2    1
    36     2     3   ar
    37    35    30   ar
    38    30    38    1
    39     4     3   ar
    40     4    14    1
    41     3     7    1
    42    38    39    1
    43    15    14    1
    44    42    39    1
    45    39    41    1
    46    39    40    1
