@<TRIPOS>MOLECULE
mol_data/opt/cam/geoms/mol2/6lf6lf.out
 30 31 0 0 0
SMALL
GASTEIGER

@<TRIPOS>ATOM
      1 C          -4.5210   -2.0303   -0.3826 C.ar    1  LIG1        0.2152
      2 C          -3.2657   -2.1077    0.2400 C.ar    1  LIG1        0.0035
      3 C          -2.7548   -0.9600    0.7972 C.ar    1  LIG1       -0.0130
      4 C          -3.4903    0.2276    0.7227 C.ar    1  LIG1        0.1431
      5 C          -4.7221    0.2042    0.0768 C.ar    1  LIG1        0.1212
      6 N          -5.2198   -0.9210   -0.4634 N.ar    1  LIG1       -0.2090
      7 H          -1.7949   -0.9489    1.3015 H       1  LIG1        0.0656
      8 H          -2.7372   -3.0524    0.2724 H       1  LIG1        0.0672
      9 O          -5.0080   -3.1711   -0.9182 O.3     1  LIG1       -0.4796
     10 C          -6.2873   -3.0883   -1.5285 C.3     1  LIG1        0.0804
     11 H          -6.5174   -4.0983   -1.8675 H       1  LIG1        0.0660
     12 H          -7.0423   -2.7432   -0.8175 H       1  LIG1        0.0660
     13 H          -6.2771   -2.3984   -2.3765 H       1  LIG1        0.0660
     14 O          -2.9524    1.3406    1.2951 O.3     1  LIG1       -0.5046
     15 H          -3.6026    2.0546    1.2637 H       1  LIG1        0.2922
     16 C          -6.8588    1.5241    0.4471 C.ar    1  LIG1        0.2242
     17 C          -5.5373    1.4411   -0.0535 C.ar    1  LIG1        0.0690
     18 C          -5.0352    2.5673   -0.6834 C.ar    1  LIG1       -0.0043
     19 C          -5.8286    3.7105   -0.8143 C.ar    1  LIG1        0.1357
     20 C          -7.1105    3.6707   -0.3010 C.ar    1  LIG1        0.0728
     21 N          -7.6115    2.5965    0.3201 N.ar    1  LIG1       -0.2171
     22 H          -4.0348    2.5674   -1.1044 H       1  LIG1        0.0663
     23 H          -7.7697    4.5341   -0.3860 H       1  LIG1        0.0868
     24 O          -7.3403    0.4501    1.0979 O.3     1  LIG1       -0.4792
     25 C          -8.6662    0.5434    1.5973 C.3     1  LIG1        0.0804
     26 H          -8.8636   -0.4132    2.0801 H       1  LIG1        0.0660
     27 H          -8.7615    1.3591    2.3186 H       1  LIG1        0.0660
     28 H          -9.3812    0.7148    0.7887 H       1  LIG1        0.0660
     29 O          -5.2950    4.7930   -1.4445 O.3     1  LIG1       -0.5052
     30 H          -5.9525    5.4977   -1.4842 H       1  LIG1        0.2922
@<TRIPOS>BOND
     1    13    10    1
     2    11    10    1
     3    10     9    1
     4    10    12    1
     5    30    29    1
     6    29    19    1
     7    22    18    1
     8     9     1    1
     9    19    18   ar
    10    19    20   ar
    11    18    17   ar
    12     6     1   ar
    13     6     5   ar
    14    23    20    1
    15     1     2   ar
    16    20    21   ar
    17    17     5    1
    18    17    16   ar
    19     5     4   ar
    20     2     8    1
    21     2     3   ar
    22    21    16   ar
    23    16    24    1
    24     4     3   ar
    25     4    14    1
    26    28    25    1
    27     3     7    1
    28    24    25    1
    29    15    14    1
    30    25    26    1
    31    25    27    1
