@<TRIPOS>MOLECULE
mol_data/opt/cam/geoms/mol2/6lf6lf6lf6lf.out
 58 61 0 0 0
SMALL
GASTEIGER

@<TRIPOS>ATOM
      1 C          -3.7142   -1.7862   -0.7584 C.ar    1  LIG1        0.2152
      2 C          -3.1534   -2.3087    0.4169 C.ar    1  LIG1        0.0035
      3 C          -3.4699   -1.6950    1.6054 C.ar    1  LIG1       -0.0130
      4 C          -4.3229   -0.5865    1.6021 C.ar    1  LIG1        0.1431
      5 C          -4.8206   -0.1370    0.3829 C.ar    1  LIG1        0.1212
      6 N          -4.5119   -0.7429   -0.7763 N.ar    1  LIG1       -0.2090
      7 H          -3.0805   -2.0511    2.5527 H       1  LIG1        0.0656
      8 H          -2.5000   -3.1708    0.3659 H       1  LIG1        0.0672
      9 O          -3.3980   -2.4089   -1.9154 O.3     1  LIG1       -0.4796
     10 C          -3.9894   -1.8873   -3.0961 C.3     1  LIG1        0.0804
     11 H          -3.6494   -2.5331   -3.9056 H       1  LIG1        0.0660
     12 H          -5.0803   -1.8998   -3.0299 H       1  LIG1        0.0660
     13 H          -3.6712   -0.8569   -3.2760 H       1  LIG1        0.0660
     14 O          -4.6195   -0.0140    2.8019 O.3     1  LIG1       -0.5046
     15 H          -5.2957    0.6633    2.6675 H       1  LIG1        0.2922
     16 C          -7.0058    0.9901   -0.2551 C.ar    1  LIG1        0.2248
     17 C          -5.7123    1.0500    0.3159 C.ar    1  LIG1        0.0690
     18 C          -5.3145    2.2792    0.8117 C.ar    1  LIG1       -0.0036
     19 C          -6.1595    3.3884    0.7238 C.ar    1  LIG1        0.1438
     20 C          -7.4011    3.2238    0.1201 C.ar    1  LIG1        0.1213
     21 N          -7.7996    2.0317   -0.3507 N.ar    1  LIG1       -0.2085
     22 H          -4.3339    2.4059    1.2593 H       1  LIG1        0.0663
     23 O          -7.4324   -0.2069   -0.6984 O.3     1  LIG1       -0.4792
     24 C          -8.7428   -0.2530   -1.2440 C.3     1  LIG1        0.0804
     25 H          -8.9117   -1.2964   -1.5088 H       1  LIG1        0.0660
     26 H          -9.4859    0.0829   -0.5163 H       1  LIG1        0.0660
     27 H          -8.8227    0.3807   -2.1310 H       1  LIG1        0.0660
     28 O          -5.7103    4.5660    1.2366 O.3     1  LIG1       -0.5046
     29 H          -6.4223    5.2185    1.1957 H       1  LIG1        0.2922
     30 C          -9.6462    4.3453    0.5018 C.ar    1  LIG1        0.2248
     31 C          -8.3355    4.3686   -0.0312 C.ar    1  LIG1        0.0690
     32 C          -7.9640    5.5178   -0.7066 C.ar    1  LIG1       -0.0036
     33 C          -8.8638    6.5763   -0.8543 C.ar    1  LIG1        0.1438
     34 C         -10.1364    6.4387   -0.3116 C.ar    1  LIG1        0.1213
     35 N         -10.4990    5.3330    0.3567 N.ar    1  LIG1       -0.2085
     36 H          -6.9773    5.6077   -1.1500 H       1  LIG1        0.0663
     37 O         -10.0089    3.2572    1.2055 O.3     1  LIG1       -0.4792
     38 C         -11.3199    3.2605    1.7532 C.3     1  LIG1        0.0804
     39 H         -11.4074    2.3252    2.3053 H       1  LIG1        0.0660
     40 H         -11.4671    4.1141    2.4196 H       1  LIG1        0.0660
     41 H         -12.0756    3.3073    0.9650 H       1  LIG1        0.0660
     42 O          -8.4352    7.6794   -1.5251 O.3     1  LIG1       -0.5046
     43 H          -9.1186    8.3612   -1.4794 H       1  LIG1        0.2922
     44 C         -11.7581    8.1281    0.6626 C.ar    1  LIG1        0.2242
     45 C         -11.1511    7.5147   -0.4591 C.ar    1  LIG1        0.0690
     46 C         -11.5514    7.9562   -1.7089 C.ar    1  LIG1       -0.0043
     47 C         -12.5247    8.9529   -1.8211 C.ar    1  LIG1        0.1357
     48 C         -13.0608    9.4676   -0.6561 C.ar    1  LIG1        0.0728
     49 N         -12.6796    9.0623    0.5608 N.ar    1  LIG1       -0.2171
     50 H         -11.1387    7.5173   -2.6118 H       1  LIG1        0.0663
     51 H         -13.8283   10.2400   -0.6922 H       1  LIG1        0.0868
     52 O         -11.3429    7.7357    1.8803 O.3     1  LIG1       -0.4792
     53 C         -11.9592    8.3571    2.9995 C.3     1  LIG1        0.0804
     54 H         -11.4935    7.9069    3.8756 H       1  LIG1        0.0660
     55 H         -11.7923    9.4372    2.9940 H       1  LIG1        0.0660
     56 H         -13.0367    8.1756    3.0071 H       1  LIG1        0.0660
     57 O         -12.8912    9.3530   -3.0689 O.3     1  LIG1       -0.5052
     58 H         -13.5819   10.0232   -3.0030 H       1  LIG1        0.2922
@<TRIPOS>BOND
     1    11    10    1
     2    13    10    1
     3    10    12    1
     4    10     9    1
     5    57    58    1
     6    57    47    1
     7    50    46    1
     8    27    24    1
     9     9     1    1
    10    47    46   ar
    11    47    48   ar
    12    46    45   ar
    13    42    43    1
    14    42    33    1
    15    25    24    1
    16    24    23    1
    17    24    26    1
    18    36    32    1
    19    33    32   ar
    20    33    34   ar
    21     6     1   ar
    22     6     5   ar
    23     1     2   ar
    24    32    31   ar
    25    23    16    1
    26    51    48    1
    27    48    49   ar
    28    45    34    1
    29    45    44   ar
    30    21    16   ar
    31    21    20   ar
    32    34    35   ar
    33    16    17   ar
    34    31    20    1
    35    31    30   ar
    36    20    19   ar
    37    17     5    1
    38    17    18   ar
    39    35    30   ar
    40     8     2    1
    41     5     4   ar
    42     2     3   ar
    43    30    37    1
    44    49    44   ar
    45    44    52    1
    46    19    18   ar
    47    19    28    1
    48    18    22    1
    49    41    38    1
    50    29    28    1
    51    37    38    1
    52     4     3   ar
    53     4    14    1
    54     3     7    1
    55    38    39    1
    56    38    40    1
    57    52    53    1
    58    15    14    1
    59    55    53    1
    60    53    56    1
    61    53    54    1
