@<TRIPOS>MOLECULE
mol_data/opt/cam/geoms/mol2/6lg.out
 16 16 0 0 0
SMALL
GASTEIGER

@<TRIPOS>ATOM
      1 C          -4.6410   -1.9430    0.0000 C.ar    1  LIG1        0.2144
      2 C          -3.2405   -2.0080   -0.0000 C.ar    1  LIG1        0.0010
      3 C          -2.5386   -0.8245   -0.0002 C.ar    1  LIG1       -0.0421
      4 C          -3.2343    0.3924   -0.0003 C.ar    1  LIG1        0.0231
      5 C          -4.6185    0.3356   -0.0002 C.ar    1  LIG1        0.0445
      6 N          -5.3126   -0.8074   -0.0001 N.ar    1  LIG1       -0.2202
      7 H          -1.4532   -0.8352   -0.0002 H       1  LIG1        0.0631
      8 H          -2.7474   -2.9720    0.0000 H       1  LIG1        0.0671
      9 H          -5.2104    1.2484   -0.0003 H       1  LIG1        0.0842
     10 O          -5.3059   -3.1135    0.0002 O.3     1  LIG1       -0.4796
     11 C          -6.7262   -3.0461    0.0002 C.3     1  LIG1        0.0804
     12 H          -7.0676   -4.0807    0.0003 H       1  LIG1        0.0660
     13 H          -7.0958   -2.5245    0.8863 H       1  LIG1        0.0660
     14 H          -7.0959   -2.5247   -0.8859 H       1  LIG1        0.0660
     15 S          -2.3136    1.9134   -0.0005 S.3     1  LIG1       -0.1411
     16 H          -3.3745    2.7360   -0.0004 H       1  LIG1        0.1072
@<TRIPOS>BOND
     1    14    11    1
     2    15    16    1
     3    15     4    1
     4     4     5   ar
     5     4     3   ar
     6     9     5    1
     7     7     3    1
     8     5     6   ar
     9     3     2   ar
    10     6     1   ar
    11     2     1   ar
    12     2     8    1
    13     1    10    1
    14    10    11    1
    15    11    12    1
    16    11    13    1
