@<TRIPOS>MOLECULE
mol_data/opt/cam/geoms/mol2/6lh13dd-6fa6hd.out
 49 52 0 0 0
SMALL
GASTEIGER

@<TRIPOS>ATOM
      1 C          -4.7375   -1.8667   -0.8712 C.ar    1  LIG1        0.2151
      2 C          -3.4098   -2.2257   -0.5774 C.ar    1  LIG1        0.0017
      3 C          -2.6005   -1.2686   -0.0337 C.ar    1  LIG1       -0.0339
      4 C          -3.0679    0.0429    0.2226 C.ar    1  LIG1        0.0526
      5 C          -4.3939    0.3042   -0.1424 C.ar    1  LIG1        0.1127
      6 N          -5.1975   -0.6619   -0.6615 N.ar    1  LIG1       -0.2095
      7 H          -1.5734   -1.5104    0.2234 H       1  LIG1        0.0638
      8 H          -3.0649   -3.2321   -0.7782 H       1  LIG1        0.0671
      9 O          -5.5278   -2.8292   -1.3858 O.3     1  LIG1       -0.4796
     10 C          -6.8678   -2.4769   -1.6911 C.3     1  LIG1        0.0804
     11 H          -7.3154   -3.3684   -2.1284 H       1  LIG1        0.0660
     12 H          -7.4182   -2.1928   -0.7889 H       1  LIG1        0.0660
     13 H          -6.9063   -1.6491   -2.4042 H       1  LIG1        0.0660
     14 N          -2.2334    0.9176    0.8845 N.pl3   1  LIG1       -0.3563
     15 H          -1.2715    0.6218    0.9505 H       1  LIG1        0.1424
     16 H          -2.3155    1.9095    0.7248 H       1  LIG1        0.1424
     17 C          -5.1261    1.5668    0.0437 C.ar    1  LIG1        0.0862
     18 C          -4.8350    2.9188    0.1796 C.ar    1  LIG1        0.0965
     19 C          -6.0822    3.6232    0.2818 C.ar    1  LIG1        0.0951
     20 C          -7.0992    2.6912    0.1876 C.ar    1  LIG1        0.0709
     21 N          -6.4904    1.4718    0.0604 N.ar    1  LIG1       -0.3507
     22 H          -6.9218    0.5906   -0.1963 H       1  LIG1        0.1660
     23 N          -2.5291    4.0613    0.0890 N.1     1  LIG1       -0.1908
     24 C          -3.5704    3.5550    0.1345 C.1     1  LIG1        0.1026
     25 N          -6.3825    6.1643    0.5868 N.1     1  LIG1       -0.1908
     26 C          -6.2399    5.0231    0.4560 C.1     1  LIG1        0.1026
     27 C          -9.4043    1.8809    0.7626 C.ar    1  LIG1        0.2222
     28 C          -8.5530    2.8458    0.1961 C.ar    1  LIG1        0.0610
     29 C          -9.1809    3.9635   -0.3563 C.ar    1  LIG1       -0.0455
     30 C         -10.5586    4.0596   -0.3743 C.ar    1  LIG1       -0.0347
     31 C         -11.3224    3.0056    0.1414 C.ar    1  LIG1        0.0781
     32 N         -10.7187    1.9533    0.7160 N.ar    1  LIG1       -0.2124
     33 H          -8.5795    4.7611   -0.7774 H       1  LIG1        0.0626
     34 O          -8.9353    0.7764    1.3943 O.3     1  LIG1       -0.4919
     35 H          -8.0247    0.9232    1.6829 H       1  LIG1        0.2937
     36 H         -11.0257    4.9472   -0.7779 H       1  LIG1        0.0639
     37 C         -13.6171    2.1663    0.9141 C.ar    1  LIG1        0.1254
     38 C         -12.7999    3.0100    0.0926 C.ar    1  LIG1        0.0412
     39 C         -13.4689    3.8594   -0.7755 C.ar    1  LIG1       -0.0304
     40 C         -14.8617    3.9106   -0.8091 C.ar    1  LIG1        0.0706
     41 C         -15.5562    3.0746    0.0711 C.ar    1  LIG1        0.0471
     42 N         -14.9638    2.2352    0.8943 N.ar    1  LIG1       -0.2388
     43 H         -12.9124    4.4892   -1.4589 H       1  LIG1        0.0638
     44 H         -16.6433    3.0916    0.0910 H       1  LIG1        0.0843
     45 N         -13.1050    1.2664    1.7683 N.pl3   1  LIG1       -0.3426
     46 H         -13.7638    0.6983    2.2751 H       1  LIG1        0.1437
     47 H         -12.1136    1.0646    1.7313 H       1  LIG1        0.1437
     48 N         -16.1198    5.4803   -2.4338 N.1     1  LIG1       -0.1908
     49 C         -15.5562    4.7778   -1.7064 C.1     1  LIG1        0.1007
@<TRIPOS>BOND
     1    48    49    3
     2    13    10    1
     3    11    10    1
     4    49    40    1
     5    10     9    1
     6    10    12    1
     7    43    39    1
     8     9     1    1
     9     1     6   ar
    10     1     2   ar
    11    40    39   ar
    12    40    41   ar
    13     8     2    1
    14    36    30    1
    15    33    29    1
    16    39    38   ar
    17     6     5   ar
    18     2     3   ar
    19    30    29   ar
    20    30    31   ar
    21    29    28   ar
    22    22    21    1
    23     5    17    1
    24     5     4   ar
    25     3     4   ar
    26     3     7    1
    27    17    21   ar
    28    17    18   ar
    29    21    20   ar
    30    41    44    1
    31    41    42   ar
    32    23    24    3
    33    38    31    1
    34    38    37   ar
    35    24    18    1
    36    31    32   ar
    37    18    19   ar
    38    20    28    1
    39    20    19   ar
    40    28    27   ar
    41     4    14    1
    42    19    26    1
    43    26    25    3
    44    32    27   ar
    45    16    14    1
    46    27    34    1
    47    14    15    1
    48    42    37   ar
    49    37    45    1
    50    34    35    1
    51    47    45    1
    52    45    46    1
