@<TRIPOS>MOLECULE
mol_data/opt/cam/geoms/mol2/6lh6lh6lh.out
 47 49 0 0 0
SMALL
GASTEIGER

@<TRIPOS>ATOM
      1 C          -4.1519   -1.9135    0.8349 C.ar    1  LIG1        0.2151
      2 C          -3.1759   -2.2108   -0.1242 C.ar    1  LIG1        0.0017
      3 C          -2.9925   -1.3101   -1.1472 C.ar    1  LIG1       -0.0339
      4 C          -3.7672   -0.1425   -1.2142 C.ar    1  LIG1        0.0513
      5 C          -4.7067    0.0577   -0.1991 C.ar    1  LIG1        0.1005
      6 N          -4.8817   -0.8223    0.7999 N.ar    1  LIG1       -0.2109
      7 H          -2.2470   -1.4997   -1.9146 H       1  LIG1        0.0638
      8 H          -2.5993   -3.1243   -0.0468 H       1  LIG1        0.0671
      9 O          -4.3303   -2.8103    1.8321 O.3     1  LIG1       -0.4796
     10 C          -5.3445   -2.5064    2.7777 C.3     1  LIG1        0.0804
     11 H          -5.3665   -3.3503    3.4674 H       1  LIG1        0.0660
     12 H          -5.1187   -1.5831    3.3181 H       1  LIG1        0.0660
     13 H          -6.3155   -2.3853    2.2907 H       1  LIG1        0.0660
     14 N          -3.5568    0.7896   -2.2406 N.pl3   1  LIG1       -0.3563
     15 H          -3.2048    0.3734   -3.0920 H       1  LIG1        0.1424
     16 H          -4.3635    1.3693   -2.4298 H       1  LIG1        0.1424
     17 C          -6.9679    1.2104   -0.1282 C.ar    1  LIG1        0.2246
     18 C          -5.5583    1.2760   -0.1622 C.ar    1  LIG1        0.0655
     19 C          -5.0037    2.5427   -0.1378 C.ar    1  LIG1       -0.0246
     20 C          -5.8030    3.6908   -0.0681 C.ar    1  LIG1        0.0519
     21 C          -7.1850    3.4989   -0.0190 C.ar    1  LIG1        0.1005
     22 N          -7.7324    2.2750   -0.0540 N.ar    1  LIG1       -0.2103
     23 H          -3.9225    2.6456   -0.1694 H       1  LIG1        0.0645
     24 O          -7.5415   -0.0088   -0.2033 O.3     1  LIG1       -0.4792
     25 C          -8.9603   -0.0407   -0.1944 C.3     1  LIG1        0.0804
     26 H          -9.2297   -1.0919   -0.2977 H       1  LIG1        0.0660
     27 H          -9.3593    0.3616    0.7405 H       1  LIG1        0.0660
     28 H          -9.3756    0.5441   -1.0194 H       1  LIG1        0.0660
     29 N          -5.2141    4.9608    0.0011 N.pl3   1  LIG1       -0.3563
     30 H          -4.3000    5.0047   -0.4279 H       1  LIG1        0.1424
     31 H          -5.8112    5.7045   -0.3341 H       1  LIG1        0.1424
     32 C          -9.1620    4.8548   -0.8478 C.ar    1  LIG1        0.2240
     33 C          -8.1268    4.6448    0.0885 C.ar    1  LIG1        0.0655
     34 C          -8.0406    5.5452    1.1369 C.ar    1  LIG1       -0.0252
     35 C          -8.9548    6.5998    1.2583 C.ar    1  LIG1        0.0438
     36 C          -9.9347    6.6883    0.2797 C.ar    1  LIG1        0.0520
     37 N         -10.0307    5.8392   -0.7481 N.ar    1  LIG1       -0.2189
     38 H          -7.2579    5.4179    1.8795 H       1  LIG1        0.0645
     39 H         -10.6806    7.4803    0.3213 H       1  LIG1        0.0849
     40 O          -9.2317    4.0153   -1.9033 O.3     1  LIG1       -0.4792
     41 C         -10.2864    4.2383   -2.8245 C.3     1  LIG1        0.0804
     42 H         -10.1793    3.4649   -3.5852 H       1  LIG1        0.0660
     43 H         -11.2620    4.1569   -2.3381 H       1  LIG1        0.0660
     44 H         -10.2153    5.2295   -3.2806 H       1  LIG1        0.0660
     45 N          -8.9167    7.4737    2.3483 N.pl3   1  LIG1       -0.3568
     46 H          -7.9989    7.6056    2.7484 H       1  LIG1        0.1424
     47 H          -9.3788    8.3580    2.1912 H       1  LIG1        0.1424
@<TRIPOS>BOND
     1    42    41    1
     2    44    41    1
     3    15    14    1
     4    41    43    1
     5    41    40    1
     6    16    14    1
     7    14     4    1
     8     7     3    1
     9    40    32    1
    10     4     3   ar
    11     4     5   ar
    12     3     2   ar
    13    28    25    1
    14    32    37   ar
    15    32    33   ar
    16    37    36   ar
    17    30    29    1
    18    31    29    1
    19    26    25    1
    20    24    25    1
    21    24    17    1
    22     5    18    1
    23     5     6   ar
    24    25    27    1
    25    23    19    1
    26    18    19   ar
    27    18    17   ar
    28    19    20   ar
    29    17    22   ar
    30     2     8    1
    31     2     1   ar
    32    20    21   ar
    33    20    29    1
    34    22    21   ar
    35    21    33    1
    36    33    34   ar
    37    36    39    1
    38    36    35   ar
    39     6     1   ar
    40     1     9    1
    41    34    35   ar
    42    34    38    1
    43    35    45    1
    44     9    10    1
    45    47    45    1
    46    13    10    1
    47    45    46    1
    48    10    12    1
    49    10    11    1
