@<TRIPOS>MOLECULE
mol_data/opt/cam/geoms/mol2/6lh6lh6lh6lh.out
 62 65 0 0 0
SMALL
GASTEIGER

@<TRIPOS>ATOM
      1 C          -3.6683   -1.6741    1.0597 C.ar    1  LIG1        0.2151
      2 C          -3.0456   -2.2565   -0.0511 C.ar    1  LIG1        0.0017
      3 C          -3.2848   -1.6942   -1.2833 C.ar    1  LIG1       -0.0339
      4 C          -4.1284   -0.5801   -1.4048 C.ar    1  LIG1        0.0513
      5 C          -4.6906   -0.0752   -0.2290 C.ar    1  LIG1        0.1005
      6 N          -4.4531   -0.6248    0.9729 N.ar    1  LIG1       -0.2109
      7 H          -2.8238   -2.1132   -2.1735 H       1  LIG1        0.0638
      8 H          -2.4051   -3.1203    0.0766 H       1  LIG1        0.0671
      9 O          -3.4333   -2.2402    2.2659 O.3     1  LIG1       -0.4796
     10 C          -4.0975   -1.6551    3.3756 C.3     1  LIG1        0.0804
     11 H          -3.8226   -2.2632    4.2376 H       1  LIG1        0.0660
     12 H          -3.7795   -0.6200    3.5271 H       1  LIG1        0.0660
     13 H          -5.1814   -1.6593    3.2349 H       1  LIG1        0.0660
     14 N          -4.3461    0.0109   -2.6577 N.pl3   1  LIG1       -0.3563
     15 H          -4.2658   -0.6408   -3.4263 H       1  LIG1        0.1424
     16 H          -5.2131    0.5286   -2.7134 H       1  LIG1        0.1424
     17 C          -6.8872    1.0918    0.2786 C.ar    1  LIG1        0.2246
     18 C          -5.5774    1.1181   -0.2462 C.ar    1  LIG1        0.0655
     19 C          -5.1497    2.3271   -0.7647 C.ar    1  LIG1       -0.0246
     20 C          -5.9717    3.4610   -0.7524 C.ar    1  LIG1        0.0519
     21 C          -7.2409    3.3176   -0.1877 C.ar    1  LIG1        0.1005
     22 N          -7.6683    2.1466    0.3069 N.ar    1  LIG1       -0.2103
     23 H          -4.1512    2.3954   -1.1877 H       1  LIG1        0.0645
     24 O          -7.3535   -0.0859    0.7446 O.3     1  LIG1       -0.4792
     25 C          -8.6840   -0.0868    1.2385 C.3     1  LIG1        0.0804
     26 H          -8.8874   -1.1177    1.5287 H       1  LIG1        0.0660
     27 H          -8.7858    0.5759    2.1020 H       1  LIG1        0.0660
     28 H          -9.3917    0.2428    0.4734 H       1  LIG1        0.0660
     29 N          -5.4987    4.6850   -1.2445 N.pl3   1  LIG1       -0.3563
     30 H          -4.7831    4.5852   -1.9513 H       1  LIG1        0.1424
     31 H          -6.2320    5.3091   -1.5528 H       1  LIG1        0.1424
     32 C          -9.4871    4.4101   -0.6406 C.ar    1  LIG1        0.2246
     33 C          -8.1858    4.4612   -0.0966 C.ar    1  LIG1        0.0655
     34 C          -7.8377    5.6335    0.5498 C.ar    1  LIG1       -0.0246
     35 C          -8.7385    6.6996    0.6675 C.ar    1  LIG1        0.0519
     36 C         -10.0052    6.5240    0.1068 C.ar    1  LIG1        0.1005
     37 N         -10.3472    5.3959   -0.5326 N.ar    1  LIG1       -0.2103
     38 H          -6.8436    5.7238    0.9787 H       1  LIG1        0.0645
     39 O          -9.8393    3.3009   -1.3251 O.3     1  LIG1       -0.4792
     40 C         -11.1461    3.2899   -1.8788 C.3     1  LIG1        0.0804
     41 H         -11.2292    2.3435   -2.4134 H       1  LIG1        0.0660
     42 H         -11.9077    3.3498   -1.0968 H       1  LIG1        0.0660
     43 H         -11.2951    4.1302   -2.5618 H       1  LIG1        0.0660
     44 N          -8.3772    7.8584    1.3675 N.pl3   1  LIG1       -0.3563
     45 H          -7.3818    8.0331    1.3723 H       1  LIG1        0.1424
     46 H          -8.8926    8.6813    1.0863 H       1  LIG1        0.1424
     47 C         -11.6792    8.1134   -0.9442 C.ar    1  LIG1        0.2240
     48 C         -11.0509    7.5773    0.2003 C.ar    1  LIG1        0.0655
     49 C         -11.4726    8.0592    1.4281 C.ar    1  LIG1       -0.0252
     50 C         -12.4872    9.0212    1.5148 C.ar    1  LIG1        0.0438
     51 C         -13.0343    9.4568    0.3160 C.ar    1  LIG1        0.0520
     52 N         -12.6355    9.0162   -0.8811 N.ar    1  LIG1       -0.2189
     53 H         -11.0142    7.6713    2.3334 H       1  LIG1        0.0645
     54 H         -13.8324   10.1973    0.3152 H       1  LIG1        0.0849
     55 O         -11.2477    7.6903   -2.1520 O.3     1  LIG1       -0.4792
     56 C         -11.9017    8.2339   -3.2867 C.3     1  LIG1        0.0804
     57 H         -11.4266    7.7678   -4.1500 H       1  LIG1        0.0660
     58 H         -12.9708    8.0064   -3.2754 H       1  LIG1        0.0660
     59 H         -11.7856    9.3203   -3.3322 H       1  LIG1        0.0660
     60 N         -12.9656    9.4650    2.7506 N.pl3   1  LIG1       -0.3568
     61 H         -12.2870    9.4378    3.4979 H       1  LIG1        0.1424
     62 H         -13.4409   10.3557    2.7191 H       1  LIG1        0.1424
@<TRIPOS>BOND
     1    57    56    1
     2    15    14    1
     3    59    56    1
     4    56    58    1
     5    56    55    1
     6    16    14    1
     7    14     4    1
     8    43    40    1
     9    41    40    1
    10     7     3    1
    11    55    47    1
    12    30    29    1
    13    40    39    1
    14    40    42    1
    15    31    29    1
    16     4     3   ar
    17     4     5   ar
    18    39    32    1
    19     3     2   ar
    20    29    20    1
    21    23    19    1
    22    47    52   ar
    23    47    48   ar
    24    52    51   ar
    25    19    20   ar
    26    19    18   ar
    27    20    21   ar
    28    32    37   ar
    29    32    33   ar
    30    37    36   ar
    31    18     5    1
    32    18    17   ar
    33     5     6   ar
    34    21    33    1
    35    21    22   ar
    36    33    34   ar
    37     2     8    1
    38     2     1   ar
    39    36    48    1
    40    36    35   ar
    41    48    49   ar
    42    17    22   ar
    43    17    24    1
    44    54    51    1
    45    51    50   ar
    46    28    25    1
    47    34    35   ar
    48    34    38    1
    49    35    44    1
    50    24    25    1
    51     6     1   ar
    52     1     9    1
    53    46    44    1
    54    25    26    1
    55    25    27    1
    56    44    45    1
    57    49    50   ar
    58    49    53    1
    59    50    60    1
    60     9    10    1
    61    62    60    1
    62    60    61    1
    63    13    10    1
    64    10    12    1
    65    10    11    1
