@<TRIPOS>MOLECULE
mol_data/opt/cam/geoms/mol2/6lh6lh.out
 32 33 0 0 0
SMALL
GASTEIGER

@<TRIPOS>ATOM
      1 C          -4.5024   -2.0118    0.4460 C.ar    1  LIG1        0.2151
      2 C          -3.2429   -2.1222   -0.1562 C.ar    1  LIG1        0.0017
      3 C          -2.7186   -0.9972   -0.7482 C.ar    1  LIG1       -0.0339
      4 C          -3.4360    0.2085   -0.7436 C.ar    1  LIG1        0.0513
      5 C          -4.6804    0.2067   -0.1083 C.ar    1  LIG1        0.1005
      6 N          -5.1886   -0.8924    0.4717 N.ar    1  LIG1       -0.2109
      7 H          -1.7441   -1.0358   -1.2272 H       1  LIG1        0.0638
      8 H          -2.7182   -3.0695   -0.1470 H       1  LIG1        0.0671
      9 O          -5.0110   -3.1263    1.0196 O.3     1  LIG1       -0.4796
     10 C          -6.2987   -3.0027    1.6041 C.3     1  LIG1        0.0804
     11 H          -6.5498   -3.9961    1.9762 H       1  LIG1        0.0660
     12 H          -6.2933   -2.2819    2.4262 H       1  LIG1        0.0660
     13 H          -7.0368   -2.6727    0.8685 H       1  LIG1        0.0660
     14 N          -2.8848    1.3629   -1.3181 N.pl3   1  LIG1       -0.3563
     15 H          -2.2462    1.1663   -2.0767 H       1  LIG1        0.1424
     16 H          -3.5775    2.0445   -1.5972 H       1  LIG1        0.1424
     17 C          -6.8282    1.4920   -0.5187 C.ar    1  LIG1        0.2240
     18 C          -5.5076    1.4405   -0.0232 C.ar    1  LIG1        0.0655
     19 C          -5.0196    2.5897    0.5754 C.ar    1  LIG1       -0.0252
     20 C          -5.8161    3.7365    0.6902 C.ar    1  LIG1        0.0438
     21 C          -7.1020    3.6538    0.1749 C.ar    1  LIG1        0.0520
     22 N          -7.5915    2.5603   -0.4175 N.ar    1  LIG1       -0.2189
     23 H          -4.0078    2.5906    0.9711 H       1  LIG1        0.0645
     24 H          -7.7740    4.5079    0.2399 H       1  LIG1        0.0849
     25 O          -7.3035    0.3956   -1.1461 O.3     1  LIG1       -0.4792
     26 C          -8.6350    0.4649   -1.6286 C.3     1  LIG1        0.0804
     27 H          -8.8316   -0.5047   -2.0861 H       1  LIG1        0.0660
     28 H          -9.3425    0.6496   -0.8158 H       1  LIG1        0.0660
     29 H          -8.7506    1.2621   -2.3680 H       1  LIG1        0.0660
     30 N          -5.3559    4.8791    1.3512 N.pl3   1  LIG1       -0.3568
     31 H          -4.3558    5.0130    1.3090 H       1  LIG1        0.1424
     32 H          -5.8487    5.7270    1.1096 H       1  LIG1        0.1424
@<TRIPOS>BOND
     1    29    26    1
     2    27    26    1
     3    15    14    1
     4    26    25    1
     5    26    28    1
     6    16    14    1
     7    14     4    1
     8     7     3    1
     9    25    17    1
    10     3     4   ar
    11     3     2   ar
    12     4     5   ar
    13    17    22   ar
    14    17    18   ar
    15    22    21   ar
    16     2     8    1
    17     2     1   ar
    18     5    18    1
    19     5     6   ar
    20    18    19   ar
    21    21    24    1
    22    21    20   ar
    23     1     6   ar
    24     1     9    1
    25    19    20   ar
    26    19    23    1
    27    20    30    1
    28    13    10    1
    29     9    10    1
    30    32    30    1
    31    31    30    1
    32    10    11    1
    33    10    12    1
