@<TRIPOS>MOLECULE
mol_data/opt/cam/geoms/mol2/6li12ai-13fi12ed-.out
 50 53 0 0 0
SMALL
GASTEIGER

@<TRIPOS>ATOM
      1 C          -4.8122   -2.0676   -0.1810 C.ar    1  LIG1        0.2151
      2 C          -3.4277   -2.2466   -0.0844 C.ar    1  LIG1        0.0003
      3 C          -2.6606   -1.1088    0.0210 C.ar    1  LIG1       -0.0517
      4 C          -3.2378    0.1667    0.0274 C.ar    1  LIG1       -0.0212
      5 C          -4.6335    0.2198   -0.0800 C.ar    1  LIG1        0.1127
      6 N          -5.3939   -0.8894   -0.1791 N.ar    1  LIG1       -0.2095
      7 H          -1.5812   -1.1948    0.1059 H       1  LIG1        0.0622
      8 H          -3.0043   -3.2429   -0.0910 H       1  LIG1        0.0671
      9 O          -5.5657   -3.1817   -0.2815 O.3     1  LIG1       -0.4796
     10 C          -6.9692   -3.0015   -0.3913 C.3     1  LIG1        0.0804
     11 H          -7.3881   -4.0046   -0.4703 H       1  LIG1        0.0660
     12 H          -7.3725   -2.4918    0.4880 H       1  LIG1        0.0660
     13 H          -7.2242   -2.4150   -1.2777 H       1  LIG1        0.0660
     14 C          -2.3603    1.3798    0.1563 C.3     1  LIG1       -0.0376
     15 H          -2.6907    2.0348    0.9676 H       1  LIG1        0.0278
     16 H          -2.3494    1.9764   -0.7620 H       1  LIG1        0.0278
     17 H          -1.3306    1.0820    0.3640 H       1  LIG1        0.0278
     18 C          -5.3906    1.4725   -0.0866 C.ar    1  LIG1        0.1545
     19 C          -5.0962    2.8023   -0.1898 C.ar    1  LIG1       -0.0107
     20 C          -6.3232    3.5320   -0.1546 C.ar    1  LIG1       -0.0025
     21 C          -7.3016    2.5827   -0.0233 C.ar    1  LIG1        0.1583
     22 O          -6.7414    1.3401    0.0154 O.2     1  LIG1       -0.4514
     23 H          -4.1206    3.2451   -0.3006 H       1  LIG1        0.0659
     24 C          -6.4387    5.0192   -0.2643 C.3     1  LIG1       -0.0360
     25 H          -7.4700    5.3510   -0.1623 H       1  LIG1        0.0279
     26 H          -6.0598    5.3655   -1.2314 H       1  LIG1        0.0279
     27 H          -5.8417    5.5107    0.5103 H       1  LIG1        0.0279
     28 C          -8.7430    2.5365    0.0740 C.ar    1  LIG1        0.1251
     29 C          -9.7590    3.4754    0.1684 C.ar    1  LIG1        0.1486
     30 C         -11.0025    2.8092    0.2508 C.ar    1  LIG1        0.0200
     31 C         -10.7143    1.4507    0.1870 C.ar    1  LIG1        0.0904
     32 N          -9.3576    1.3101    0.0952 N.ar    1  LIG1       -0.3462
     33 H          -8.8507    0.4402    0.0439 H       1  LIG1        0.1662
     34 O          -9.5672    4.8242    0.2302 O.3     1  LIG1       -0.5043
     35 H         -10.4062    5.2658    0.0579 H       1  LIG1        0.2922
     36 C         -12.3213    3.4829    0.4566 C.3     1  LIG1       -0.0341
     37 H         -13.0214    2.8327    0.9824 H       1  LIG1        0.0279
     38 H         -12.8023    3.7696   -0.4839 H       1  LIG1        0.0279
     39 H         -12.1980    4.3853    1.0657 H       1  LIG1        0.0279
     40 C         -11.5546    0.2839    0.2398 C.ar    1  LIG1        0.1678
     41 C         -12.8399   -0.0092   -0.1432 C.ar    1  LIG1        0.0892
     42 C         -13.0416   -1.3994    0.2049 C.ar    1  LIG1        0.1054
     43 C         -11.8745   -1.8385    0.7380 C.ar    1  LIG1        0.1112
     44 O         -10.9726   -0.8374    0.7669 O.2     1  LIG1       -0.4589
     45 H         -11.5590   -2.7946    1.1230 H       1  LIG1        0.1043
     46 C         -13.7749    0.8104   -0.8231 C.1     1  LIG1       -0.0645
     47 C         -14.5905    1.4670   -1.4166 C.1     1  LIG1       -0.1138
     48 H         -15.3147    2.0403   -1.9485 H       1  LIG1        0.1232
     49 N         -15.1794   -2.7954   -0.1520 N.1     1  LIG1       -0.1907
     50 C         -14.2213   -2.1678    0.0072 C.1     1  LIG1        0.1036
@<TRIPOS>BOND
     1    48    47    1
     2    47    46    3
     3    13    10    1
     4    26    24    1
     5    46    41    1
     6    16    14    1
     7    38    36    1
     8    11    10    1
     9    10     9    1
    10    10    12    1
    11    23    19    1
    12     9     1    1
    13    24    25    1
    14    24    20    1
    15    24    27    1
    16    19    20   ar
    17    19    18   ar
    18     1     6   ar
    19     1     2   ar
    20     6     5   ar
    21    20    21   ar
    22    49    50    3
    23    41    42   ar
    24    41    40   ar
    25     8     2    1
    26    18     5    1
    27    18    22   ar
    28     2     3   ar
    29     5     4   ar
    30    21    22   ar
    31    21    28    1
    32    50    42    1
    33     3     4   ar
    34     3     7    1
    35     4    14    1
    36    33    32    1
    37    35    34    1
    38    28    32   ar
    39    28    29   ar
    40    32    31   ar
    41    14    17    1
    42    14    15    1
    43    29    34    1
    44    29    30   ar
    45    31    40    1
    46    31    30   ar
    47    42    43   ar
    48    40    44   ar
    49    30    36    1
    50    36    37    1
    51    36    39    1
    52    43    44   ar
    53    43    45    1
