@<TRIPOS>MOLECULE
mol_data/opt/cam/geoms/mol2/6li4ff-13fl-13hh-6ff-6ia12de13hf-.out
 99 106 0 0 0
SMALL
GASTEIGER

@<TRIPOS>ATOM
      1 C          -3.0414   -1.3436   -1.8217 C.ar    1  LIG1        0.2150
      2 C          -2.1268   -1.8255   -0.8795 C.ar    1  LIG1        0.0003
      3 C          -2.0723   -1.1711    0.3299 C.ar    1  LIG1       -0.0518
      4 C          -2.8824   -0.0585    0.5943 C.ar    1  LIG1       -0.0241
      5 C          -3.7308    0.3525   -0.4356 C.ar    1  LIG1        0.0813
      6 N          -3.8168   -0.3009   -1.6109 N.ar    1  LIG1       -0.2125
      7 H          -1.3975   -1.5268    1.1035 H       1  LIG1        0.0622
      8 H          -1.5121   -2.6867   -1.1098 H       1  LIG1        0.0671
      9 O          -3.1132   -2.0013   -2.9980 O.3     1  LIG1       -0.4796
     10 C          -4.0279   -1.4990   -3.9604 C.3     1  LIG1        0.0804
     11 H          -3.9139   -2.1385   -4.8356 H       1  LIG1        0.0660
     12 H          -5.0564   -1.5455   -3.5925 H       1  LIG1        0.0660
     13 H          -3.8033   -0.4607   -4.2164 H       1  LIG1        0.0660
     14 C          -2.8362    0.6020    1.9447 C.3     1  LIG1       -0.0377
     15 H          -3.8259    0.9463    2.2542 H       1  LIG1        0.0278
     16 H          -2.1821    1.4767    1.9361 H       1  LIG1        0.0278
     17 H          -2.4695   -0.0978    2.6996 H       1  LIG1        0.0278
     18 C          -4.2644    2.7958    0.0360 C.ar    1  LIG1        0.1269
     19 C          -5.1911    3.8252    0.1258 C.ar    1  LIG1       -0.0068
     20 C          -4.6676    1.5015   -0.3048 C.ar    1  LIG1        0.0456
     21 C          -6.5518    3.6287   -0.1366 C.ar    1  LIG1        0.0469
     22 H          -4.8554    4.8210    0.3942 H       1  LIG1        0.0662
     23 C          -6.0176    1.3091   -0.5937 C.ar    1  LIG1       -0.0068
     24 C          -6.9445    2.3318   -0.5098 C.ar    1  LIG1        0.1269
     25 H          -6.3377    0.3169   -0.8999 H       1  LIG1        0.0662
     26 O          -2.9346    3.0267    0.2473 O.3     1  LIG1       -0.5061
     27 H          -2.8070    3.9656    0.4259 H       1  LIG1        0.2922
     28 O          -8.2756    2.1000   -0.7888 O.3     1  LIG1       -0.5061
     29 H          -8.3887    1.1823   -1.0603 H       1  LIG1        0.2922
     30 C          -7.4811    4.7446   -0.0276 C.ar    1  LIG1        0.0964
     31 C          -7.2639    6.0742    0.3016 C.ar    1  LIG1        0.1852
     32 C          -8.4981    6.7480    0.2469 C.ar    1  LIG1        0.1888
     33 C          -9.4735    5.8362   -0.1249 C.ar    1  LIG1        0.1112
     34 N          -8.8390    4.6354   -0.2667 N.ar    1  LIG1       -0.3470
     35 H          -9.2440    3.7849   -0.6277 H       1  LIG1        0.1662
     36 O          -6.0810    6.6590    0.6377 O.3     1  LIG1       -0.5019
     37 H          -6.2500    7.6100    0.6912 H       1  LIG1        0.2924
     38 O          -8.6318    8.0877    0.5342 O.3     1  LIG1       -0.4895
     39 C          -9.1663    8.3469    1.8358 C.3     1  LIG1        0.0791
     40 H          -9.1616    9.4296    1.9665 H       1  LIG1        0.0660
     41 H         -10.1918    7.9746    1.9152 H       1  LIG1        0.0660
     42 H          -8.5484    7.8766    2.6072 H       1  LIG1        0.0660
     43 C         -10.8918    5.9965   -0.3313 C.ar    1  LIG1        0.0898
     44 C         -11.6246    7.1051   -0.6845 C.ar    1  LIG1        0.0733
     45 C         -13.0048    6.7193   -0.7134 C.ar    1  LIG1        0.0720
     46 C         -13.0802    5.3811   -0.4072 C.ar    1  LIG1        0.0750
     47 N         -11.7615    4.9152   -0.2159 N.ar    1  LIG1       -0.3498
     48 H         -11.5975    4.2422    0.5241 H       1  LIG1        0.1661
     49 N         -11.1939    8.4072   -1.0015 N.pl3   1  LIG1       -0.3548
     50 H         -10.2425    8.5775   -0.6885 H       1  LIG1        0.1424
     51 H         -11.2504    8.5941   -1.9980 H       1  LIG1        0.1424
     52 N         -14.0391    7.5988   -1.0025 N.pl3   1  LIG1       -0.3549
     53 H         -13.7141    8.5055   -1.3070 H       1  LIG1        0.1424
     54 H         -14.7859    7.2309   -1.5748 H       1  LIG1        0.1424
     55 C         -14.1474    3.1141   -0.6511 C.ar    1  LIG1        0.2225
     56 C         -14.2304    4.4931   -0.3263 C.ar    1  LIG1        0.0650
     57 C         -15.4797    4.9582    0.0681 C.ar    1  LIG1       -0.0038
     58 C         -16.5665    4.0925    0.1306 C.ar    1  LIG1        0.1436
     59 C         -16.3744    2.7512   -0.2069 C.ar    1  LIG1        0.1178
     60 N         -15.1693    2.2957   -0.5801 N.ar    1  LIG1       -0.2087
     61 H         -15.6146    5.9941    0.3587 H       1  LIG1        0.0663
     62 O         -12.9821    2.5498   -1.0573 O.3     1  LIG1       -0.4919
     63 H         -12.3450    3.2573   -1.2430 H       1  LIG1        0.2937
     64 O         -17.7592    4.6129    0.5369 O.3     1  LIG1       -0.5046
     65 H         -18.3752    3.8922    0.7212 H       1  LIG1        0.2922
     66 C         -17.4006    0.5219    0.4474 C.ar    1  LIG1        0.0483
     67 C         -17.4971    1.7780   -0.1929 C.ar    1  LIG1        0.0251
     68 C         -18.6911    2.0750   -0.8480 C.ar    1  LIG1       -0.0486
     69 C         -19.7351    1.1634   -0.8623 C.ar    1  LIG1       -0.0320
     70 C         -19.5431   -0.0473   -0.2025 C.ar    1  LIG1        0.1076
     71 N         -18.4037   -0.3506    0.4337 N.ar    1  LIG1       -0.2481
     72 H         -18.7958    3.0197   -1.3728 H       1  LIG1        0.0625
     73 C         -16.1675    0.0972    1.1927 C.3     1  LIG1       -0.0217
     74 H         -15.8498    0.8653    1.9030 H       1  LIG1        0.0293
     75 H         -15.3348   -0.0525    0.5030 H       1  LIG1        0.0293
     76 H         -16.3785   -0.8285    1.7270 H       1  LIG1        0.0293
     77 H         -20.6585    1.3882   -1.3803 H       1  LIG1        0.0640
     78 C         -20.5849   -1.0728   -0.1584 C.ar    1  LIG1        0.1724
     79 C         -21.9001   -1.1254   -0.5379 C.ar    1  LIG1        0.1149
     80 C         -22.3935   -2.4380   -0.1948 C.ar    1  LIG1        0.0899
     81 C         -21.3220   -3.0984    0.3580 C.ar    1  LIG1        0.1703
     82 O         -20.2455   -2.2681    0.3771 O.2     1  LIG1       -0.4492
     83 N         -23.2872    0.7581   -1.6184 N.1     1  LIG1       -0.1907
     84 C         -22.6677   -0.0898   -1.1315 C.1     1  LIG1        0.1043
     85 C         -23.7347   -2.8678   -0.3522 C.1     1  LIG1       -0.0645
     86 C         -24.8924   -3.1704   -0.4949 C.1     1  LIG1       -0.1138
     87 H         -25.9207   -3.4222   -0.6204 H       1  LIG1        0.1232
     88 C         -21.0825   -4.3998    0.9135 C.ar    1  LIG1        0.1080
     89 C         -21.7757   -5.6056    0.8636 C.ar    1  LIG1        0.0953
     90 C         -21.0268   -6.5406    1.6124 C.ar    1  LIG1        0.1554
     91 C         -19.9008   -5.9139    2.0930 C.ar    1  LIG1        0.0461
     92 N         -19.9517   -4.6152    1.6612 N.ar    1  LIG1       -0.3537
     93 H         -19.2635   -3.9026    1.8425 H       1  LIG1        0.1656
     94 H         -19.0932   -6.2855    2.7018 H       1  LIG1        0.0845
     95 N         -22.9766   -6.0045    0.2236 N.pl3   1  LIG1       -0.3534
     96 H         -23.7083   -5.3084    0.3099 H       1  LIG1        0.1425
     97 H         -22.8346   -6.1716   -0.7682 H       1  LIG1        0.1425
     98 O         -21.4009   -7.8277    1.7928 O.3     1  LIG1       -0.5035
     99 H         -22.2840   -7.8864    1.3908 H       1  LIG1        0.2923
@<TRIPOS>BOND
     1    11    10    1
     2    13    10    1
     3    10    12    1
     4    10     9    1
     5     9     1    1
     6    51    49    1
     7     1     6   ar
     8     1     2   ar
     9    83    84    3
    10     6     5   ar
    11    54    52    1
    12    77    69    1
    13    72    68    1
    14    53    52    1
    15    63    62    1
    16    84    79    1
    17     8     2    1
    18    29    28    1
    19    62    55    1
    20    52    45    1
    21    49    50    1
    22    49    44    1
    23    25    23    1
    24     2     3   ar
    25    69    68   ar
    26    69    70   ar
    27    68    67   ar
    28    28    24    1
    29    97    95    1
    30    45    44   ar
    31    45    46   ar
    32    44    43   ar
    33    55    60   ar
    34    55    56   ar
    35    35    34    1
    36    87    86    1
    37    23    24   ar
    38    23    20   ar
    39    60    59   ar
    40    79    80   ar
    41    79    78   ar
    42    24    21   ar
    43    86    85    3
    44     5    20    1
    45     5     4   ar
    46    46    56    1
    47    46    47   ar
    48    85    80    1
    49    43    47   ar
    50    43    33    1
    51    56    57   ar
    52    20    18   ar
    53    34    33   ar
    54    34    30   ar
    55    47    48    1
    56    59    67    1
    57    59    58   ar
    58    70    78    1
    59    70    71   ar
    60    80    81   ar
    61    67    66   ar
    62    78    82   ar
    63    21    30    1
    64    21    19   ar
    65    33    32   ar
    66    30    31   ar
    67    18    19   ar
    68    18    26    1
    69    57    58   ar
    70    57    61    1
    71    19    22    1
    72    58    64    1
    73    95    96    1
    74    95    89    1
    75    32    31   ar
    76    32    38    1
    77    26    27    1
    78    31    36    1
    79     3     4   ar
    80     3     7    1
    81    81    82   ar
    82    81    88    1
    83    71    66   ar
    84    66    73    1
    85    75    73    1
    86    38    39    1
    87    64    65    1
    88     4    14    1
    89    36    37    1
    90    89    88   ar
    91    89    90   ar
    92    88    92   ar
    93    73    76    1
    94    73    74    1
    95    99    98    1
    96    90    98    1
    97    90    91   ar
    98    92    93    1
    99    92    91   ar
   100    39    41    1
   101    39    40    1
   102    39    42    1
   103    16    14    1
   104    14    15    1
   105    14    17    1
   106    91    94    1
