@<TRIPOS>MOLECULE
mol_data/opt/cam/geoms/mol2/6li6li6li.out
 50 52 0 0 0
SMALL
GASTEIGER

@<TRIPOS>ATOM
      1 C          -4.1799   -1.8478   -1.1275 C.ar    1  LIG1        0.2150
      2 C          -3.2555   -2.2670   -0.1631 C.ar    1  LIG1        0.0003
      3 C          -3.0974   -1.4663    0.9446 C.ar    1  LIG1       -0.0518
      4 C          -3.8308   -0.2802    1.0912 C.ar    1  LIG1       -0.0241
      5 C          -4.7139    0.0364    0.0598 C.ar    1  LIG1        0.0828
      6 N          -4.8807   -0.7386   -1.0256 N.ar    1  LIG1       -0.2125
      7 H          -2.4012   -1.7588    1.7258 H       1  LIG1        0.0622
      8 H          -2.7084   -3.1912   -0.3015 H       1  LIG1        0.0671
      9 O          -4.3420   -2.6399   -2.2065 O.3     1  LIG1       -0.4796
     10 C          -5.3032   -2.2216   -3.1662 C.3     1  LIG1        0.0804
     11 H          -5.3085   -2.9967   -3.9323 H       1  LIG1        0.0660
     12 H          -6.2934   -2.1234   -2.7149 H       1  LIG1        0.0660
     13 H          -5.0306   -1.2581   -3.6043 H       1  LIG1        0.0660
     14 C          -3.6601    0.5741    2.3204 C.3     1  LIG1       -0.0377
     15 H          -4.6034    1.0268    2.6318 H       1  LIG1        0.0278
     16 H          -2.9491    1.3909    2.1577 H       1  LIG1        0.0278
     17 H          -3.2800   -0.0244    3.1519 H       1  LIG1        0.0278
     18 C          -6.9425    1.2421    0.1041 C.ar    1  LIG1        0.2245
     19 C          -5.5336    1.2796    0.0779 C.ar    1  LIG1        0.0625
     20 C          -4.9633    2.5365    0.0449 C.ar    1  LIG1       -0.0425
     21 C          -5.7372    3.7034    0.0211 C.ar    1  LIG1       -0.0234
     22 C          -7.1189    3.5297    0.0296 C.ar    1  LIG1        0.0828
     23 N          -7.6974    2.3190    0.0762 N.ar    1  LIG1       -0.2119
     24 H          -3.8799    2.6206    0.0311 H       1  LIG1        0.0629
     25 O          -7.5279    0.0334    0.1850 O.3     1  LIG1       -0.4792
     26 C          -8.9476    0.0123    0.2381 C.3     1  LIG1        0.0804
     27 H          -9.2199   -1.0391    0.3274 H       1  LIG1        0.0660
     28 H          -9.3190    0.5783    1.0958 H       1  LIG1        0.0660
     29 H          -9.3824    0.4411   -0.6681 H       1  LIG1        0.0660
     30 C          -5.0751    5.0565   -0.0049 C.3     1  LIG1       -0.0377
     31 H          -5.6388    5.7920    0.5721 H       1  LIG1        0.0278
     32 H          -4.9813    5.4481   -1.0233 H       1  LIG1        0.0278
     33 H          -4.0670    4.9976    0.4126 H       1  LIG1        0.0278
     34 C          -8.9543    4.9638    1.0261 C.ar    1  LIG1        0.2239
     35 C          -8.0614    4.6816   -0.0305 C.ar    1  LIG1        0.0624
     36 C          -8.1324    5.5090   -1.1341 C.ar    1  LIG1       -0.0431
     37 C          -9.0547    6.5620   -1.1975 C.ar    1  LIG1       -0.0315
     38 C          -9.8782    6.7192   -0.0979 C.ar    1  LIG1        0.0343
     39 N          -9.8325    5.9456    0.9941 N.ar    1  LIG1       -0.2205
     40 H          -7.4672    5.3241   -1.9737 H       1  LIG1        0.0629
     41 H         -10.6224    7.5133   -0.0829 H       1  LIG1        0.0833
     42 O          -8.8721    4.1895    2.1236 O.3     1  LIG1       -0.4792
     43 C          -9.7770    4.4754    3.1802 C.3     1  LIG1        0.0804
     44 H          -9.5567    3.7449    3.9583 H       1  LIG1        0.0660
     45 H          -9.6342    5.4900    3.5605 H       1  LIG1        0.0660
     46 H         -10.8137    4.3766    2.8494 H       1  LIG1        0.0660
     47 C          -9.1482    7.4627   -2.3977 C.3     1  LIG1       -0.0383
     48 H          -9.9287    8.2150   -2.2636 H       1  LIG1        0.0278
     49 H          -9.3834    6.8981   -3.3053 H       1  LIG1        0.0278
     50 H          -8.2064    7.9901   -2.5787 H       1  LIG1        0.0278
@<TRIPOS>BOND
     1    11    10    1
     2    13    10    1
     3    49    47    1
     4    10    12    1
     5    10     9    1
     6    50    47    1
     7    47    48    1
     8    47    37    1
     9     9     1    1
    10    40    36    1
    11    37    36   ar
    12    37    38   ar
    13    36    35   ar
    14     1     6   ar
    15     1     2   ar
    16     6     5   ar
    17    32    30    1
    18    29    26    1
    19     8     2    1
    20     2     3   ar
    21    38    41    1
    22    38    39   ar
    23    35    22    1
    24    35    34   ar
    25    30    21    1
    26    30    33    1
    27    30    31    1
    28    21    22   ar
    29    21    20   ar
    30    22    23   ar
    31    24    20    1
    32    20    19   ar
    33     5    19    1
    34     5     4   ar
    35    23    18   ar
    36    19    18   ar
    37    18    25    1
    38    25    26    1
    39    26    27    1
    40    26    28    1
    41     3     4   ar
    42     3     7    1
    43    39    34   ar
    44    34    42    1
    45     4    14    1
    46    42    43    1
    47    16    14    1
    48    14    15    1
    49    14    17    1
    50    46    43    1
    51    43    45    1
    52    43    44    1
