@<TRIPOS>MOLECULE
mol_data/opt/cam/geoms/mol2/6li6li6li6li.out
 66 69 0 0 0
SMALL
GASTEIGER

@<TRIPOS>ATOM
      1 C          -3.5552   -1.4986   -1.3437 C.ar    1  LIG1        0.2150
      2 C          -3.0707   -2.2600   -0.2731 C.ar    1  LIG1        0.0003
      3 C          -3.4467   -1.8736    0.9927 C.ar    1  LIG1       -0.0518
      4 C          -4.2758   -0.7608    1.1935 C.ar    1  LIG1       -0.0241
      5 C          -4.6866   -0.0767    0.0501 C.ar    1  LIG1        0.0828
      6 N          -4.3299   -0.4456   -1.1922 N.ar    1  LIG1       -0.2125
      7 H          -3.1062   -2.4429    1.8531 H       1  LIG1        0.0622
      8 H          -2.4369   -3.1177   -0.4605 H       1  LIG1        0.0671
      9 O          -3.1945   -1.8859   -2.5839 O.3     1  LIG1       -0.4796
     10 C          -3.7130   -1.1243   -3.6660 C.3     1  LIG1        0.0804
     11 H          -3.3376   -1.6054   -4.5690 H       1  LIG1        0.0660
     12 H          -4.8056   -1.1235   -3.6595 H       1  LIG1        0.0660
     13 H          -3.3707   -0.0874   -3.6190 H       1  LIG1        0.0660
     14 C          -4.6946   -0.3636    2.5852 C.3     1  LIG1       -0.0377
     15 H          -5.7161    0.0209    2.6048 H       1  LIG1        0.0278
     16 H          -4.0487    0.4166    3.0018 H       1  LIG1        0.0278
     17 H          -4.6414   -1.2215    3.2599 H       1  LIG1        0.0278
     18 C          -6.8384    1.1705   -0.4372 C.ar    1  LIG1        0.2245
     19 C          -5.5464    1.1369    0.1251 C.ar    1  LIG1        0.0625
     20 C          -5.1197    2.3034    0.7281 C.ar    1  LIG1       -0.0425
     21 C          -5.9147    3.4556    0.7642 C.ar    1  LIG1       -0.0234
     22 C          -7.1639    3.3650    0.1543 C.ar    1  LIG1        0.0828
     23 N          -7.6067    2.2379   -0.4261 N.ar    1  LIG1       -0.2119
     24 H          -4.1336    2.3268    1.1842 H       1  LIG1        0.0629
     25 O          -7.3024    0.0346   -0.9897 O.3     1  LIG1       -0.4792
     26 C          -8.6180    0.0748   -1.5248 C.3     1  LIG1        0.0804
     27 H          -8.8144   -0.9328   -1.8906 H       1  LIG1        0.0660
     28 H          -9.3469    0.3536   -0.7600 H       1  LIG1        0.0660
     29 H          -8.6890    0.7957   -2.3430 H       1  LIG1        0.0660
     30 C          -5.4144    4.7037    1.4439 C.3     1  LIG1       -0.0377
     31 H          -6.2241    5.2490    1.9323 H       1  LIG1        0.0278
     32 H          -4.9401    5.3937    0.7380 H       1  LIG1        0.0278
     33 H          -4.6677    4.4535    2.2015 H       1  LIG1        0.0278
     34 C          -9.3694    4.4884    0.6983 C.ar    1  LIG1        0.2245
     35 C          -8.0991    4.5213    0.0881 C.ar    1  LIG1        0.0625
     36 C          -7.7864    5.6802   -0.5945 C.ar    1  LIG1       -0.0425
     37 C          -8.6833    6.7511   -0.6900 C.ar    1  LIG1       -0.0234
     38 C          -9.9141    6.5855   -0.0598 C.ar    1  LIG1        0.0828
     39 N         -10.2363    5.4749    0.6221 N.ar    1  LIG1       -0.2119
     40 H          -6.8160    5.7586   -1.0772 H       1  LIG1        0.0629
     41 O          -9.6856    3.3921    1.4117 O.3     1  LIG1       -0.4792
     42 C         -10.9587    3.3843    2.0426 C.3     1  LIG1        0.0804
     43 H         -11.0111    2.4378    2.5803 H       1  LIG1        0.0660
     44 H         -11.0620    4.2237    2.7343 H       1  LIG1        0.0660
     45 H         -11.7640    3.4472    1.3066 H       1  LIG1        0.0660
     46 C          -8.3005    8.0027   -1.4361 C.3     1  LIG1       -0.0377
     47 H          -8.6910    8.8980   -0.9483 H       1  LIG1        0.0278
     48 H          -8.6824    8.0021   -2.4624 H       1  LIG1        0.0278
     49 H          -7.2134    8.0955   -1.4957 H       1  LIG1        0.0278
     50 C         -11.4263    8.2849    1.0547 C.ar    1  LIG1        0.2239
     51 C         -10.9753    7.6297   -0.1116 C.ar    1  LIG1        0.0624
     52 C         -11.5919    7.9851   -1.2952 C.ar    1  LIG1       -0.0431
     53 C         -12.6192    8.9376   -1.3241 C.ar    1  LIG1       -0.0315
     54 C         -12.9708    9.4936   -0.1078 C.ar    1  LIG1        0.0343
     55 N         -12.3901    9.1834    1.0583 N.ar    1  LIG1       -0.2205
     56 H         -11.2799    7.5009   -2.2170 H       1  LIG1        0.0629
     57 H         -13.7652   10.2358   -0.0567 H       1  LIG1        0.0833
     58 O         -10.8097    7.9758    2.2102 O.3     1  LIG1       -0.4792
     59 C         -11.2710    8.6352    3.3806 C.3     1  LIG1        0.0804
     60 H         -10.6585    8.2472    4.1942 H       1  LIG1        0.0660
     61 H         -11.1512    9.7183    3.2983 H       1  LIG1        0.0660
     62 H         -12.3265    8.4205    3.5643 H       1  LIG1        0.0660
     63 C         -13.3055    9.3244   -2.6047 C.3     1  LIG1       -0.0383
     64 H         -14.0739   10.0798   -2.4254 H       1  LIG1        0.0278
     65 H         -13.7897    8.4634   -3.0757 H       1  LIG1        0.0278
     66 H         -12.5979    9.7362   -3.3310 H       1  LIG1        0.0278
@<TRIPOS>BOND
     1    11    10    1
     2    10    12    1
     3    10    13    1
     4    10     9    1
     5    66    63    1
     6    65    63    1
     7    63    64    1
     8    63    53    1
     9     9     1    1
    10    48    46    1
    11    29    26    1
    12    56    52    1
    13    27    26    1
    14    26    25    1
    15    26    28    1
    16    49    46    1
    17    46    47    1
    18    46    37    1
    19     1     6   ar
    20     1     2   ar
    21    53    52   ar
    22    53    54   ar
    23    52    51   ar
    24     6     5   ar
    25    40    36    1
    26    25    18    1
    27    37    36   ar
    28    37    38   ar
    29    36    35   ar
    30     8     2    1
    31    18    23   ar
    32    18    19   ar
    33    23    22   ar
    34     2     3   ar
    35    51    38    1
    36    51    50   ar
    37    54    57    1
    38    54    55   ar
    39    38    39   ar
    40     5    19    1
    41     5     4   ar
    42    35    22    1
    43    35    34   ar
    44    19    20   ar
    45    22    21   ar
    46    39    34   ar
    47    34    41    1
    48    20    21   ar
    49    20    24    1
    50    32    30    1
    51    21    30    1
    52     3     4   ar
    53     3     7    1
    54    50    55   ar
    55    50    58    1
    56     4    14    1
    57    45    42    1
    58    41    42    1
    59    30    31    1
    60    30    33    1
    61    42    43    1
    62    42    44    1
    63    58    59    1
    64    14    15    1
    65    14    16    1
    66    14    17    1
    67    61    59    1
    68    59    62    1
    69    59    60    1
