@<TRIPOS>MOLECULE
mol_data/opt/cam/geoms/mol2/6li6li.out
 34 35 0 0 0
SMALL
GASTEIGER

@<TRIPOS>ATOM
      1 C          -4.5369   -1.9911   -0.6250 C.ar    1  LIG1        0.2150
      2 C          -3.2928   -2.1648   -0.0066 C.ar    1  LIG1        0.0003
      3 C          -2.7661   -1.0829    0.6608 C.ar    1  LIG1       -0.0518
      4 C          -3.4512    0.1393    0.7103 C.ar    1  LIG1       -0.0241
      5 C          -4.6775    0.1919    0.0500 C.ar    1  LIG1        0.0828
      6 N          -5.2057   -0.8574   -0.6024 N.ar    1  LIG1       -0.2125
      7 H          -1.8089   -1.1753    1.1662 H       1  LIG1        0.0622
      8 H          -2.7908   -3.1229   -0.0583 H       1  LIG1        0.0671
      9 O          -5.0542   -3.0557   -1.2702 O.3     1  LIG1       -0.4796
     10 C          -6.3283   -2.8791   -1.8750 C.3     1  LIG1        0.0804
     11 H          -6.5783   -3.8431   -2.3176 H       1  LIG1        0.0660
     12 H          -7.0794   -2.5926   -1.1350 H       1  LIG1        0.0660
     13 H          -6.2955   -2.1052   -2.6460 H       1  LIG1        0.0660
     14 C          -2.8732    1.3117    1.4594 C.3     1  LIG1       -0.0377
     15 H          -3.6475    1.8776    1.9813 H       1  LIG1        0.0278
     16 H          -2.3571    2.0110    0.7933 H       1  LIG1        0.0278
     17 H          -2.1448    0.9717    2.1995 H       1  LIG1        0.0278
     18 C          -6.7532    1.5187    0.6355 C.ar    1  LIG1        0.2239
     19 C          -5.4927    1.4388    0.0057 C.ar    1  LIG1        0.0624
     20 C          -5.0731    2.5626   -0.6783 C.ar    1  LIG1       -0.0431
     21 C          -5.8711    3.7124   -0.7483 C.ar    1  LIG1       -0.0315
     22 C          -7.0887    3.6515   -0.0957 C.ar    1  LIG1        0.0343
     23 N          -7.5255    2.5852    0.5865 N.ar    1  LIG1       -0.2205
     24 H          -4.1104    2.5428   -1.1827 H       1  LIG1        0.0629
     25 H          -7.7610    4.5073   -0.1148 H       1  LIG1        0.0833
     26 O          -7.1577    0.4426    1.3346 O.3     1  LIG1       -0.4792
     27 C          -8.4279    0.5257    1.9648 C.3     1  LIG1        0.0804
     28 H          -8.5679   -0.4320    2.4655 H       1  LIG1        0.0660
     29 H          -8.4567    1.3418    2.6911 H       1  LIG1        0.0660
     30 H          -9.2218    0.6908    1.2324 H       1  LIG1        0.0660
     31 C          -5.4304    4.9388   -1.4981 C.3     1  LIG1       -0.0383
     32 H          -6.1888    5.7233   -1.4473 H       1  LIG1        0.0278
     33 H          -5.2499    4.7192   -2.5550 H       1  LIG1        0.0278
     34 H          -4.5016    5.3482   -1.0886 H       1  LIG1        0.0278
@<TRIPOS>BOND
     1    13    10    1
     2    33    31    1
     3    11    10    1
     4    10     9    1
     5    10    12    1
     6    31    32    1
     7    31    34    1
     8    31    21    1
     9     9     1    1
    10    24    20    1
    11    21    20   ar
    12    21    22   ar
    13    20    19   ar
    14     1     6   ar
    15     1     2   ar
    16     6     5   ar
    17    25    22    1
    18    22    23   ar
    19     8     2    1
    20     2     3   ar
    21    19     5    1
    22    19    18   ar
    23     5     4   ar
    24    23    18   ar
    25    18    26    1
    26     3     4   ar
    27     3     7    1
    28     4    14    1
    29    16    14    1
    30    30    27    1
    31    26    27    1
    32    14    15    1
    33    14    17    1
    34    27    28    1
    35    27    29    1
