@<TRIPOS>MOLECULE
mol_data/opt/cam/geoms/mol2/6ll.out
 19 19 0 0 0
SMALL
GASTEIGER

@<TRIPOS>ATOM
      1 C          -4.6541   -1.9709    0.0000 C.ar    1  LIG1        0.2146
      2 C          -3.2622   -2.0817    0.0000 C.ar    1  LIG1        0.0034
      3 C          -2.5085   -0.9222   -0.0001 C.ar    1  LIG1       -0.0134
      4 C          -3.1669    0.3098   -0.0002 C.ar    1  LIG1        0.1383
      5 C          -4.5563    0.3050   -0.0002 C.ar    1  LIG1        0.0730
      6 N          -5.2869   -0.8096   -0.0001 N.ar    1  LIG1       -0.2177
      7 H          -1.4271   -0.9839   -0.0001 H       1  LIG1        0.0656
      8 H          -2.8021   -3.0621    0.0001 H       1  LIG1        0.0672
      9 H          -5.0869    1.2533   -0.0003 H       1  LIG1        0.0868
     10 O          -5.3645   -3.1202    0.0002 O.3     1  LIG1       -0.4796
     11 C          -6.7791   -2.9968    0.0002 C.3     1  LIG1        0.0804
     12 H          -7.1624   -4.0171    0.0003 H       1  LIG1        0.0660
     13 H          -7.1305   -2.4611    0.8857 H       1  LIG1        0.0660
     14 H          -7.1306   -2.4612   -0.8854 H       1  LIG1        0.0660
     15 O          -2.5613    1.5296   -0.0004 O.3     1  LIG1       -0.4936
     16 C          -1.1517    1.5609   -0.0005 C.3     1  LIG1        0.0789
     17 H          -0.8693    2.6134   -0.0006 H       1  LIG1        0.0660
     18 H          -0.7348    1.0790    0.8923 H       1  LIG1        0.0660
     19 H          -0.7350    1.0788   -0.8933 H       1  LIG1        0.0660
@<TRIPOS>BOND
     1    19    16    1
     2    14    11    1
     3    17    16    1
     4    16    15    1
     5    16    18    1
     6    15     4    1
     7     9     5    1
     8     4     5   ar
     9     4     3   ar
    10     5     6   ar
    11     7     3    1
    12     3     2   ar
    13     6     1   ar
    14     2     1   ar
    15     2     8    1
    16     1    10    1
    17    10    11    1
    18    11    12    1
    19    11    13    1
