@<TRIPOS>MOLECULE
mol_data/opt/cam/geoms/mol2/6ll13al-12if13de.out
 53 56 0 0 0
SMALL
GASTEIGER

@<TRIPOS>ATOM
      1 C          -4.7139   -2.0567    0.4831 C.ar    1  LIG1        0.2152
      2 C          -3.3364   -2.2443    0.3610 C.ar    1  LIG1        0.0035
      3 C          -2.5571   -1.1331    0.1014 C.ar    1  LIG1       -0.0127
      4 C          -3.1542    0.1206   -0.0284 C.ar    1  LIG1        0.1476
      5 C          -4.5460    0.2116    0.1094 C.ar    1  LIG1        0.1324
      6 N          -5.2937   -0.8799    0.3606 N.ar    1  LIG1       -0.2077
      7 H          -1.4850   -1.2461    0.0018 H       1  LIG1        0.0656
      8 H          -2.9116   -3.2336    0.4711 H       1  LIG1        0.0672
      9 O          -5.4613   -3.1522    0.7399 O.3     1  LIG1       -0.4796
     10 C          -6.8577   -2.9645    0.8911 C.3     1  LIG1        0.0804
     11 H          -7.2668   -3.9515    1.1054 H       1  LIG1        0.0660
     12 H          -7.0808   -2.2808    1.7148 H       1  LIG1        0.0660
     13 H          -7.3059   -2.5663   -0.0240 H       1  LIG1        0.0660
     14 O          -2.4729    1.2717   -0.2828 O.3     1  LIG1       -0.4929
     15 C          -1.0698    1.1981   -0.4164 C.3     1  LIG1        0.0789
     16 H          -0.7292    2.2149   -0.6097 H       1  LIG1        0.0660
     17 H          -0.5954    0.8299    0.5007 H       1  LIG1        0.0660
     18 H          -0.7767    0.5569   -1.2559 H       1  LIG1        0.0660
     19 C          -5.2897    1.4595   -0.0030 C.ar    1  LIG1        0.0728
     20 C          -4.9286    2.7827   -0.2256 C.ar    1  LIG1        0.0078
     21 C          -6.1187    3.5378   -0.2124 C.ar    1  LIG1        0.1489
     22 C          -7.1856    2.6752    0.0220 C.ar    1  LIG1        0.1251
     23 N          -6.6422    1.4209    0.1371 N.ar    1  LIG1       -0.3475
     24 H          -7.1415    0.5679    0.3330 H       1  LIG1        0.1661
     25 H          -3.9252    3.1355   -0.3831 H       1  LIG1        0.0676
     26 O          -6.2754    4.8712   -0.4117 O.3     1  LIG1       -0.4929
     27 C          -5.0970    5.5934   -0.7010 C.3     1  LIG1        0.0789
     28 H          -5.3981    6.6305   -0.8478 H       1  LIG1        0.0660
     29 H          -4.3805    5.5377    0.1268 H       1  LIG1        0.0660
     30 H          -4.6170    5.2216   -1.6137 H       1  LIG1        0.0660
     31 C          -8.6133    2.8606    0.0995 C.ar    1  LIG1        0.1620
     32 C          -9.4478    3.8897    0.4316 C.ar    1  LIG1        0.0391
     33 C         -10.7741    3.3637    0.3290 C.ar    1  LIG1        0.1678
     34 C         -10.6747    2.0453   -0.0407 C.ar    1  LIG1        0.1945
     35 O          -9.3380    1.7352   -0.1841 O.2     1  LIG1       -0.4477
     36 C          -9.1444    5.2820    0.8747 C.3     1  LIG1       -0.0325
     37 H          -9.5017    5.4430    1.8964 H       1  LIG1        0.0280
     38 H          -9.6630    6.0061    0.2399 H       1  LIG1        0.0280
     39 H          -8.0769    5.4876    0.8308 H       1  LIG1        0.0280
     40 O         -11.8297    4.1534    0.5746 O.3     1  LIG1       -0.5030
     41 H         -12.6679    3.6666    0.6207 H       1  LIG1        0.2923
     42 C         -11.5716    0.9764   -0.3752 C.ar    1  LIG1        0.1046
     43 C         -12.9444    0.8007   -0.2337 C.ar    1  LIG1        0.0954
     44 C         -13.2834   -0.4882   -0.7775 C.ar    1  LIG1        0.0600
     45 C         -12.1100   -1.0440   -1.2176 C.ar    1  LIG1        0.0190
     46 N         -11.0962   -0.1569   -0.9694 N.ar    1  LIG1       -0.3560
     47 H         -10.1251   -0.2759   -1.2099 H       1  LIG1        0.1655
     48 H         -11.9302   -1.9987   -1.6847 H       1  LIG1        0.0820
     49 N         -14.4686    2.5574    0.8616 N.1     1  LIG1       -0.1908
     50 C         -13.8148    1.7380    0.3626 C.1     1  LIG1        0.1026
     51 C         -14.5782   -1.0677   -0.8352 C.1     1  LIG1       -0.0669
     52 C         -15.6804   -1.5488   -0.8788 C.1     1  LIG1       -0.1138
     53 H         -16.6587   -1.9696   -0.9151 H       1  LIG1        0.1232
@<TRIPOS>BOND
     1    48    45    1
     2    30    27    1
     3    18    15    1
     4    45    46   ar
     5    45    44   ar
     6    47    46    1
     7    46    42   ar
     8    53    52    1
     9    52    51    3
    10    28    27    1
    11    51    44    1
    12    44    43   ar
    13    27    26    1
    14    27    29    1
    15    16    15    1
    16    15    14    1
    17    15    17    1
    18    26    21    1
    19    25    20    1
    20    42    43   ar
    21    42    34    1
    22    14     4    1
    23    43    50    1
    24    20    21   ar
    25    20    19   ar
    26    21    22   ar
    27    35    34   ar
    28    35    31   ar
    29    34    33   ar
    30     4     3   ar
    31     4     5   ar
    32    13    10    1
    33    19     5    1
    34    19    23   ar
    35     7     3    1
    36    22    31    1
    37    22    23   ar
    38    31    32   ar
    39     3     2   ar
    40     5     6   ar
    41    23    24    1
    42    38    36    1
    43    33    32   ar
    44    33    40    1
    45     6     1   ar
    46     2     8    1
    47     2     1   ar
    48    50    49    3
    49    32    36    1
    50     1     9    1
    51    40    41    1
    52     9    10    1
    53    39    36    1
    54    36    37    1
    55    10    11    1
    56    10    12    1
