@<TRIPOS>MOLECULE
mol_data/opt/cam/geoms/mol2/6ll13fh-6ea-6hl-13fh-4da-13fh6ed-.out
 101 108 0 0 0
SMALL
GASTEIGER

@<TRIPOS>ATOM
      1 C          -4.4226   -1.9000    1.4873 C.ar    1  LIG1        0.2152
      2 C          -3.0413   -2.0905    1.4444 C.ar    1  LIG1        0.0035
      3 C          -2.2743   -1.0512    0.9526 C.ar    1  LIG1       -0.0127
      4 C          -2.8847    0.1254    0.5308 C.ar    1  LIG1        0.1477
      5 C          -4.2800    0.2430    0.6275 C.ar    1  LIG1        0.1360
      6 N          -5.0110   -0.7879    1.0968 N.ar    1  LIG1       -0.2076
      7 H          -1.1992   -1.1649    0.8961 H       1  LIG1        0.0656
      8 H          -2.6060   -3.0205    1.7855 H       1  LIG1        0.0672
      9 O          -5.1681   -2.9194    1.9615 O.3     1  LIG1       -0.4796
     10 C          -6.5655   -2.7020    2.0800 C.3     1  LIG1        0.0804
     11 H          -6.9703   -3.6194    2.5064 H       1  LIG1        0.0660
     12 H          -6.7807   -1.8545    2.7360 H       1  LIG1        0.0660
     13 H          -7.0235   -2.5068    1.1068 H       1  LIG1        0.0660
     14 O          -2.1827    1.1846    0.0021 O.3     1  LIG1       -0.4929
     15 C          -0.7984    1.0247   -0.2480 C.3     1  LIG1        0.0789
     16 H          -0.4694    1.9433   -0.7331 H       1  LIG1        0.0660
     17 H          -0.2361    0.8873    0.6817 H       1  LIG1        0.0660
     18 H          -0.6151    0.1771   -0.9162 H       1  LIG1        0.0660
     19 C          -5.0598    1.4106    0.2410 C.ar    1  LIG1        0.1130
     20 C          -4.7897    2.7382   -0.0912 C.ar    1  LIG1        0.1651
     21 C          -6.0148    3.3919   -0.3238 C.ar    1  LIG1        0.0930
     22 C          -7.0314    2.4577   -0.1306 C.ar    1  LIG1        0.0742
     23 N          -6.4267    1.2773    0.1951 N.ar    1  LIG1       -0.3484
     24 H          -6.8818    0.4015    0.3981 H       1  LIG1        0.1661
     25 O          -3.6223    3.4177   -0.1741 O.3     1  LIG1       -0.5030
     26 H          -2.9041    2.7687   -0.0793 H       1  LIG1        0.2923
     27 N          -6.1254    4.7595   -0.6526 N.pl3   1  LIG1       -0.3535
     28 H          -5.1977    5.1681   -0.6904 H       1  LIG1        0.1425
     29 H          -6.5760    4.9022   -1.5507 H       1  LIG1        0.1425
     30 C          -9.4222    1.6261   -0.3936 C.ar    1  LIG1        0.1229
     31 C          -8.4747    2.6479   -0.1981 C.ar    1  LIG1        0.0341
     32 C          -9.0067    3.9375   -0.0216 C.ar    1  LIG1       -0.0479
     33 C         -10.3637    4.1530   -0.0560 C.ar    1  LIG1       -0.0349
     34 C         -11.2393    3.0753   -0.2813 C.ar    1  LIG1        0.0758
     35 N         -10.7447    1.8441   -0.4296 N.ar    1  LIG1       -0.2376
     36 H          -8.3229    4.7585    0.1641 H       1  LIG1        0.0626
     37 C          -9.0539    0.2501   -0.6010 C.1     1  LIG1       -0.0491
     38 C          -8.7916   -0.9102   -0.7903 C.1     1  LIG1       -0.1124
     39 H          -8.5618   -1.9318   -0.9893 H       1  LIG1        0.1232
     40 H         -10.7498    5.1477    0.1275 H       1  LIG1        0.0639
     41 C         -13.6354    2.2136   -0.1669 C.ar    1  LIG1        0.1264
     42 C         -12.7005    3.2619   -0.3606 C.ar    1  LIG1        0.0434
     43 C         -13.2354    4.5233   -0.6445 C.ar    1  LIG1       -0.0053
     44 C         -14.5989    4.7421   -0.6998 C.ar    1  LIG1        0.1483
     45 C         -15.4517    3.6527   -0.4543 C.ar    1  LIG1        0.1343
     46 N         -14.9523    2.4354   -0.2132 N.ar    1  LIG1       -0.2265
     47 H         -12.5630    5.3440   -0.8558 H       1  LIG1        0.0662
     48 N         -13.2571    0.9336    0.1220 N.pl3   1  LIG1       -0.3426
     49 H         -13.9932    0.2496    0.0635 H       1  LIG1        0.1437
     50 H         -12.3114    0.6787   -0.1329 H       1  LIG1        0.1437
     51 O         -15.1859    5.9277   -0.9970 O.3     1  LIG1       -0.4929
     52 C         -14.3715    7.0617   -1.1550 C.3     1  LIG1        0.0789
     53 H         -15.0503    7.8970   -1.3248 H       1  LIG1        0.0660
     54 H         -13.7727    7.2600   -0.2568 H       1  LIG1        0.0660
     55 H         -13.6982    6.9648   -2.0167 H       1  LIG1        0.0660
     56 C         -16.9095    3.7219   -0.4512 C.ar    1  LIG1        0.1129
     57 C         -17.9108    4.6865   -0.5268 C.ar    1  LIG1        0.1651
     58 C         -19.1607    4.0415   -0.3593 C.ar    1  LIG1        0.0930
     59 C         -18.9155    2.6824   -0.1826 C.ar    1  LIG1        0.0728
     60 N         -17.5659    2.5211   -0.2673 N.ar    1  LIG1       -0.3484
     61 H         -17.0222    1.6989   -0.0459 H       1  LIG1        0.1661
     62 O         -17.8523    6.0133   -0.7398 O.3     1  LIG1       -0.5030
     63 H         -18.7934    6.2754   -0.7548 H       1  LIG1        0.2923
     64 N         -20.3438    4.8181   -0.4745 N.pl3   1  LIG1       -0.3535
     65 H         -20.9607    4.4948   -1.2115 H       1  LIG1        0.1425
     66 H         -20.8721    4.8605    0.3912 H       1  LIG1        0.1425
     67 C         -20.9662    1.5101    0.7254 C.ar    1  LIG1        0.0615
     68 C         -21.7744    0.3748    0.8066 C.ar    1  LIG1       -0.0345
     69 C         -19.7890    1.5206   -0.0498 C.ar    1  LIG1        0.0176
     70 C         -21.4277   -0.8031    0.1454 C.ar    1  LIG1        0.0032
     71 H         -22.6816    0.4106    1.3976 H       1  LIG1        0.0637
     72 C         -19.4544    0.3248   -0.7010 C.ar    1  LIG1       -0.0507
     73 C         -20.2401   -0.8071   -0.5998 C.ar    1  LIG1       -0.0518
     74 H         -18.5604    0.3009   -1.3142 H       1  LIG1        0.0625
     75 N         -21.7036    3.5480    2.1461 N.1     1  LIG1       -0.1908
     76 C         -21.3584    2.6491    1.5038 C.1     1  LIG1        0.0998
     77 H         -19.9201   -1.7132   -1.1048 H       1  LIG1        0.0624
     78 C         -22.2791   -1.9837    0.2382 C.ar    1  LIG1        0.0909
     79 C         -23.2511   -2.3272    1.1640 C.ar    1  LIG1        0.1635
     80 C         -23.8000   -3.5754    0.8069 C.ar    1  LIG1        0.0930
     81 C         -23.1421   -3.9944   -0.3481 C.ar    1  LIG1        0.0742
     82 N         -22.2223   -3.0116   -0.6584 N.ar    1  LIG1       -0.3497
     83 H         -21.7254   -2.9853   -1.5353 H       1  LIG1        0.1661
     84 O         -23.6894   -1.6051    2.2495 O.3     1  LIG1       -0.5031
     85 H         -22.9976   -1.5869    2.9234 H       1  LIG1        0.2923
     86 N         -24.7882   -4.2303    1.5523 N.pl3   1  LIG1       -0.3535
     87 H         -25.1022   -3.6284    2.3058 H       1  LIG1        0.1425
     88 H         -25.5877   -4.5133    0.9970 H       1  LIG1        0.1425
     89 C         -22.8402   -5.4481   -2.4208 C.ar    1  LIG1        0.1223
     90 C         -23.2850   -5.2359   -1.0931 C.ar    1  LIG1        0.0353
     91 C         -23.8885   -6.3357   -0.4671 C.ar    1  LIG1       -0.0310
     92 C         -24.0392   -7.5331   -1.1503 C.ar    1  LIG1        0.0705
     93 C         -23.5701   -7.6244   -2.4661 C.ar    1  LIG1        0.0464
     94 N         -22.9832   -6.6109   -3.0735 N.ar    1  LIG1       -0.2448
     95 H         -24.2149   -6.2510    0.5628 H       1  LIG1        0.0638
     96 H         -23.6770   -8.5471   -3.0288 H       1  LIG1        0.0843
     97 C         -22.1984   -4.4227   -3.1998 C.1     1  LIG1       -0.0491
     98 C         -21.6579   -3.5905   -3.8830 C.1     1  LIG1       -0.1124
     99 H         -21.1963   -2.8665   -4.5160 H       1  LIG1        0.1232
    100 N         -25.1534   -9.5825   -0.0242 N.1     1  LIG1       -0.1908
    101 C         -24.6546   -8.6659   -0.5224 C.1     1  LIG1        0.1007
@<TRIPOS>BOND
     1    99    98    1
     2    98    97    3
     3    97    89    1
     4    94    93   ar
     5    94    89   ar
     6    96    93    1
     7    93    92   ar
     8    89    90   ar
     9    55    52    1
    10    29    27    1
    11    83    82    1
    12    53    52    1
    13    74    72    1
    14    65    64    1
    15    52    51    1
    16    52    54    1
    17    92   101    1
    18    92    91   ar
    19    77    73    1
    20    90    91   ar
    21    90    81    1
    22    51    44    1
    23    39    38    1
    24    18    15    1
    25    47    43    1
    26    38    37    3
    27    63    62    1
    28    62    57    1
    29    16    15    1
    30    72    73   ar
    31    72    69   ar
    32    44    43   ar
    33    44    45   ar
    34    28    27    1
    35    82    81   ar
    36    82    78   ar
    37    27    21    1
    38    43    42   ar
    39    37    30    1
    40    73    70   ar
    41    57    56   ar
    42    57    58   ar
    43   101   100    3
    44    64    58    1
    45    64    66    1
    46    91    95    1
    47    45    56    1
    48    45    46   ar
    49    56    60   ar
    50    35    30   ar
    51    35    34   ar
    52    30    31   ar
    53    42    34    1
    54    42    41   ar
    55    58    59   ar
    56    81    80   ar
    57    21    22   ar
    58    21    20   ar
    59    34    33   ar
    60    60    59   ar
    61    60    61    1
    62    15    14    1
    63    15    17    1
    64    46    41   ar
    65    31    22    1
    66    31    32   ar
    67    59    69    1
    68    25    20    1
    69    25    26    1
    70    41    48    1
    71    50    48    1
    72    22    23   ar
    73    20    19   ar
    74    33    32   ar
    75    33    40    1
    76    69    67   ar
    77    32    36    1
    78    14     4    1
    79    49    48    1
    80    70    78    1
    81    70    68   ar
    82    23    19   ar
    83    23    24    1
    84    78    79   ar
    85    19     5    1
    86     4     5   ar
    87     4     3   ar
    88     5     6   ar
    89    67    68   ar
    90    67    76    1
    91    68    71    1
    92    80    79   ar
    93    80    86    1
    94     7     3    1
    95     3     2   ar
    96    88    86    1
    97     6     1   ar
    98    13    10    1
    99    79    84    1
   100     2     1   ar
   101     2     8    1
   102     1     9    1
   103    76    75    3
   104    86    87    1
   105     9    10    1
   106    10    11    1
   107    10    12    1
   108    84    85    1
