@<TRIPOS>MOLECULE
mol_data/opt/cam/geoms/mol2/6ll12eh13ai4fh-.out
 54 57 0 0 0
SMALL
GASTEIGER

@<TRIPOS>ATOM
      1 C          -4.3799   -2.0943   -0.6965 C.ar    1  LIG1        0.2153
      2 C          -3.0492   -2.1835   -0.2786 C.ar    1  LIG1        0.0035
      3 C          -2.4550   -1.0451    0.2276 C.ar    1  LIG1       -0.0127
      4 C          -3.1863    0.1429    0.2966 C.ar    1  LIG1        0.1493
      5 C          -4.5021    0.1389   -0.1831 C.ar    1  LIG1        0.1525
      6 N          -5.0776   -0.9793   -0.6547 N.ar    1  LIG1       -0.2060
      7 H          -1.4316   -1.0831    0.5795 H       1  LIG1        0.0656
      8 H          -2.5202   -3.1254   -0.3513 H       1  LIG1        0.0672
      9 O          -4.9506   -3.2230   -1.1731 O.3     1  LIG1       -0.4796
     10 C          -6.2938   -3.1190   -1.6189 C.3     1  LIG1        0.0804
     11 H          -6.5656   -4.1149   -1.9686 H       1  LIG1        0.0660
     12 H          -6.9577   -2.8095   -0.8072 H       1  LIG1        0.0660
     13 H          -6.3871   -2.3940   -2.4316 H       1  LIG1        0.0660
     14 O          -2.7241    1.3001    0.8281 O.3     1  LIG1       -0.4929
     15 C          -1.3611    1.3872    1.1758 C.3     1  LIG1        0.0789
     16 H          -1.1988    2.4162    1.4945 H       1  LIG1        0.0660
     17 H          -1.1092    0.7103    2.0011 H       1  LIG1        0.0660
     18 H          -0.7118    1.1684    0.3199 H       1  LIG1        0.0660
     19 C          -5.3383    1.3374   -0.1758 C.ar    1  LIG1        0.1747
     20 C          -5.1147    2.6831   -0.3660 C.ar    1  LIG1        0.0933
     21 C          -6.3999    3.3223   -0.3045 C.ar    1  LIG1        0.0887
     22 C          -7.3091    2.3299   -0.0748 C.ar    1  LIG1        0.1736
     23 O          -6.6632    1.1245   -0.0082 O.2     1  LIG1       -0.4485
     24 C          -3.9261    3.3876   -0.6906 C.1     1  LIG1       -0.0639
     25 C          -2.9905    4.0792   -1.0057 C.1     1  LIG1       -0.1137
     26 H          -2.1453    4.6663   -1.2810 H       1  LIG1        0.1232
     27 N          -6.6342    4.6846   -0.4396 N.pl3   1  LIG1       -0.3540
     28 H          -5.8559    5.1690   -0.8685 H       1  LIG1        0.1425
     29 H          -7.5071    4.8971   -0.9059 H       1  LIG1        0.1425
     30 C          -8.7375    2.3262    0.0763 C.ar    1  LIG1        0.0847
     31 C          -9.6382    3.3551    0.2780 C.ar    1  LIG1       -0.0298
     32 C         -10.9425    2.7981    0.3109 C.ar    1  LIG1       -0.0244
     33 C         -10.8042    1.4327    0.1298 C.ar    1  LIG1        0.0535
     34 N          -9.4582    1.1670    0.0012 N.ar    1  LIG1       -0.3514
     35 H          -9.0595    0.2673   -0.2129 H       1  LIG1        0.1660
     36 H          -9.3824    4.3915    0.4478 H       1  LIG1        0.0642
     37 C         -12.2093    3.5560    0.5572 C.3     1  LIG1       -0.0377
     38 H         -12.9375    2.9491    1.1006 H       1  LIG1        0.0278
     39 H         -12.6846    3.8606   -0.3793 H       1  LIG1        0.0278
     40 H         -12.0110    4.4542    1.1480 H       1  LIG1        0.0278
     41 C         -12.9652    0.3729   -0.5870 C.ar    1  LIG1        0.1261
     42 C         -13.8361   -0.7089   -0.5501 C.ar    1  LIG1       -0.0178
     43 C         -11.7697    0.3281    0.1446 C.ar    1  LIG1        0.0417
     44 C         -13.5373   -1.8471    0.1854 C.ar    1  LIG1       -0.0376
     45 H         -14.7605   -0.6690   -1.1216 H       1  LIG1        0.0655
     46 C         -11.4852   -0.8288    0.8761 C.ar    1  LIG1       -0.0284
     47 C         -12.3473   -1.9248    0.9090 C.ar    1  LIG1        0.0254
     48 H         -10.5736   -0.8550    1.4669 H       1  LIG1        0.0644
     49 H         -14.2371   -2.6773    0.2020 H       1  LIG1        0.0637
     50 O         -13.2214    1.4816   -1.3461 O.3     1  LIG1       -0.5061
     51 H         -14.0687    1.3649   -1.7902 H       1  LIG1        0.2922
     52 N         -12.0596   -3.0402    1.7048 N.pl3   1  LIG1       -0.3579
     53 H         -12.4904   -3.8982    1.3916 H       1  LIG1        0.1423
     54 H         -11.0771   -3.1739    1.8962 H       1  LIG1        0.1423
@<TRIPOS>BOND
     1    13    10    1
     2    11    10    1
     3    51    50    1
     4    10     9    1
     5    10    12    1
     6    50    41    1
     7    26    25    1
     8     9     1    1
     9    45    42    1
    10    25    24    3
    11    29    27    1
    12    28    27    1
    13     1     6   ar
    14     1     2   ar
    15    24    20    1
    16     6     5   ar
    17    41    42   ar
    18    41    43   ar
    19    42    44   ar
    20    27    21    1
    21    39    37    1
    22    20    21   ar
    23    20    19   ar
    24     8     2    1
    25    21    22   ar
    26     2     3   ar
    27    35    34    1
    28     5    19    1
    29     5     4   ar
    30    19    23   ar
    31    22    23   ar
    32    22    30    1
    33    34    30   ar
    34    34    33   ar
    35    30    31   ar
    36    33    43    1
    37    33    32   ar
    38    43    46   ar
    39    44    49    1
    40    44    47   ar
    41     3     4   ar
    42     3     7    1
    43    31    32   ar
    44    31    36    1
    45     4    14    1
    46    32    37    1
    47    18    15    1
    48    37    38    1
    49    37    40    1
    50    14    15    1
    51    46    47   ar
    52    46    48    1
    53    47    52    1
    54    15    16    1
    55    15    17    1
    56    53    52    1
    57    52    54    1
