@<TRIPOS>MOLECULE
mol_data/opt/cam/geoms/mol2/6ll13id6ei13ea-.out
 55 58 0 0 0
SMALL
GASTEIGER

@<TRIPOS>ATOM
      1 C          -4.5599   -2.0702    0.4703 C.ar    1  LIG1        0.2152
      2 C          -3.2378   -2.2836    0.0753 C.ar    1  LIG1        0.0035
      3 C          -2.5136   -1.1910   -0.3568 C.ar    1  LIG1       -0.0127
      4 C          -3.1032    0.0757   -0.3734 C.ar    1  LIG1        0.1476
      5 C          -4.4183    0.2011    0.0888 C.ar    1  LIG1        0.1326
      6 N          -5.1217   -0.8790    0.4774 N.ar    1  LIG1       -0.2077
      7 H          -1.4936   -1.3266   -0.6933 H       1  LIG1        0.0656
      8 H          -2.8164   -3.2803    0.1035 H       1  LIG1        0.0672
      9 O          -5.2693   -3.1496    0.8616 O.3     1  LIG1       -0.4796
     10 C          -6.5932   -2.9226    1.3202 C.3     1  LIG1        0.0804
     11 H          -6.9716   -3.8993    1.6204 H       1  LIG1        0.0660
     12 H          -6.6058   -2.2351    2.1699 H       1  LIG1        0.0660
     13 H          -7.2242   -2.5039    0.5309 H       1  LIG1        0.0660
     14 O          -2.4914    1.1938   -0.8437 O.3     1  LIG1       -0.4929
     15 C          -1.1789    1.0792   -1.3497 C.3     1  LIG1        0.0789
     16 H          -0.8948    2.0778   -1.6801 H       1  LIG1        0.0660
     17 H          -0.4749    0.7433   -0.5793 H       1  LIG1        0.0660
     18 H          -1.1342    0.3925   -2.2031 H       1  LIG1        0.0660
     19 C          -5.1724    1.4600    0.1283 C.ar    1  LIG1        0.0733
     20 C          -4.8665    2.8014    0.2898 C.ar    1  LIG1       -0.0056
     21 C          -6.1147    3.4892    0.2825 C.ar    1  LIG1        0.0806
     22 C          -7.1476    2.5570    0.1306 C.ar    1  LIG1        0.0675
     23 N          -6.5383    1.3522    0.0471 N.ar    1  LIG1       -0.3516
     24 H          -7.0012    0.4580   -0.0342 H       1  LIG1        0.1660
     25 C          -3.5485    3.4767    0.5029 C.3     1  LIG1       -0.0364
     26 H          -3.6999    4.4413    0.9924 H       1  LIG1        0.0279
     27 H          -3.0306    3.6557   -0.4422 H       1  LIG1        0.0279
     28 H          -2.8866    2.8738    1.1254 H       1  LIG1        0.0279
     29 N          -6.3105    6.0494    0.5160 N.1     1  LIG1       -0.1908
     30 C          -6.2384    4.8981    0.4034 C.1     1  LIG1        0.1016
     31 C          -9.5062    1.8035   -0.4519 C.ar    1  LIG1        0.1230
     32 C          -8.5986    2.7424    0.0797 C.ar    1  LIG1        0.0337
     33 C          -9.1737    3.8987    0.6143 C.ar    1  LIG1       -0.0449
     34 C         -10.5370    4.1472    0.5733 C.ar    1  LIG1       -0.0223
     35 C         -11.3380    3.1794   -0.0648 C.ar    1  LIG1        0.0926
     36 N         -10.8182    2.0320   -0.5136 N.ar    1  LIG1       -0.2360
     37 H          -8.5387    4.6259    1.1055 H       1  LIG1        0.0628
     38 C          -9.1082    0.5253   -0.9836 C.1     1  LIG1       -0.0491
     39 C          -8.8155   -0.5536   -1.4320 C.1     1  LIG1       -0.1124
     40 H          -8.5625   -1.4971   -1.8595 H       1  LIG1        0.1232
     41 C         -11.0853    5.3636    1.2604 C.3     1  LIG1       -0.0376
     42 H         -12.0526    5.1545    1.7217 H       1  LIG1        0.0278
     43 H         -11.2428    6.1848    0.5596 H       1  LIG1        0.0278
     44 H         -10.3928    5.7019    2.0337 H       1  LIG1        0.0278
     45 C         -12.7971    3.2527   -0.2275 C.ar    1  LIG1        0.0808
     46 C         -13.7335    4.2593   -0.4686 C.ar    1  LIG1        0.0514
     47 C         -15.0050    3.6248   -0.5932 C.ar    1  LIG1       -0.0283
     48 C         -14.8109    2.2778   -0.4453 C.ar    1  LIG1        0.0034
     49 N         -13.4833    2.0698   -0.2283 N.ar    1  LIG1       -0.3585
     50 H         -12.9960    1.1876   -0.1817 H       1  LIG1        0.1654
     51 H         -15.5120    1.4580   -0.4735 H       1  LIG1        0.0807
     52 C         -13.5238    5.6466   -0.6996 C.1     1  LIG1       -0.0675
     53 C         -13.4078    6.8229   -0.9336 C.1     1  LIG1       -0.1138
     54 H         -13.2947    7.8611   -1.1448 H       1  LIG1        0.1232
     55 H         -15.9400    4.1281   -0.7861 H       1  LIG1        0.0645
@<TRIPOS>BOND
     1    18    15    1
     2    40    39    1
     3    16    15    1
     4    39    38    3
     5    15    14    1
     6    15    17    1
     7    54    53    1
     8    38    31    1
     9    53    52    3
    10    14     4    1
    11    55    47    1
    12    52    46    1
    13     7     3    1
    14    47    46   ar
    15    47    48   ar
    16    36    31   ar
    17    36    35   ar
    18    51    48    1
    19    46    45   ar
    20    31    32   ar
    21    48    49   ar
    22    27    25    1
    23     4     3   ar
    24     4     5   ar
    25     3     2   ar
    26    49    45   ar
    27    49    50    1
    28    45    35    1
    29    35    34   ar
    30    24    23    1
    31    23    19   ar
    32    23    22   ar
    33     2     8    1
    34     2     1   ar
    35    32    22    1
    36    32    33   ar
    37     5    19    1
    38     5     6   ar
    39    19    20   ar
    40    22    21   ar
    41    21    20   ar
    42    21    30    1
    43    20    25    1
    44    30    29    3
    45     1     6   ar
    46     1     9    1
    47    25    26    1
    48    25    28    1
    49    13    10    1
    50    43    41    1
    51    34    33   ar
    52    34    41    1
    53    33    37    1
    54     9    10    1
    55    41    42    1
    56    41    44    1
    57    10    11    1
    58    10    12    1
