@<TRIPOS>MOLECULE
mol_data/opt/cam/geoms/mol2/6ll6ll6ll.out
 53 55 0 0 0
SMALL
GASTEIGER

@<TRIPOS>ATOM
      1 C          -4.2140   -1.9190   -1.2174 C.ar    1  LIG1        0.2152
      2 C          -3.1091   -2.2345   -0.4244 C.ar    1  LIG1        0.0035
      3 C          -2.7372   -1.3285    0.5488 C.ar    1  LIG1       -0.0128
      4 C          -3.4678   -0.1490    0.7100 C.ar    1  LIG1        0.1464
      5 C          -4.5638    0.0755   -0.1322 C.ar    1  LIG1        0.1215
      6 N          -4.9056   -0.8067   -1.0787 N.ar    1  LIG1       -0.2090
      7 H          -1.8863   -1.5445    1.1827 H       1  LIG1        0.0656
      8 H          -2.5746   -3.1632   -0.5802 H       1  LIG1        0.0672
      9 O          -4.5735   -2.8121   -2.1646 O.3     1  LIG1       -0.4796
     10 C          -5.7248   -2.4903   -2.9332 C.3     1  LIG1        0.0804
     11 H          -5.8892   -3.3464   -3.5874 H       1  LIG1        0.0660
     12 H          -6.5935   -2.3244   -2.2915 H       1  LIG1        0.0660
     13 H          -5.5634   -1.5869   -3.5273 H       1  LIG1        0.0660
     14 O          -3.1811    0.8058    1.6426 O.3     1  LIG1       -0.4930
     15 C          -2.1744    0.5251    2.5895 C.3     1  LIG1        0.0789
     16 H          -2.1536    1.3749    3.2716 H       1  LIG1        0.0660
     17 H          -2.3971   -0.3855    3.1582 H       1  LIG1        0.0660
     18 H          -1.1887    0.4205    2.1196 H       1  LIG1        0.0660
     19 C          -6.7990    1.2541    0.0206 C.ar    1  LIG1        0.2248
     20 C          -5.3932    1.3018   -0.0308 C.ar    1  LIG1        0.0690
     21 C          -4.8188    2.5643   -0.0105 C.ar    1  LIG1       -0.0034
     22 C          -5.6129    3.7074    0.0401 C.ar    1  LIG1        0.1470
     23 C          -7.0018    3.5495    0.0691 C.ar    1  LIG1        0.1215
     24 N          -7.5536    2.3326    0.0563 N.ar    1  LIG1       -0.2085
     25 H          -3.7403    2.6407   -0.0256 H       1  LIG1        0.0663
     26 O          -7.3963    0.0462    0.0662 O.3     1  LIG1       -0.4792
     27 C          -8.8122    0.0439    0.1795 C.3     1  LIG1        0.0804
     28 H          -9.0949   -1.0051    0.2694 H       1  LIG1        0.0660
     29 H          -9.1406    0.6076    1.0560 H       1  LIG1        0.0660
     30 H          -9.2804    0.4869   -0.7035 H       1  LIG1        0.0660
     31 O          -5.1174    4.9803    0.0588 O.3     1  LIG1       -0.4929
     32 C          -3.7216    5.1430    0.1758 C.3     1  LIG1        0.0789
     33 H          -3.5461    6.2163    0.2503 H       1  LIG1        0.0660
     34 H          -3.3317    4.6511    1.0747 H       1  LIG1        0.0660
     35 H          -3.1897    4.7544   -0.7013 H       1  LIG1        0.0660
     36 C          -8.9803    4.7974    1.0329 C.ar    1  LIG1        0.2242
     37 C          -7.9275    4.7096    0.1023 C.ar    1  LIG1        0.0690
     38 C          -7.8037    5.7493   -0.8109 C.ar    1  LIG1       -0.0040
     39 C          -8.7134    6.8041   -0.7937 C.ar    1  LIG1        0.1390
     40 C          -9.7243    6.7735    0.1559 C.ar    1  LIG1        0.0730
     41 N          -9.8475    5.7951    1.0502 N.ar    1  LIG1       -0.2171
     42 H          -6.9913    5.7189   -1.5242 H       1  LIG1        0.0663
     43 H         -10.4523    7.5797    0.1869 H       1  LIG1        0.0868
     44 O          -9.0860    3.8298    1.9670 O.3     1  LIG1       -0.4792
     45 C         -10.1417    3.9598    2.9054 C.3     1  LIG1        0.0804
     46 H         -10.0535    3.0960    3.5644 H       1  LIG1        0.0660
     47 H         -10.0522    4.8849    3.4811 H       1  LIG1        0.0660
     48 H         -11.1162    3.9598    2.4103 H       1  LIG1        0.0660
     49 O          -8.6986    7.8718   -1.6411 O.3     1  LIG1       -0.4936
     50 C          -7.6758    7.9221   -2.6095 C.3     1  LIG1        0.0789
     51 H          -7.8337    8.8413   -3.1736 H       1  LIG1        0.0660
     52 H          -6.6810    7.9504   -2.1482 H       1  LIG1        0.0660
     53 H          -7.7242    7.0681   -3.2963 H       1  LIG1        0.0660
@<TRIPOS>BOND
     1    11    10    1
     2    13    10    1
     3    53    50    1
     4    51    50    1
     5    10    12    1
     6    10     9    1
     7    50    52    1
     8    50    49    1
     9     9     1    1
    10    49    39    1
    11    42    38    1
    12     1     6   ar
    13     1     2   ar
    14     6     5   ar
    15    38    39   ar
    16    38    37   ar
    17    39    40   ar
    18    30    27    1
    19    35    32    1
    20     8     2    1
    21     2     3   ar
    22     5    20    1
    23     5     4   ar
    24    20    21   ar
    25    20    19   ar
    26    25    21    1
    27    21    22   ar
    28    19    24   ar
    29    19    26    1
    30    22    31    1
    31    22    23   ar
    32    24    23   ar
    33    31    32    1
    34    26    27    1
    35    23    37    1
    36    37    36   ar
    37    40    43    1
    38    40    41   ar
    39    32    33    1
    40    32    34    1
    41    27    28    1
    42    27    29    1
    43     3     4   ar
    44     3     7    1
    45     4    14    1
    46    36    41   ar
    47    36    44    1
    48    14    15    1
    49    44    45    1
    50    18    15    1
    51    48    45    1
    52    15    17    1
    53    15    16    1
    54    45    47    1
    55    45    46    1
