@<TRIPOS>MOLECULE
mol_data/opt/cam/geoms/mol2/6ll6ll.out
 36 37 0 0 0
SMALL
GASTEIGER

@<TRIPOS>ATOM
      1 C          -4.5498   -2.0332    0.6708 C.ar    1  LIG1        0.2152
      2 C          -3.2363   -2.1947    0.2261 C.ar    1  LIG1        0.0035
      3 C          -2.6063   -1.0991   -0.3298 C.ar    1  LIG1       -0.0128
      4 C          -3.2928    0.1131   -0.4325 C.ar    1  LIG1        0.1464
      5 C          -4.6096    0.1735    0.0378 C.ar    1  LIG1        0.1215
      6 N          -5.2045   -0.8933    0.5842 N.ar    1  LIG1       -0.2090
      7 H          -1.5880   -1.1919   -0.6863 H       1  LIG1        0.0656
      8 H          -2.7441   -3.1544    0.3213 H       1  LIG1        0.0672
      9 O          -5.1581   -3.1109    1.2117 O.3     1  LIG1       -0.4796
     10 C          -6.5054   -2.9353    1.6280 C.3     1  LIG1        0.0804
     11 H          -6.8329   -3.9130    1.9810 H       1  LIG1        0.0660
     12 H          -6.5776   -2.1995    2.4333 H       1  LIG1        0.0660
     13 H          -7.1330   -2.5962    0.8003 H       1  LIG1        0.0660
     14 O          -2.7606    1.2514   -0.9653 O.3     1  LIG1       -0.4930
     15 C          -1.4841    1.1697   -1.5591 C.3     1  LIG1        0.0789
     16 H          -1.2774    2.1570   -1.9718 H       1  LIG1        0.0660
     17 H          -0.7075    0.9197   -0.8258 H       1  LIG1        0.0660
     18 H          -1.4614    0.4308   -2.3688 H       1  LIG1        0.0660
     19 C          -6.6995    1.4491   -0.5889 C.ar    1  LIG1        0.2242
     20 C          -5.4080    1.4241   -0.0306 C.ar    1  LIG1        0.0690
     21 C          -4.9173    2.6178    0.4828 C.ar    1  LIG1       -0.0040
     22 C          -5.7066    3.7654    0.4512 C.ar    1  LIG1        0.1390
     23 C          -6.9739    3.6660   -0.1050 C.ar    1  LIG1        0.0730
     24 N          -7.4531    2.5348   -0.6175 N.ar    1  LIG1       -0.2171
     25 H          -3.9196    2.6328    0.9005 H       1  LIG1        0.0663
     26 H          -7.6135    4.5440   -0.1350 H       1  LIG1        0.0868
     27 O          -7.1717    0.3141   -1.1441 O.3     1  LIG1       -0.4792
     28 C          -8.4679    0.3737   -1.7176 C.3     1  LIG1        0.0804
     29 H          -8.6593   -0.6254   -2.1093 H       1  LIG1        0.0660
     30 H          -9.2212    0.6377   -0.9709 H       1  LIG1        0.0660
     31 H          -8.5137    1.1109   -2.5236 H       1  LIG1        0.0660
     32 O          -5.3401    4.9882    0.9285 O.3     1  LIG1       -0.4936
     33 C          -4.0531    5.1120    1.4895 C.3     1  LIG1        0.0789
     34 H          -3.9527    6.1526    1.7975 H       1  LIG1        0.0660
     35 H          -3.9283    4.4658    2.3672 H       1  LIG1        0.0660
     36 H          -3.2681    4.8762    0.7606 H       1  LIG1        0.0660
@<TRIPOS>BOND
     1    31    28    1
     2    18    15    1
     3    29    28    1
     4    16    15    1
     5    28    27    1
     6    28    30    1
     7    15    14    1
     8    15    17    1
     9    27    19    1
    10    14     4    1
    11     7     3    1
    12    24    19   ar
    13    24    23   ar
    14    19    20   ar
    15     4     3   ar
    16     4     5   ar
    17     3     2   ar
    18    26    23    1
    19    23    22   ar
    20    20     5    1
    21    20    21   ar
    22     5     6   ar
    23     2     8    1
    24     2     1   ar
    25    22    21   ar
    26    22    32    1
    27    21    25    1
    28     6     1   ar
    29     1     9    1
    30    36    33    1
    31    13    10    1
    32    32    33    1
    33     9    10    1
    34    33    34    1
    35    33    35    1
    36    10    11    1
    37    10    12    1
