@<TRIPOS>MOLECULE
mol_data/opt/cam/geoms/mol2/6ll6ll6ll6ll.out
 70 73 0 0 0
SMALL
GASTEIGER

@<TRIPOS>ATOM
      1 C          -3.7406   -1.6699   -1.6237 C.ar    1  LIG1        0.2152
      2 C          -2.9294   -2.2233   -0.6313 C.ar    1  LIG1        0.0035
      3 C          -2.9088   -1.6023    0.6016 C.ar    1  LIG1       -0.0128
      4 C          -3.6903   -0.4644    0.8153 C.ar    1  LIG1        0.1464
      5 C          -4.4756    0.0118   -0.2418 C.ar    1  LIG1        0.1215
      6 N          -4.4760   -0.5937   -1.4354 N.ar    1  LIG1       -0.2090
      7 H          -2.2917   -2.0075    1.3937 H       1  LIG1        0.0656
      8 H          -2.3439   -3.1102   -0.8387 H       1  LIG1        0.0672
      9 O          -3.7569   -2.2849   -2.8260 O.3     1  LIG1       -0.4796
     10 C          -4.6173   -1.7276   -3.8103 C.3     1  LIG1        0.0804
     11 H          -4.5400   -2.3873   -4.6745 H       1  LIG1        0.0660
     12 H          -5.6487   -1.6821   -3.4524 H       1  LIG1        0.0660
     13 H          -4.3059   -0.7149   -4.0796 H       1  LIG1        0.0660
     14 O          -3.7385    0.2179    1.9968 O.3     1  LIG1       -0.4930
     15 C          -3.0745   -0.3380    3.1100 C.3     1  LIG1        0.0789
     16 H          -3.2973    0.3150    3.9537 H       1  LIG1        0.0660
     17 H          -3.4367   -1.3484    3.3334 H       1  LIG1        0.0660
     18 H          -1.9880   -0.3725    2.9628 H       1  LIG1        0.0660
     19 C          -6.6845    1.2211   -0.5043 C.ar    1  LIG1        0.2248
     20 C          -5.3357    1.2127   -0.1013 C.ar    1  LIG1        0.0690
     21 C          -4.8404    2.4019    0.4133 C.ar    1  LIG1       -0.0034
     22 C          -5.6488    3.5326    0.5011 C.ar    1  LIG1        0.1470
     23 C          -6.9716    3.4392    0.0562 C.ar    1  LIG1        0.1215
     24 N          -7.4481    2.2913   -0.4350 N.ar    1  LIG1       -0.2085
     25 H          -3.8146    2.4289    0.7540 H       1  LIG1        0.0663
     26 O          -7.2254    0.0703   -0.9521 O.3     1  LIG1       -0.4792
     27 C          -8.6049    0.1081   -1.2891 C.3     1  LIG1        0.0804
     28 H          -8.8681   -0.9166   -1.5517 H       1  LIG1        0.0660
     29 H          -9.2090    0.4582   -0.4487 H       1  LIG1        0.0660
     30 H          -8.7864    0.7736   -2.1372 H       1  LIG1        0.0660
     31 O          -5.2250    4.7345    0.9939 O.3     1  LIG1       -0.4929
     32 C          -3.9518    4.7873    1.5983 C.3     1  LIG1        0.0789
     33 H          -3.8483    5.7948    2.0013 H       1  LIG1        0.0660
     34 H          -3.8626    4.0615    2.4150 H       1  LIG1        0.0660
     35 H          -3.1476    4.6083    0.8741 H       1  LIG1        0.0660
     36 C          -9.2138    4.4872    0.5994 C.ar    1  LIG1        0.2248
     37 C          -7.9032    4.5925    0.0948 C.ar    1  LIG1        0.0690
     38 C          -7.5315    5.8367   -0.3942 C.ar    1  LIG1       -0.0034
     39 C          -8.4290    6.9016   -0.3920 C.ar    1  LIG1        0.1470
     40 C          -9.7137    6.6852    0.1150 C.ar    1  LIG1        0.1215
     41 N         -10.0689    5.4886    0.5918 N.ar    1  LIG1       -0.2085
     42 H          -6.5251    5.9629   -0.7685 H       1  LIG1        0.0663
     43 O          -9.5995    3.3159    1.1449 O.3     1  LIG1       -0.4792
     44 C         -10.9064    3.2764    1.6993 C.3     1  LIG1        0.0804
     45 H         -11.0020    2.2874    2.1479 H       1  LIG1        0.0660
     46 H         -11.0413    4.0560    2.4530 H       1  LIG1        0.0660
     47 H         -11.6681    3.4162    0.9276 H       1  LIG1        0.0660
     48 O          -8.1316    8.1500   -0.8610 O.3     1  LIG1       -0.4929
     49 C          -6.7980    8.4123   -1.2367 C.3     1  LIG1        0.0789
     50 H          -6.7592    9.4691   -1.5013 H       1  LIG1        0.0660
     51 H          -6.1011    8.2213   -0.4122 H       1  LIG1        0.0660
     52 H          -6.4930    7.8154   -2.1050 H       1  LIG1        0.0660
     53 C         -11.4897    8.0448    1.2985 C.ar    1  LIG1        0.2242
     54 C         -10.7435    7.7541    0.1403 C.ar    1  LIG1        0.0690
     55 C         -11.0305    8.4972   -0.9980 C.ar    1  LIG1       -0.0040
     56 C         -12.0343    9.4625   -0.9661 C.ar    1  LIG1        0.1390
     57 C         -12.7188    9.6472    0.2262 C.ar    1  LIG1        0.0730
     58 N         -12.4458    8.9573    1.3315 N.ar    1  LIG1       -0.2171
     59 H         -10.4589    8.3095   -1.8968 H       1  LIG1        0.0663
     60 H         -13.5122   10.3880    0.2772 H       1  LIG1        0.0868
     61 O         -11.1902    7.3785    2.4328 O.3     1  LIG1       -0.4792
     62 C         -11.9425    7.7126    3.5878 C.3     1  LIG1        0.0804
     63 H         -11.5507    7.0789    4.3837 H       1  LIG1        0.0660
     64 H         -11.8228    8.7670    3.8509 H       1  LIG1        0.0660
     65 H         -13.0077    7.5176    3.4391 H       1  LIG1        0.0660
     66 O         -12.4089   10.2456   -2.0171 O.3     1  LIG1       -0.4936
     67 C         -11.7177   10.0796   -3.2342 C.3     1  LIG1        0.0789
     68 H         -12.1525   10.7945   -3.9327 H       1  LIG1        0.0660
     69 H         -10.6468   10.2903   -3.1250 H       1  LIG1        0.0660
     70 H         -11.8405    9.0666   -3.6367 H       1  LIG1        0.0660
@<TRIPOS>BOND
     1    11    10    1
     2    13    10    1
     3    68    67    1
     4    10    12    1
     5    10     9    1
     6    70    67    1
     7    67    69    1
     8    67    66    1
     9     9     1    1
    10    30    27    1
    11    52    49    1
    12    66    56    1
    13    59    55    1
    14     1     6   ar
    15     1     2   ar
    16    28    27    1
    17    50    49    1
    18     6     5   ar
    19    27    26    1
    20    27    29    1
    21    49    48    1
    22    49    51    1
    23    55    56   ar
    24    55    54   ar
    25    56    57   ar
    26    26    19    1
    27    48    39    1
    28     8     2    1
    29    42    38    1
    30     2     3   ar
    31    19    24   ar
    32    19    20   ar
    33    24    23   ar
    34    38    39   ar
    35    38    37   ar
    36    39    40   ar
    37     5    20    1
    38     5     4   ar
    39    20    21   ar
    40    23    37    1
    41    23    22   ar
    42    37    36   ar
    43    40    54    1
    44    40    41   ar
    45    54    53   ar
    46    57    60    1
    47    57    58   ar
    48    21    22   ar
    49    21    25    1
    50    22    31    1
    51    41    36   ar
    52    36    43    1
    53     3     4   ar
    54     3     7    1
    55     4    14    1
    56    35    32    1
    57    47    44    1
    58    31    32    1
    59    43    44    1
    60    53    58   ar
    61    53    61    1
    62    32    33    1
    63    32    34    1
    64    44    45    1
    65    44    46    1
    66    14    15    1
    67    61    62    1
    68    18    15    1
    69    15    17    1
    70    15    16    1
    71    65    62    1
    72    62    64    1
    73    62    63    1
