@<TRIPOS>MOLECULE
mol_data/opt/cam/geoms/mol2/812-12-8.out
 28 31 0 0 0
SMALL
GASTEIGER

@<TRIPOS>ATOM
      1 C          -0.5517    0.1918    0.0000 C.ar    1  LIG1        0.1605
      2 N           0.7673    0.0114    0.0000 N.ar    1  LIG1       -0.1338
      3 C           0.9034    2.2696    0.0000 C.ar    1  LIG1        0.2381
      4 N          -1.1769    1.3709   -0.0000 N.ar    1  LIG1       -0.1338
      5 N           1.5255    1.0818    0.0001 N.ar    1  LIG1       -0.1226
      6 N          -0.4297    2.4437    0.0000 N.ar    1  LIG1       -0.1226
      7 H          -1.1731   -0.6962    0.0000 H       1  LIG1        0.1085
      8 C           1.7011    3.4790    0.0000 C.ar    1  LIG1        0.1761
      9 C           1.3384    4.7958   -0.0000 C.ar    1  LIG1       -0.0119
     10 C           2.5438    5.5373    0.0000 C.ar    1  LIG1       -0.0121
     11 C           3.5566    4.6149    0.0000 C.ar    1  LIG1        0.1707
     12 O           3.0530    3.3621    0.0000 O.2     1  LIG1       -0.4485
     13 H           0.3254    5.1668   -0.0001 H       1  LIG1        0.0657
     14 H           2.6541    6.6109    0.0000 H       1  LIG1        0.0657
     15 C           4.9893    4.7634    0.0000 C.ar    1  LIG1        0.1707
     16 C           5.7915    5.8738    0.0001 C.ar    1  LIG1       -0.0121
     17 C           7.1233    5.3952    0.0001 C.ar    1  LIG1       -0.0119
     18 C           7.0383    4.0320    0.0001 C.ar    1  LIG1        0.1761
     19 O           5.7391    3.6404    0.0000 O.2     1  LIG1       -0.4485
     20 H           5.4634    6.9020    0.0001 H       1  LIG1        0.0657
     21 H           8.0387    5.9660    0.0001 H       1  LIG1        0.0657
     22 C           8.0671    3.0118    0.0001 C.ar    1  LIG1        0.2381
     23 N           7.7017    1.7217   -0.0000 N.ar    1  LIG1       -0.1226
     24 C           9.9173    1.2766   -0.0001 C.ar    1  LIG1        0.1605
     25 N           9.3361    3.4556    0.0001 N.ar    1  LIG1       -0.1226
     26 N           8.6633    0.8295   -0.0001 N.ar    1  LIG1       -0.1338
     27 N          10.2874    2.5588    0.0000 N.ar    1  LIG1       -0.1338
     28 H          10.7076    0.5349    0.0001 H       1  LIG1        0.1085
@<TRIPOS>BOND
     1    24    26   ar
     2    24    27   ar
     3    24    28    1
     4    13     9    1
     5    26    23   ar
     6     9    10   ar
     7     9     8   ar
     8    23    22   ar
     9     4     6   ar
    10     4     1   ar
    11     6     3   ar
    12     7     1    1
    13    10    14    1
    14    10    11   ar
    15    27    25   ar
    16    12     8   ar
    17    12    11   ar
    18     8     3    1
    19    11    15    1
    20     1     2   ar
    21    19    15   ar
    22    19    18   ar
    23    15    16   ar
    24     3     5   ar
    25     2     5   ar
    26    16    20    1
    27    16    17   ar
    28    18    22    1
    29    18    17   ar
    30    25    22   ar
    31    17    21    1
