@<TRIPOS>MOLECULE
mol_data/opt/cam/geoms/mol2/812-5-.out
 22 24 0 0 0
SMALL
GASTEIGER

@<TRIPOS>ATOM
      1 C          -0.1526    0.0384   -0.0001 C.ar    1  LIG1        0.1605
      2 N           1.1765   -0.0310    0.0000 N.ar    1  LIG1       -0.1338
      3 C           1.1246    2.2324    0.0000 C.ar    1  LIG1        0.2381
      4 N          -0.8737    1.1617   -0.0002 N.ar    1  LIG1       -0.1338
      5 N           1.8431    1.0987    0.0001 N.ar    1  LIG1       -0.1226
      6 N          -0.2199    2.2931   -0.0001 N.ar    1  LIG1       -0.1226
      7 H          -0.6980   -0.8982   -0.0002 H       1  LIG1        0.1085
      8 C           1.8198    3.4997    0.0001 C.ar    1  LIG1        0.1760
      9 C           1.3609    4.7855   -0.0000 C.ar    1  LIG1       -0.0120
     10 C           2.5061    5.6179    0.0001 C.ar    1  LIG1       -0.0146
     11 C           3.5911    4.7804    0.0002 C.ar    1  LIG1        0.1424
     12 O           3.1797    3.4916    0.0001 O.2     1  LIG1       -0.4511
     13 H           0.3225    5.0788   -0.0001 H       1  LIG1        0.0657
     14 H           2.5314    6.6967    0.0002 H       1  LIG1        0.0656
     15 C           5.0160    5.0124    0.0003 C.ar    1  LIG1        0.0544
     16 C           5.6682    6.2174    0.0004 C.ar    1  LIG1       -0.0440
     17 C           7.0814    6.0794    0.0005 C.ar    1  LIG1       -0.0540
     18 C           7.4782    4.7761    0.0005 C.ar    1  LIG1       -0.0236
     19 S           6.1422    3.6913    0.0001 S.2     1  LIG1       -0.0936
     20 H           8.4863    4.3874    0.0007 H       1  LIG1        0.0693
     21 H           5.1531    7.1701    0.0004 H       1  LIG1        0.0630
     22 H           7.7695    6.9153    0.0007 H       1  LIG1        0.0623
@<TRIPOS>BOND
     1     7     1    1
     2     4     1   ar
     3     4     6   ar
     4    13     9    1
     5     1     2   ar
     6     6     3   ar
     7     9     8   ar
     8     9    10   ar
     9     2     5   ar
    10     3     8    1
    11     3     5   ar
    12     8    12   ar
    13    12    11   ar
    14    10    14    1
    15    10    11   ar
    16    19    15   ar
    17    19    18   ar
    18    11    15    1
    19    15    16   ar
    20    16    21    1
    21    16    17   ar
    22    17    18   ar
    23    17    22    1
    24    18    20    1
