@<TRIPOS>MOLECULE
mol_data/opt/cam/geoms/mol2/812-12-12-.out
 29 32 0 0 0
SMALL
GASTEIGER

@<TRIPOS>ATOM
      1 C          -0.5418    0.1920    0.0000 C.ar    1  LIG1        0.1605
      2 N           0.7779    0.0189   -0.0000 N.ar    1  LIG1       -0.1338
      3 C           0.9037    2.2792   -0.0000 C.ar    1  LIG1        0.2381
      4 N          -1.1728    1.3683    0.0000 N.ar    1  LIG1       -0.1338
      5 N           1.5312    1.0926   -0.0000 N.ar    1  LIG1       -0.1226
      6 N          -0.4322    2.4448    0.0000 N.ar    1  LIG1       -0.1226
      7 H          -1.1588   -0.6990    0.0000 H       1  LIG1        0.1085
      8 C           1.6935    3.4899    0.0000 C.ar    1  LIG1        0.1761
      9 C           1.3271    4.8061    0.0001 C.ar    1  LIG1       -0.0119
     10 C           2.5283    5.5529    0.0000 C.ar    1  LIG1       -0.0121
     11 C           3.5471    4.6349    0.0000 C.ar    1  LIG1        0.1707
     12 O           3.0486    3.3805    0.0000 O.2     1  LIG1       -0.4485
     13 H           0.3125    5.1730    0.0001 H       1  LIG1        0.0657
     14 H           2.6340    6.6269   -0.0000 H       1  LIG1        0.0657
     15 C           4.9779    4.7860    0.0000 C.ar    1  LIG1        0.1707
     16 C           5.7861    5.8871    0.0000 C.ar    1  LIG1       -0.0121
     17 C           7.1198    5.4028    0.0000 C.ar    1  LIG1       -0.0121
     18 C           7.0321    4.0389    0.0000 C.ar    1  LIG1        0.1707
     19 O           5.7320    3.6563    0.0000 O.2     1  LIG1       -0.4486
     20 H           5.4644    6.9177    0.0000 H       1  LIG1        0.0657
     21 H           8.0280    5.9860   -0.0000 H       1  LIG1        0.0657
     22 C           8.0312    2.9993    0.0001 C.ar    1  LIG1        0.1697
     23 C           9.3948    3.0325    0.0001 C.ar    1  LIG1       -0.0128
     24 C           9.8243    1.6725    0.0002 C.ar    1  LIG1       -0.0232
     25 C           8.6953    0.9215   -0.0000 C.ar    1  LIG1        0.0927
     26 O           7.5965    1.7133    0.0001 O.2     1  LIG1       -0.4598
     27 H           8.5084   -0.1402   -0.0001 H       1  LIG1        0.1029
     28 H          10.0146    3.9164    0.0001 H       1  LIG1        0.0656
     29 H          10.8399    1.3070    0.0002 H       1  LIG1        0.0649
@<TRIPOS>BOND
     1    27    25    1
     2    25    26   ar
     3    25    24   ar
     4     5     3   ar
     5     5     2   ar
     6     3     8    1
     7     3     6   ar
     8    14    10    1
     9    21    17    1
    10     2     1   ar
    11     1     4   ar
    12     1     7    1
    13    10    11   ar
    14    10     9   ar
    15    17    16   ar
    16    17    18   ar
    17     8    12   ar
    18     8     9   ar
    19     6     4   ar
    20    20    16    1
    21    11    15    1
    22    11    12   ar
    23    16    15   ar
    24    15    19   ar
    25    18    19   ar
    26    18    22    1
    27    26    22   ar
    28    22    23   ar
    29     9    13    1
    30    23    28    1
    31    23    24   ar
    32    24    29    1
