@<TRIPOS>MOLECULE
mol_data/opt/cam/geoms/mol2/812-8.out
 21 23 0 0 0
SMALL
GASTEIGER

@<TRIPOS>ATOM
      1 C          -0.2132    0.0561    0.0000 C.ar    1  LIG1        0.1605
      2 N           1.1140   -0.0519    0.0000 N.ar    1  LIG1       -0.1338
      3 C           1.1241    2.2092   -0.0000 C.ar    1  LIG1        0.2381
      4 N          -0.9027    1.1984    0.0000 N.ar    1  LIG1       -0.1338
      5 N           1.8114    1.0594   -0.0000 N.ar    1  LIG1       -0.1226
      6 N          -0.2146    2.3110   -0.0000 N.ar    1  LIG1       -0.1226
      7 H          -0.7846   -0.8650    0.0000 H       1  LIG1        0.1085
      8 C           1.8564    3.4640   -0.0000 C.ar    1  LIG1        0.1761
      9 C           1.4172    4.7586    0.0000 C.ar    1  LIG1       -0.0119
     10 C           2.5805    5.5645   -0.0000 C.ar    1  LIG1       -0.0119
     11 C           3.6382    4.6983    0.0000 C.ar    1  LIG1        0.1761
     12 O           3.2070    3.4177    0.0000 O.2     1  LIG1       -0.4483
     13 H           0.3849    5.0716    0.0000 H       1  LIG1        0.0657
     14 H           2.6502    6.6410   -0.0000 H       1  LIG1        0.0657
     15 C           5.0703    4.9430    0.0000 C.ar    1  LIG1        0.2381
     16 N           5.9053    3.8956    0.0000 N.ar    1  LIG1       -0.1226
     17 C           7.5560    5.4386    0.0000 C.ar    1  LIG1        0.1605
     18 N           5.4454    6.2322    0.0000 N.ar    1  LIG1       -0.1226
     19 N           7.1908    4.1582    0.0000 N.ar    1  LIG1       -0.1338
     20 N           6.7287    6.4855    0.0000 N.ar    1  LIG1       -0.1338
     21 H           8.6191    5.6500    0.0000 H       1  LIG1        0.1085
@<TRIPOS>BOND
     1     3     6   ar
     2     3     8    1
     3     3     5   ar
     4    14    10    1
     5     6     4   ar
     6    10    11   ar
     7    10     9   ar
     8     8     9   ar
     9     8    12   ar
    10     5     2   ar
    11    15    11    1
    12    15    16   ar
    13    15    18   ar
    14     4     1   ar
    15    11    12   ar
    16    16    19   ar
    17     1     2   ar
    18     1     7    1
    19     9    13    1
    20    19    17   ar
    21    18    20   ar
    22    21    17    1
    23    20    17   ar
