@<TRIPOS>MOLECULE
mol_data/opt/cam/geoms/mol2/812-13-.out
 23 25 0 0 0
SMALL
GASTEIGER

@<TRIPOS>ATOM
      1 C          -0.1283    0.0273    0.0001 C.ar    1  LIG1        0.1605
      2 N           1.2013   -0.0257   -0.0001 N.ar    1  LIG1       -0.1338
      3 C           1.1227    2.2390    0.0000 C.ar    1  LIG1        0.2381
      4 N          -0.8627    1.1428    0.0002 N.ar    1  LIG1       -0.1338
      5 N           1.8546    1.1121   -0.0001 N.ar    1  LIG1       -0.1226
      6 N          -0.2240    2.2822    0.0002 N.ar    1  LIG1       -0.1226
      7 H          -0.6628   -0.9154    0.0001 H       1  LIG1        0.1085
      8 C           1.8058    3.5088    0.0000 C.ar    1  LIG1        0.1760
      9 C           1.3487    4.7954    0.0001 C.ar    1  LIG1       -0.0120
     10 C           2.4920    5.6310    0.0000 C.ar    1  LIG1       -0.0137
     11 C           3.5786    4.7961   -0.0001 C.ar    1  LIG1        0.1519
     12 O           3.1697    3.5043   -0.0001 O.2     1  LIG1       -0.4501
     13 H           0.3101    5.0884    0.0002 H       1  LIG1        0.0657
     14 H           2.5165    6.7097    0.0000 H       1  LIG1        0.0656
     15 C           5.0024    5.0017   -0.0003 C.ar    1  LIG1        0.0821
     16 C           5.7659    6.1527   -0.0003 C.ar    1  LIG1       -0.0334
     17 C           7.1231    5.7574   -0.0004 C.ar    1  LIG1       -0.0437
     18 C           7.1512    4.3818   -0.0006 C.ar    1  LIG1        0.0023
     19 N           5.8646    3.9332   -0.0005 N.ar    1  LIG1       -0.3583
     20 H           5.5632    2.9714   -0.0005 H       1  LIG1        0.1654
     21 H           7.9827    3.6940   -0.0008 H       1  LIG1        0.0807
     22 H           5.3830    7.1626   -0.0001 H       1  LIG1        0.0640
     23 H           7.9852    6.4075   -0.0004 H       1  LIG1        0.0633
@<TRIPOS>BOND
     1    21    18    1
     2    18    19   ar
     3    18    17   ar
     4    20    19    1
     5    19    15   ar
     6    17    23    1
     7    17    16   ar
     8    15    16   ar
     9    15    11    1
    10    16    22    1
    11    12    11   ar
    12    12     8   ar
    13    11    10   ar
    14     5     2   ar
    15     5     3   ar
    16     2     1   ar
    17    10    14    1
    18    10     9   ar
    19     8     3    1
    20     8     9   ar
    21     3     6   ar
    22     1     7    1
    23     1     4   ar
    24     9    13    1
    25     6     4   ar
