@<TRIPOS>MOLECULE
mol_data/opt/cam/geoms/mol2/812-1212-.out
 29 32 0 0 0
SMALL
GASTEIGER

@<TRIPOS>ATOM
      1 C          -0.1822    0.0170    0.0001 C.ar    1  LIG1        0.1605
      2 N           1.1463   -0.0602    0.0001 N.ar    1  LIG1       -0.1338
      3 C           1.1081    2.2038    0.0001 C.ar    1  LIG1        0.2381
      4 N          -0.8967    1.1448    0.0000 N.ar    1  LIG1       -0.1338
      5 N           1.8198    1.0656    0.0001 N.ar    1  LIG1       -0.1226
      6 N          -0.2364    2.2721    0.0000 N.ar    1  LIG1       -0.1226
      7 H          -0.7333   -0.9163    0.0001 H       1  LIG1        0.1085
      8 C           1.8104    3.4667   -0.0000 C.ar    1  LIG1        0.1761
      9 C           1.3583    4.7555   -0.0001 C.ar    1  LIG1       -0.0119
     10 C           2.5074    5.5829   -0.0001 C.ar    1  LIG1       -0.0121
     11 C           3.5827    4.7350   -0.0000 C.ar    1  LIG1        0.1707
     12 O           3.1714    3.4478   -0.0000 O.2     1  LIG1       -0.4485
     13 H           0.3212    5.0534   -0.0002 H       1  LIG1        0.0657
     14 H           2.5499    6.6607   -0.0001 H       1  LIG1        0.0657
     15 C           5.0006    4.9567   -0.0000 C.ar    1  LIG1        0.1707
     16 C           6.0751    4.1177    0.0000 C.ar    1  LIG1       -0.0121
     17 C           7.2287    4.9481   -0.0001 C.ar    1  LIG1       -0.0121
     18 C           6.7746    6.2345   -0.0000 C.ar    1  LIG1        0.1707
     19 O           5.4159    6.2541   -0.0000 O.2     1  LIG1       -0.4486
     20 H           6.0337    3.0392    0.0000 H       1  LIG1        0.0657
     21 H           8.2635    4.6430   -0.0001 H       1  LIG1        0.0657
     22 C           7.4384    7.5106   -0.0000 C.ar    1  LIG1        0.1697
     23 C           6.9884    8.7959   -0.0000 C.ar    1  LIG1       -0.0128
     24 C           8.1531    9.6217   -0.0001 C.ar    1  LIG1       -0.0232
     25 C           9.2144    8.7793    0.0000 C.ar    1  LIG1        0.0927
     26 O           8.7978    7.4876   -0.0001 O.2     1  LIG1       -0.4598
     27 H          10.2821    8.9284    0.0000 H       1  LIG1        0.1029
     28 H           5.9553    9.1069   -0.0000 H       1  LIG1        0.0656
     29 H           8.1900   10.7005   -0.0001 H       1  LIG1        0.0649
@<TRIPOS>BOND
     1    13     9    1
     2     9    10   ar
     3     9     8   ar
     4    26    22   ar
     5    26    25   ar
     6    21    17    1
     7    29    24    1
     8    14    10    1
     9    17    18   ar
    10    17    16   ar
    11    10    11   ar
    12    24    23   ar
    13    24    25   ar
    14    11    15    1
    15    11    12   ar
    16    22    18    1
    17    22    23   ar
    18    15    19   ar
    19    15    16   ar
    20    18    19   ar
    21    23    28    1
    22    12     8   ar
    23     8     3    1
    24     6     4   ar
    25     6     3   ar
    26    16    20    1
    27    25    27    1
    28     4     1   ar
    29     3     5   ar
    30     7     1    1
    31     1     2   ar
    32     5     2   ar
