@<TRIPOS>MOLECULE
mol_data/opt/cam/geoms/mol2/812-12-.out
 22 24 0 0 0
SMALL
GASTEIGER

@<TRIPOS>ATOM
      1 C          -0.2218    0.0586    0.0000 C.ar    1  LIG1        0.1605
      2 N           1.1051   -0.0457    0.0000 N.ar    1  LIG1       -0.1338
      3 C           1.1132    2.2182    0.0000 C.ar    1  LIG1        0.2381
      4 N          -0.9130    1.2004   -0.0000 N.ar    1  LIG1       -0.1338
      5 N           1.8015    1.0659    0.0001 N.ar    1  LIG1       -0.1226
      6 N          -0.2293    2.3141   -0.0000 N.ar    1  LIG1       -0.1226
      7 H          -0.7916   -0.8633   -0.0000 H       1  LIG1        0.1085
      8 C           1.8400    3.4681    0.0000 C.ar    1  LIG1        0.1761
      9 C           1.4083    4.7638   -0.0000 C.ar    1  LIG1       -0.0119
     10 C           2.5717    5.5698    0.0000 C.ar    1  LIG1       -0.0121
     11 C           3.6341    4.7044    0.0000 C.ar    1  LIG1        0.1707
     12 O           3.1988    3.4266    0.0000 O.2     1  LIG1       -0.4485
     13 H           0.3767    5.0800   -0.0001 H       1  LIG1        0.0657
     14 H           2.6239    6.6478    0.0000 H       1  LIG1        0.0657
     15 C           5.0588    4.9237    0.0000 C.ar    1  LIG1        0.1697
     16 C           5.8134    6.0600    0.0001 C.ar    1  LIG1       -0.0128
     17 C           7.1733    5.6326    0.0001 C.ar    1  LIG1       -0.0232
     18 C           7.1406    4.2766    0.0001 C.ar    1  LIG1        0.0927
     19 O           5.8631    3.8299    0.0000 O.2     1  LIG1       -0.4598
     20 H           7.9040    3.5153    0.0001 H       1  LIG1        0.1029
     21 H           5.4444    7.0746    0.0001 H       1  LIG1        0.0656
     22 H           8.0551    6.2550    0.0001 H       1  LIG1        0.0649
@<TRIPOS>BOND
     1    13     9    1
     2     9     8   ar
     3     9    10   ar
     4     4     6   ar
     5     4     1   ar
     6     7     1    1
     7     6     3   ar
     8     1     2   ar
     9    12     8   ar
    10    12    11   ar
    11    19    15   ar
    12    19    18   ar
    13     8     3    1
    14    10    11   ar
    15    10    14    1
    16    11    15    1
    17     2     5   ar
    18     3     5   ar
    19    15    16   ar
    20    17    16   ar
    21    17    22    1
    22    17    18   ar
    23    16    21    1
    24    18    20    1
