@<TRIPOS>MOLECULE
mol_data/opt/cam/geoms/mol2/812-5-8-.out
 28 31 0 0 0
SMALL
GASTEIGER

@<TRIPOS>ATOM
      1 C          -0.3000    0.0771   -0.0001 C.ar    1  LIG1        0.1605
      2 N           1.0274   -0.0232   -0.0001 N.ar    1  LIG1       -0.1338
      3 C           1.0266    2.2395    0.0001 C.ar    1  LIG1        0.2381
      4 N          -0.9953    1.2165   -0.0001 N.ar    1  LIG1       -0.1338
      5 N           1.7194    1.0912    0.0000 N.ar    1  LIG1       -0.1226
      6 N          -0.3148    2.3326   -0.0000 N.ar    1  LIG1       -0.1226
      7 H          -0.8667   -0.8467   -0.0002 H       1  LIG1        0.1085
      8 C           1.7516    3.4927    0.0001 C.ar    1  LIG1        0.1760
      9 C           1.3190    4.7878    0.0001 C.ar    1  LIG1       -0.0120
     10 C           2.4821    5.5950    0.0002 C.ar    1  LIG1       -0.0146
     11 C           3.5481    4.7340    0.0002 C.ar    1  LIG1        0.1424
     12 O           3.1088    3.4536    0.0001 O.2     1  LIG1       -0.4511
     13 H           0.2872    5.1030    0.0000 H       1  LIG1        0.0657
     14 H           2.5303    6.6731    0.0003 H       1  LIG1        0.0656
     15 C           4.9763    4.9366    0.0002 C.ar    1  LIG1        0.0551
     16 C           5.6430    6.1394    0.0003 C.ar    1  LIG1       -0.0433
     17 C           7.0444    5.9826    0.0003 C.ar    1  LIG1       -0.0431
     18 C           7.4267    4.6656    0.0002 C.ar    1  LIG1        0.0605
     19 S           6.0669    3.5922    0.0000 S.2     1  LIG1       -0.0820
     20 H           5.1412    7.0987    0.0005 H       1  LIG1        0.0630
     21 H           7.7606    6.7936    0.0005 H       1  LIG1        0.0630
     22 C           8.7830    4.1501    0.0001 C.ar    1  LIG1        0.2099
     23 N           9.7909    5.0394    0.0003 N.ar    1  LIG1       -0.1253
     24 C          11.1577    3.2418    0.0003 C.ar    1  LIG1        0.1605
     25 N           8.9438    2.8173    0.0001 N.ar    1  LIG1       -0.1253
     26 N          11.0114    4.5675    0.0003 N.ar    1  LIG1       -0.1339
     27 N          10.1672    2.3513    0.0001 N.ar    1  LIG1       -0.1339
     28 H          12.1705    2.8563    0.0001 H       1  LIG1        0.1085
@<TRIPOS>BOND
     1     7     1    1
     2     1     4   ar
     3     1     2   ar
     4     4     6   ar
     5     2     5   ar
     6     6     3   ar
     7     5     3   ar
     8    13     9    1
     9    19    18   ar
    10    19    15   ar
    11     3     8    1
    12    25    27   ar
    13    25    22   ar
    14     9     8   ar
    15     9    10   ar
    16    27    24   ar
    17     8    12   ar
    18    12    11   ar
    19    28    24    1
    20    22    18    1
    21    22    23   ar
    22    11    15    1
    23    11    10   ar
    24    18    17   ar
    25    15    16   ar
    26    10    14    1
    27    24    26   ar
    28    23    26   ar
    29    16    17   ar
    30    16    20    1
    31    17    21    1
