@<TRIPOS>MOLECULE
mol_data/opt/cam/geoms/mol2/812-4-13-.out
 33 36 0 0 0
SMALL
GASTEIGER

@<TRIPOS>ATOM
      1 C          -0.3905    0.0753    0.0019 C.ar    1  LIG1        0.1605
      2 N           0.9354   -0.0388    0.0013 N.ar    1  LIG1       -0.1338
      3 C           0.9604    2.2260    0.0007 C.ar    1  LIG1        0.2381
      4 N          -1.0732    1.2226    0.0019 N.ar    1  LIG1       -0.1338
      5 N           1.6400    1.0679    0.0007 N.ar    1  LIG1       -0.1226
      6 N          -0.3819    2.3313    0.0013 N.ar    1  LIG1       -0.1226
      7 H          -0.9674   -0.8423    0.0023 H       1  LIG1        0.1085
      8 C           1.6993    3.4677    0.0001 C.ar    1  LIG1        0.1760
      9 C           1.2882    4.7696   -0.0001 C.ar    1  LIG1       -0.0120
     10 C           2.4657    5.5558   -0.0008 C.ar    1  LIG1       -0.0151
     11 C           3.5213    4.6809   -0.0011 C.ar    1  LIG1        0.1358
     12 O           3.0565    3.4089   -0.0006 O.2     1  LIG1       -0.4516
     13 H           0.2620    5.1028    0.0003 H       1  LIG1        0.0657
     14 H           2.5253    6.6331   -0.0011 H       1  LIG1        0.0656
     15 C           5.5356    6.1328   -0.0024 C.ar    1  LIG1       -0.0505
     16 C           6.9067    6.2971   -0.0032 C.ar    1  LIG1       -0.0520
     17 C           4.9660    4.8546   -0.0018 C.ar    1  LIG1        0.0173
     18 C           7.7731    5.1942   -0.0032 C.ar    1  LIG1       -0.0017
     19 H           7.3179    7.2999   -0.0038 H       1  LIG1        0.0624
     20 C           5.8196    3.7489   -0.0018 C.ar    1  LIG1       -0.0505
     21 C           7.1935    3.9196   -0.0025 C.ar    1  LIG1       -0.0520
     22 H           5.3971    2.7509   -0.0013 H       1  LIG1        0.0625
     23 H           4.8972    7.0100   -0.0025 H       1  LIG1        0.0625
     24 H           7.8150    3.0299   -0.0022 H       1  LIG1        0.0624
     25 C           9.2198    5.3950   -0.0039 C.ar    1  LIG1        0.0465
     26 C           9.9685    6.5570   -0.0026 C.ar    1  LIG1       -0.0364
     27 C          11.3366    6.1986   -0.0034 C.ar    1  LIG1       -0.0438
     28 C          11.3966    4.8270   -0.0069 C.ar    1  LIG1        0.0022
     29 N          10.1170    4.3513   -0.0065 N.ar    1  LIG1       -0.3607
     30 H           9.8713    3.3764   -0.0084 H       1  LIG1        0.1653
     31 H          12.2417    4.1558   -0.0091 H       1  LIG1        0.0807
     32 H           9.5738    7.5621   -0.0004 H       1  LIG1        0.0639
     33 H          12.1821    6.8703   -0.0022 H       1  LIG1        0.0633
@<TRIPOS>BOND
     1    31    28    1
     2    30    29    1
     3    28    29   ar
     4    28    27   ar
     5    29    25   ar
     6    25    18    1
     7    25    26   ar
     8    19    16    1
     9    27    26   ar
    10    27    33    1
    11    18    16   ar
    12    18    21   ar
    13    16    15   ar
    14    26    32    1
    15    21    24    1
    16    21    20   ar
    17    23    15    1
    18    15    17   ar
    19    20    17   ar
    20    20    22    1
    21    17    11    1
    22    11    10   ar
    23    11    12   ar
    24    14    10    1
    25    10     9   ar
    26    12     8   ar
    27     9     8   ar
    28     9    13    1
    29     8     3    1
    30     5     3   ar
    31     5     2   ar
    32     3     6   ar
    33     2     1   ar
    34     6     4   ar
    35     1     4   ar
    36     1     7    1
