@<TRIPOS>MOLECULE
mol_data/opt/cam/geoms/mol2/812-124-.out
 32 35 0 0 0
SMALL
GASTEIGER

@<TRIPOS>ATOM
      1 C          -0.1991   -0.0169    0.0008 C.ar    1  LIG1        0.1605
      2 N           1.1297   -0.0900    0.0008 N.ar    1  LIG1       -0.1338
      3 C           1.0845    2.1739    0.0002 C.ar    1  LIG1        0.2381
      4 N          -0.9170    1.1087    0.0004 N.ar    1  LIG1       -0.1338
      5 N           1.7997    1.0378    0.0006 N.ar    1  LIG1       -0.1226
      6 N          -0.2602    2.2381    0.0002 N.ar    1  LIG1       -0.1226
      7 H          -0.7473   -0.9519    0.0010 H       1  LIG1        0.1085
      8 C           1.7834    3.4387   -0.0001 C.ar    1  LIG1        0.1761
      9 C           1.3284    4.7265   -0.0005 C.ar    1  LIG1       -0.0119
     10 C           2.4757    5.5565   -0.0006 C.ar    1  LIG1       -0.0121
     11 C           3.5530    4.7112   -0.0004 C.ar    1  LIG1        0.1707
     12 O           3.1443    3.4232   -0.0001 O.2     1  LIG1       -0.4485
     13 H           0.2906    5.0222   -0.0006 H       1  LIG1        0.0657
     14 H           2.5149    6.6344   -0.0009 H       1  LIG1        0.0657
     15 C           4.9711    4.9344   -0.0004 C.ar    1  LIG1        0.1706
     16 C           6.0442    4.0942   -0.0002 C.ar    1  LIG1       -0.0122
     17 C           7.1948    4.9274   -0.0004 C.ar    1  LIG1       -0.0151
     18 C           6.7511    6.2195   -0.0007 C.ar    1  LIG1        0.1358
     19 O           5.3886    6.2278   -0.0007 O.2     1  LIG1       -0.4517
     20 H           6.0039    3.0158    0.0001 H       1  LIG1        0.0657
     21 H           8.2244    4.6041   -0.0003 H       1  LIG1        0.0656
     22 C           6.6883    8.7019   -0.0014 C.ar    1  LIG1       -0.0511
     23 C           7.3374    9.9285   -0.0017 C.ar    1  LIG1       -0.0611
     24 C           7.4239    7.5130   -0.0010 C.ar    1  LIG1        0.0173
     25 C           8.7261    9.9890   -0.0016 C.ar    1  LIG1       -0.0617
     26 H           6.7533   10.8431   -0.0020 H       1  LIG1        0.0618
     27 C           8.8212    7.5819   -0.0008 C.ar    1  LIG1       -0.0511
     28 C           9.4646    8.8098   -0.0011 C.ar    1  LIG1       -0.0611
     29 H           9.4071    6.6689   -0.0005 H       1  LIG1        0.0625
     30 H           9.2313   10.9491   -0.0018 H       1  LIG1        0.0618
     31 H           5.6057    8.6564   -0.0015 H       1  LIG1        0.0625
     32 H          10.5490    8.8468   -0.0010 H       1  LIG1        0.0618
@<TRIPOS>BOND
     1    26    23    1
     2    30    25    1
     3    23    25   ar
     4    23    22   ar
     5    25    28   ar
     6    31    22    1
     7    22    24   ar
     8    28    32    1
     9    28    27   ar
    10    24    27   ar
    11    24    18    1
    12    14    10    1
    13    27    29    1
    14    19    18   ar
    15    19    15   ar
    16    18    17   ar
    17    13     9    1
    18    10     9   ar
    19    10    11   ar
    20     9     8   ar
    21    15    11    1
    22    15    16   ar
    23    11    12   ar
    24    17    21    1
    25    17    16   ar
    26    16    20    1
    27     8    12   ar
    28     8     3    1
    29     6     3   ar
    30     6     4   ar
    31     3     5   ar
    32     4     1   ar
    33     5     2   ar
    34     1     2   ar
    35     1     7    1
