@<TRIPOS>MOLECULE
mol_data/opt/cam/geoms/mol2/812-.out
 15 16 0 0 0
SMALL
GASTEIGER

@<TRIPOS>ATOM
      1 C          -0.0356    0.0448   -0.0000 C.ar    1  LIG1        0.1605
      2 N           1.2947    0.0045    0.0000 N.ar    1  LIG1       -0.1338
      3 C           1.1931    2.2661    0.0000 C.ar    1  LIG1        0.2380
      4 N          -0.7810    1.1515   -0.0000 N.ar    1  LIG1       -0.1338
      5 N           1.9359    1.1494    0.0000 N.ar    1  LIG1       -0.1226
      6 N          -0.1512    2.2974   -0.0000 N.ar    1  LIG1       -0.1226
      7 H          -0.5601   -0.9037   -0.0000 H       1  LIG1        0.1085
      8 C           1.8623    3.5517    0.0000 C.ar    1  LIG1        0.1751
      9 C           1.3714    4.8241   -0.0000 C.ar    1  LIG1       -0.0126
     10 C           2.5048    5.6833    0.0000 C.ar    1  LIG1       -0.0232
     11 C           3.5915    4.8667    0.0001 C.ar    1  LIG1        0.0927
     12 O           3.2204    3.5706    0.0000 O.2     1  LIG1       -0.4597
     13 H           4.6542    5.0511    0.0001 H       1  LIG1        0.1029
     14 H           0.3267    5.0935   -0.0000 H       1  LIG1        0.0656
     15 H           2.5112    6.7625    0.0000 H       1  LIG1        0.0649
@<TRIPOS>BOND
     1    14     9    1
     2     7     1    1
     3     4     1   ar
     4     4     6   ar
     5     1     2   ar
     6     9    10   ar
     7     9     8   ar
     8     6     3   ar
     9    15    10    1
    10    10    11   ar
    11     2     5   ar
    12    12     8   ar
    13    12    11   ar
    14     8     3    1
    15     5     3   ar
    16    11    13    1
