@<TRIPOS>MOLECULE
mol_data/opt/cam/geoms/mol2/812-12-5.out
 29 32 0 0 0
SMALL
GASTEIGER

@<TRIPOS>ATOM
      1 C          -0.4959    0.1714   -0.0001 C.ar    1  LIG1        0.1605
      2 N           0.8261    0.0177   -0.0002 N.ar    1  LIG1       -0.1338
      3 C           0.9186    2.2799   -0.0000 C.ar    1  LIG1        0.2381
      4 N          -1.1441    1.3384    0.0000 N.ar    1  LIG1       -0.1338
      5 N           1.5635    1.1026   -0.0002 N.ar    1  LIG1       -0.1226
      6 N          -0.4196    2.4257    0.0001 N.ar    1  LIG1       -0.1226
      7 H          -1.0998   -0.7285   -0.0001 H       1  LIG1        0.1085
      8 C           1.6915    3.5012    0.0001 C.ar    1  LIG1        0.1761
      9 C           1.3100    4.8130    0.0003 C.ar    1  LIG1       -0.0119
     10 C           2.5025    5.5740    0.0002 C.ar    1  LIG1       -0.0121
     11 C           3.5321    4.6682    0.0001 C.ar    1  LIG1        0.1707
     12 O           3.0479    3.4077   -0.0000 O.2     1  LIG1       -0.4485
     13 H           0.2912    5.1683    0.0004 H       1  LIG1        0.0657
     14 H           2.5955    6.6492    0.0003 H       1  LIG1        0.0657
     15 C           4.9615    4.8295    0.0000 C.ar    1  LIG1        0.1706
     16 C           5.7670    5.9316    0.0001 C.ar    1  LIG1       -0.0121
     17 C           7.1024    5.4492   -0.0001 C.ar    1  LIG1       -0.0146
     18 C           7.0224    4.0850   -0.0001 C.ar    1  LIG1        0.1424
     19 O           5.7191    3.7017   -0.0001 O.2     1  LIG1       -0.4512
     20 H           5.4434    6.9616    0.0002 H       1  LIG1        0.0657
     21 H           8.0083    6.0364   -0.0001 H       1  LIG1        0.0656
     22 C           7.9992    3.0219   -0.0003 C.ar    1  LIG1        0.0544
     23 C           7.7610    1.6745   -0.0005 C.ar    1  LIG1       -0.0440
     24 C           8.9563    0.9036   -0.0006 C.ar    1  LIG1       -0.0540
     25 C          10.0790    1.6720   -0.0003 C.ar    1  LIG1       -0.0236
     26 S           9.7040    3.3559   -0.0002 S.2     1  LIG1       -0.0936
     27 H          11.1105    1.3512   -0.0003 H       1  LIG1        0.0693
     28 H           6.7611    1.2601   -0.0007 H       1  LIG1        0.0630
     29 H           8.9744   -0.1790   -0.0007 H       1  LIG1        0.0623
@<TRIPOS>BOND
     1    29    24    1
     2    28    23    1
     3    24    23   ar
     4    24    25   ar
     5    23    22   ar
     6    25    27    1
     7    25    26   ar
     8    22    26   ar
     9    22    18    1
    10     2     5   ar
    11     2     1   ar
    12     5     3   ar
    13    18    17   ar
    14    18    19   ar
    15    21    17    1
    16     7     1    1
    17     1     4   ar
    18    17    16   ar
    19    19    15   ar
    20     3     8    1
    21     3     6   ar
    22    12     8   ar
    23    12    11   ar
    24    15    16   ar
    25    15    11    1
    26     4     6   ar
    27     8     9   ar
    28    16    20    1
    29    11    10   ar
    30    10     9   ar
    31    10    14    1
    32     9    13    1
