@<TRIPOS>MOLECULE
mol_data/opt/cam/geoms/mol2/812.out
 15 16 0 0 0
SMALL
GASTEIGER

@<TRIPOS>ATOM
      1 C           0.0567   -0.0025   -0.0000 C.ar    1  LIG1        0.1605
      2 N           1.3891    0.0653    0.0001 N.ar    1  LIG1       -0.1338
      3 C           1.0976    2.3140    0.0000 C.ar    1  LIG1        0.2380
      4 N          -0.7728    1.0379   -0.0001 N.ar    1  LIG1       -0.1338
      5 N           1.9283    1.2567    0.0001 N.ar    1  LIG1       -0.1226
      6 N          -0.2414    2.2378   -0.0001 N.ar    1  LIG1       -0.1226
      7 H          -0.3876   -0.9912   -0.0000 H       1  LIG1        0.1085
      8 C           1.7250    3.6205   -0.0000 C.ar    1  LIG1        0.1751
      9 C           3.0372    3.9918   -0.0000 C.ar    1  LIG1       -0.0126
     10 C           3.0450    5.4137   -0.0000 C.ar    1  LIG1       -0.0232
     11 C           1.7399    5.7934   -0.0001 C.ar    1  LIG1        0.0927
     12 O           0.9257    4.7190   -0.0001 O.2     1  LIG1       -0.4597
     13 H           1.2499    6.7542   -0.0001 H       1  LIG1        0.1029
     14 H           3.8794    3.3174    0.0000 H       1  LIG1        0.0656
     15 H           3.9045    6.0663   -0.0000 H       1  LIG1        0.0649
@<TRIPOS>BOND
     1    12    11   ar
     2    12     8   ar
     3    13    11    1
     4     4     6   ar
     5     4     1   ar
     6    11    10   ar
     7     6     3   ar
     8    10    15    1
     9    10     9   ar
    10     1     7    1
    11     1     2   ar
    12     8     9   ar
    13     8     3    1
    14     9    14    1
    15     3     5   ar
    16     2     5   ar
