@<TRIPOS>MOLECULE
mol_data/opt/cam/geoms/mol2/81212.out
 22 24 0 0 0
SMALL
GASTEIGER

@<TRIPOS>ATOM
      1 C           0.1799   -0.1423   -0.0000 C.ar    1  LIG1        0.1605
      2 N           1.5081   -0.0105    0.0000 N.ar    1  LIG1       -0.1338
      3 C           1.1070    2.2213   -0.0001 C.ar    1  LIG1        0.2381
      4 N          -0.6995    0.8568   -0.0001 N.ar    1  LIG1       -0.1338
      5 N           1.9891    1.2046    0.0000 N.ar    1  LIG1       -0.1226
      6 N          -0.2278    2.0808   -0.0001 N.ar    1  LIG1       -0.1226
      7 H          -0.2159   -1.1513   -0.0000 H       1  LIG1        0.1085
      8 C           1.6712    3.5526   -0.0000 C.ar    1  LIG1        0.1761
      9 C           2.9669    3.9844    0.0000 C.ar    1  LIG1       -0.0119
     10 C           2.9139    5.3987   -0.0000 C.ar    1  LIG1       -0.0121
     11 C           1.5842    5.7296   -0.0001 C.ar    1  LIG1        0.1707
     12 O           0.8229    4.6149   -0.0001 O.2     1  LIG1       -0.4485
     13 H           3.8386    3.3486    0.0001 H       1  LIG1        0.0657
     14 H           3.7450    6.0871   -0.0000 H       1  LIG1        0.0657
     15 C           0.9050    7.0011   -0.0001 C.ar    1  LIG1        0.1697
     16 C           1.3616    8.2865   -0.0001 C.ar    1  LIG1       -0.0128
     17 C           0.2039    9.1182   -0.0001 C.ar    1  LIG1       -0.0232
     18 C          -0.8615    8.2786   -0.0002 C.ar    1  LIG1        0.0927
     19 O          -0.4526    6.9885   -0.0001 O.2     1  LIG1       -0.4598
     20 H          -1.9285    8.4327   -0.0003 H       1  LIG1        0.1029
     21 H           2.3947    8.5998   -0.0001 H       1  LIG1        0.0656
     22 H           0.1729   10.1971   -0.0001 H       1  LIG1        0.0649
@<TRIPOS>BOND
     1    20    18    1
     2    18    17   ar
     3    18    19   ar
     4    22    17    1
     5    17    16   ar
     6    16    15   ar
     7    16    21    1
     8    19    15   ar
     9    15    11    1
    10     6     4   ar
    11     6     3   ar
    12     4     1   ar
    13     3     8    1
    14     3     5   ar
    15    11    12   ar
    16    11    10   ar
    17    12     8   ar
    18     8     9   ar
    19    10    14    1
    20    10     9   ar
    21     7     1    1
    22     1     2   ar
    23     5     2   ar
    24     9    13    1
