@<TRIPOS>MOLECULE
mol_data/opt/cam/geoms/mol2/81212-13-.out
 30 33 0 0 0
SMALL
GASTEIGER

@<TRIPOS>ATOM
      1 C           0.1198   -0.1491    0.0002 C.ar    1  LIG1        0.1605
      2 N           1.4509   -0.0437    0.0001 N.ar    1  LIG1       -0.1338
      3 C           1.0952    2.1960    0.0000 C.ar    1  LIG1        0.2381
      4 N          -0.7390    0.8675    0.0001 N.ar    1  LIG1       -0.1338
      5 N           1.9567    1.1609    0.0001 N.ar    1  LIG1       -0.1226
      6 N          -0.2426    2.0821    0.0001 N.ar    1  LIG1       -0.1226
      7 H          -0.2960   -1.1499    0.0002 H       1  LIG1        0.1085
      8 C           1.6836    3.5151   -0.0000 C.ar    1  LIG1        0.1761
      9 C           2.9856    3.9272   -0.0001 C.ar    1  LIG1       -0.0119
     10 C           2.9579    5.3429   -0.0001 C.ar    1  LIG1       -0.0121
     11 C           1.6340    5.6957   -0.0001 C.ar    1  LIG1        0.1707
     12 O           0.8521    4.5935   -0.0000 O.2     1  LIG1       -0.4485
     13 H           3.8464    3.2766   -0.0001 H       1  LIG1        0.0657
     14 H           3.7966    6.0208   -0.0002 H       1  LIG1        0.0657
     15 C           0.9588    6.9608   -0.0001 C.ar    1  LIG1        0.1706
     16 C          -0.3564    7.3153   -0.0001 C.ar    1  LIG1       -0.0121
     17 C          -0.3903    8.7364   -0.0002 C.ar    1  LIG1       -0.0137
     18 C           0.9082    9.1579   -0.0002 C.ar    1  LIG1        0.1519
     19 O           1.7426    8.0791   -0.0002 O.2     1  LIG1       -0.4503
     20 H          -1.1927    6.6330   -0.0001 H       1  LIG1        0.0657
     21 H          -1.2643    9.3692   -0.0002 H       1  LIG1        0.0656
     22 C           1.5417   10.4516   -0.0003 C.ar    1  LIG1        0.0821
     23 C           1.0147   11.7276   -0.0003 C.ar    1  LIG1       -0.0334
     24 C           2.1013   12.6339   -0.0005 C.ar    1  LIG1       -0.0437
     25 C           3.2575   11.8910   -0.0005 C.ar    1  LIG1        0.0023
     26 N           2.9092   10.5711   -0.0005 N.ar    1  LIG1       -0.3583
     27 H           3.5399    9.7866   -0.0005 H       1  LIG1        0.1654
     28 H           4.2926   12.1958   -0.0007 H       1  LIG1        0.0807
     29 H          -0.0369   11.9740   -0.0001 H       1  LIG1        0.0640
     30 H           2.0424   13.7121   -0.0005 H       1  LIG1        0.0633
@<TRIPOS>BOND
     1    28    25    1
     2    25    26   ar
     3    25    24   ar
     4    30    24    1
     5    27    26    1
     6    26    22   ar
     7    24    23   ar
     8    22    23   ar
     9    22    18    1
    10    23    29    1
    11    18    19   ar
    12    18    17   ar
    13    19    15   ar
    14    14    10    1
    15    21    17    1
    16    17    16   ar
    17    15    16   ar
    18    15    11    1
    19    10    11   ar
    20    10     9   ar
    21    16    20    1
    22    11    12   ar
    23     9    13    1
    24     9     8   ar
    25    12     8   ar
    26     8     3    1
    27     3     5   ar
    28     3     6   ar
    29     5     2   ar
    30     6     4   ar
    31     2     1   ar
    32     4     1   ar
    33     1     7    1
