@<TRIPOS>MOLECULE
mol_data/opt/cam/geoms/mol2/8128-12.out
 28 31 0 0 0
SMALL
GASTEIGER

@<TRIPOS>ATOM
      1 C           0.3777   -0.2568   -0.0000 C.ar    1  LIG1        0.1605
      2 N           1.6964   -0.0529    0.0000 N.ar    1  LIG1       -0.1338
      3 C           1.1723    2.1511   -0.0001 C.ar    1  LIG1        0.2381
      4 N          -0.5560    0.6923   -0.0001 N.ar    1  LIG1       -0.1338
      5 N           2.1089    1.1882    0.0000 N.ar    1  LIG1       -0.1226
      6 N          -0.1510    1.9402   -0.0001 N.ar    1  LIG1       -0.1226
      7 H           0.0376   -1.2859   -0.0000 H       1  LIG1        0.1085
      8 C           1.6658    3.5163   -0.0000 C.ar    1  LIG1        0.1761
      9 C           2.9411    4.0088    0.0001 C.ar    1  LIG1       -0.0119
     10 C           2.8153    5.4183   -0.0000 C.ar    1  LIG1       -0.0119
     11 C           1.4723    5.6764   -0.0000 C.ar    1  LIG1        0.1761
     12 O           0.7653    4.5254   -0.0000 O.2     1  LIG1       -0.4483
     13 H           3.8426    3.4164    0.0001 H       1  LIG1        0.0657
     14 H           3.5974    6.1610   -0.0000 H       1  LIG1        0.0657
     15 C           0.7442    6.9332   -0.0001 C.ar    1  LIG1        0.2381
     16 N          -0.5934    6.9122   -0.0001 N.ar    1  LIG1       -0.1219
     17 C          -0.4711    9.1753   -0.0002 C.ar    1  LIG1        0.2381
     18 N           1.4938    8.0488   -0.0001 N.ar    1  LIG1       -0.1219
     19 N          -1.2179    8.0620   -0.0001 N.ar    1  LIG1       -0.1219
     20 N           0.8753    9.1927   -0.0001 N.ar    1  LIG1       -0.1219
     21 C          -1.1288   10.4649   -0.0001 C.ar    1  LIG1        0.1751
     22 C          -0.6276   11.7340   -0.0001 C.ar    1  LIG1       -0.0126
     23 C          -1.7539   12.6020   -0.0001 C.ar    1  LIG1       -0.0232
     24 C          -2.8474   11.7942   -0.0002 C.ar    1  LIG1        0.0927
     25 O          -2.4864   10.4951   -0.0001 O.2     1  LIG1       -0.4597
     26 H          -3.9085   11.9870   -0.0002 H       1  LIG1        0.1029
     27 H           0.4191   11.9956   -0.0001 H       1  LIG1        0.0656
     28 H          -1.7517   13.6812   -0.0001 H       1  LIG1        0.0649
@<TRIPOS>BOND
     1    26    24    1
     2    24    23   ar
     3    24    25   ar
     4    17    21    1
     5    17    20   ar
     6    17    19   ar
     7    28    23    1
     8    21    22   ar
     9    21    25   ar
    10    23    22   ar
    11    20    18   ar
    12    19    16   ar
    13    22    27    1
    14    18    15   ar
    15     6     4   ar
    16     6     3   ar
    17    16    15   ar
    18    15    11    1
    19     4     1   ar
    20     3     8    1
    21     3     5   ar
    22    11    12   ar
    23    11    10   ar
    24    12     8   ar
    25     8     9   ar
    26     7     1    1
    27    10    14    1
    28    10     9   ar
    29     1     2   ar
    30     5     2   ar
    31     9    13    1
