@<TRIPOS>MOLECULE
mol_data/opt/cam/geoms/mol2/8128-.out
 21 23 0 0 0
SMALL
GASTEIGER

@<TRIPOS>ATOM
      1 C           0.1728   -0.1370   -0.0000 C.ar    1  LIG1        0.1605
      2 N           1.5004   -0.0034    0.0000 N.ar    1  LIG1       -0.1338
      3 C           1.0933    2.2246   -0.0000 C.ar    1  LIG1        0.2381
      4 N          -0.7097    0.8602   -0.0000 N.ar    1  LIG1       -0.1338
      5 N           1.9778    1.2145    0.0000 N.ar    1  LIG1       -0.1226
      6 N          -0.2389    2.0848   -0.0000 N.ar    1  LIG1       -0.1226
      7 H          -0.2214   -1.1466   -0.0000 H       1  LIG1        0.1085
      8 C           1.6580    3.5632   -0.0000 C.ar    1  LIG1        0.1761
      9 C           2.9573    3.9884   -0.0000 C.ar    1  LIG1       -0.0119
     10 C           2.9043    5.4026    0.0000 C.ar    1  LIG1       -0.0119
     11 C           1.5768    5.7292   -0.0000 C.ar    1  LIG1        0.1761
     12 O           0.8109    4.6160   -0.0001 O.2     1  LIG1       -0.4483
     13 H           3.8270    3.3502    0.0000 H       1  LIG1        0.0657
     14 H           3.7238    6.1040    0.0000 H       1  LIG1        0.0657
     15 C           0.9136    7.0219   -0.0001 C.ar    1  LIG1        0.2381
     16 N          -0.4253    7.0617   -0.0001 N.ar    1  LIG1       -0.1226
     17 C          -0.1809    9.3080   -0.0001 C.ar    1  LIG1        0.1605
     18 N           1.7201    8.0953   -0.0001 N.ar    1  LIG1       -0.1226
     19 N          -0.9863    8.2477   -0.0001 N.ar    1  LIG1       -0.1338
     20 N           1.1530    9.2741   -0.0001 N.ar    1  LIG1       -0.1338
     21 H          -0.6495   10.2854   -0.0001 H       1  LIG1        0.1085
@<TRIPOS>BOND
     1    17    21    1
     2    17    19   ar
     3    17    20   ar
     4    19    16   ar
     5    20    18   ar
     6    16    15   ar
     7    18    15   ar
     8    12    11   ar
     9    12     8   ar
    10    15    11    1
    11     4     6   ar
    12     4     1   ar
    13     6     3   ar
    14    11    10   ar
    15     1     7    1
    16     1     2   ar
    17     8     9   ar
    18     8     3    1
    19     9    10   ar
    20     9    13    1
    21     3     5   ar
    22    10    14    1
    23     2     5   ar
