@<TRIPOS>MOLECULE
mol_data/opt/cam/geoms/mol2/813-513.out
 31 34 0 0 0
SMALL
GASTEIGER

@<TRIPOS>ATOM
      1 C          -0.0872   -0.0843    0.0011 C.ar    1  LIG1        0.1605
      2 N           1.2430   -0.0473    0.0005 N.ar    1  LIG1       -0.1338
      3 C           1.0059    2.2144    0.0002 C.ar    1  LIG1        0.2193
      4 N          -0.8953    0.9799    0.0013 N.ar    1  LIG1       -0.1338
      5 N           1.8090    1.1341    0.0000 N.ar    1  LIG1       -0.1243
      6 N          -0.3414    2.1628    0.0009 N.ar    1  LIG1       -0.1243
      7 H          -0.5568   -1.0608    0.0015 H       1  LIG1        0.1085
      8 C           1.6430    3.5035   -0.0003 C.ar    1  LIG1        0.0880
      9 C           1.1236    4.7858   -0.0002 C.ar    1  LIG1       -0.0326
     10 C           2.2111    5.6732   -0.0008 C.ar    1  LIG1       -0.0352
     11 C           3.3795    4.9173   -0.0013 C.ar    1  LIG1        0.0537
     12 N           3.0119    3.6054   -0.0010 N.ar    1  LIG1       -0.3512
     13 H           3.6171    2.7987   -0.0009 H       1  LIG1        0.1660
     14 H           0.0722    5.0290    0.0002 H       1  LIG1        0.0640
     15 H           2.1637    6.7523   -0.0010 H       1  LIG1        0.0639
     16 C           4.7669    5.3271   -0.0020 C.ar    1  LIG1        0.0361
     17 C           5.8973    4.5549   -0.0039 C.ar    1  LIG1       -0.0449
     18 C           7.0999    5.3047   -0.0042 C.ar    1  LIG1       -0.0449
     19 C           6.8976    6.6591   -0.0026 C.ar    1  LIG1        0.0361
     20 S           5.1925    7.0149   -0.0004 S.2     1  LIG1       -0.0853
     21 H           5.8805    3.4713   -0.0052 H       1  LIG1        0.0630
     22 H           8.0852    4.8568   -0.0058 H       1  LIG1        0.0630
     23 C           7.8938    7.7102   -0.0024 C.ar    1  LIG1        0.0531
     24 C           9.2732    7.6289   -0.0014 C.ar    1  LIG1       -0.0359
     25 C           9.7842    8.9478   -0.0017 C.ar    1  LIG1       -0.0438
     26 C           8.7104    9.8032   -0.0028 C.ar    1  LIG1        0.0022
     27 N           7.5716    9.0478   -0.0032 N.ar    1  LIG1       -0.3603
     28 H           6.6359    9.4198   -0.0045 H       1  LIG1        0.1653
     29 H           8.6641   10.8812   -0.0034 H       1  LIG1        0.0807
     30 H           9.8468    6.7139   -0.0005 H       1  LIG1        0.0639
     31 H          10.8244    9.2378   -0.0011 H       1  LIG1        0.0633
@<TRIPOS>BOND
     1    22    18    1
     2    21    17    1
     3    28    27    1
     4    18    17   ar
     5    18    19   ar
     6    17    16   ar
     7    29    26    1
     8    27    26   ar
     9    27    23   ar
    10    26    25   ar
    11    19    23    1
    12    19    20   ar
    13    23    24   ar
    14    16    11    1
    15    16    20   ar
    16    25    24   ar
    17    25    31    1
    18    24    30    1
    19    11    12   ar
    20    11    10   ar
    21    15    10    1
    22    12    13    1
    23    12     8   ar
    24    10     9   ar
    25     8     9   ar
    26     8     3    1
    27     9    14    1
    28     5     3   ar
    29     5     2   ar
    30     3     6   ar
    31     2     1   ar
    32     6     4   ar
    33     1     4   ar
    34     1     7    1
