@<TRIPOS>MOLECULE
mol_data/opt/cam/geoms/mol2/813-1313.out
 32 35 0 0 0
SMALL
GASTEIGER

@<TRIPOS>ATOM
      1 C           0.0205   -0.0791   -0.4075 C.ar    1  LIG1        0.1605
      2 N           1.3486   -0.0186   -0.3508 N.ar    1  LIG1       -0.1338
      3 C           1.0633    2.2271   -0.1351 C.ar    1  LIG1        0.2193
      4 N          -0.8097    0.9655   -0.3364 N.ar    1  LIG1       -0.1338
      5 N           1.8890    1.1665   -0.2109 N.ar    1  LIG1       -0.1243
      6 N          -0.2818    2.1518   -0.1969 N.ar    1  LIG1       -0.1243
      7 H          -0.4276   -1.0590   -0.5224 H       1  LIG1        0.1085
      8 C           1.6700    3.5211    0.0196 C.ar    1  LIG1        0.0880
      9 C           1.1193    4.7857    0.1212 C.ar    1  LIG1       -0.0326
     10 C           2.1838    5.6937    0.2514 C.ar    1  LIG1       -0.0343
     11 C           3.3691    4.9649    0.2253 C.ar    1  LIG1        0.0634
     12 N           3.0362    3.6536    0.0845 N.ar    1  LIG1       -0.3505
     13 H           3.6727    2.8769   -0.0132 H       1  LIG1        0.1660
     14 H           0.0623    5.0033    0.1111 H       1  LIG1        0.0640
     15 H           2.1055    6.7623    0.3894 H       1  LIG1        0.0639
     16 C           4.7442    5.3981    0.3222 C.ar    1  LIG1        0.0634
     17 C           5.8901    4.7221    0.6864 C.ar    1  LIG1       -0.0343
     18 C           6.9711    5.6315    0.6056 C.ar    1  LIG1       -0.0343
     19 C           6.4688    6.8455    0.1899 C.ar    1  LIG1        0.0633
     20 N           5.1089    6.6945    0.0387 N.ar    1  LIG1       -0.3519
     21 H           4.5191    7.3487   -0.4504 H       1  LIG1        0.1660
     22 H           5.9370    3.6972    1.0266 H       1  LIG1        0.0639
     23 H           8.0023    5.4406    0.8622 H       1  LIG1        0.0639
     24 C           7.1280    8.1122   -0.0673 C.ar    1  LIG1        0.0629
     25 C           8.3553    8.3967   -0.6225 C.ar    1  LIG1       -0.0350
     26 C           8.5061    9.8075   -0.6358 C.ar    1  LIG1       -0.0438
     27 C           7.3690   10.3476   -0.0929 C.ar    1  LIG1        0.0022
     28 N           6.5298    9.3159    0.2376 N.ar    1  LIG1       -0.3595
     29 H           5.6900    9.4081    0.7852 H       1  LIG1        0.1654
     30 H           7.0870   11.3744    0.0820 H       1  LIG1        0.0807
     31 H           9.0486    7.6629   -1.0061 H       1  LIG1        0.0639
     32 H           9.3502   10.3635   -1.0164 H       1  LIG1        0.0633
@<TRIPOS>BOND
     1    32    26    1
     2    31    25    1
     3    26    25   ar
     4    26    27   ar
     5    25    24   ar
     6     7     1    1
     7    21    20    1
     8     1     2   ar
     9     1     4   ar
    10     2     5   ar
    11     4     6   ar
    12     5     3   ar
    13     6     3   ar
    14     3     8    1
    15    27    30    1
    16    27    28   ar
    17    24    19    1
    18    24    28   ar
    19    13    12    1
    20     8    12   ar
    21     8     9   ar
    22    20    19   ar
    23    20    16   ar
    24    12    11   ar
    25    14     9    1
    26     9    10   ar
    27    19    18   ar
    28    11    10   ar
    29    11    16    1
    30    28    29    1
    31    10    15    1
    32    16    17   ar
    33    18    17   ar
    34    18    23    1
    35    17    22    1
