@<TRIPOS>MOLECULE
mol_data/opt/cam/geoms/mol2/813-5-.out
 23 25 0 0 0
SMALL
GASTEIGER

@<TRIPOS>ATOM
      1 C           0.0065   -0.0289    0.0006 C.ar    1  LIG1        0.1605
      2 N           1.3365    0.0216    0.0005 N.ar    1  LIG1       -0.1338
      3 C           1.0759    2.2801    0.0000 C.ar    1  LIG1        0.2193
      4 N          -0.8123    1.0266    0.0004 N.ar    1  LIG1       -0.1338
      5 N           1.8900    1.2085    0.0002 N.ar    1  LIG1       -0.1243
      6 N          -0.2703    2.2151    0.0001 N.ar    1  LIG1       -0.1243
      7 H          -0.4529   -1.0103    0.0008 H       1  LIG1        0.1085
      8 C           1.6999    3.5762   -0.0005 C.ar    1  LIG1        0.0880
      9 C           1.1664    4.8528   -0.0008 C.ar    1  LIG1       -0.0326
     10 C           2.2432    5.7525   -0.0009 C.ar    1  LIG1       -0.0352
     11 C           3.4198    5.0093   -0.0010 C.ar    1  LIG1        0.0536
     12 N           3.0672    3.6934   -0.0008 N.ar    1  LIG1       -0.3512
     13 H           3.6803    2.8909   -0.0006 H       1  LIG1        0.1660
     14 H           0.1122    5.0839   -0.0009 H       1  LIG1        0.0640
     15 H           2.1844    6.8305   -0.0010 H       1  LIG1        0.0639
     16 C           4.7982    5.4595   -0.0013 C.ar    1  LIG1        0.0355
     17 C           5.2552    6.7498   -0.0006 C.ar    1  LIG1       -0.0455
     18 C           6.6743    6.8422   -0.0011 C.ar    1  LIG1       -0.0541
     19 C           7.2825    5.6258   -0.0021 C.ar    1  LIG1       -0.0237
     20 S           6.1318    4.3416   -0.0028 S.2     1  LIG1       -0.0952
     21 H           8.3392    5.4021   -0.0027 H       1  LIG1        0.0693
     22 H           4.5955    7.6083    0.0004 H       1  LIG1        0.0629
     23 H           7.2168    7.7792   -0.0006 H       1  LIG1        0.0623
@<TRIPOS>BOND
     1    20    19   ar
     2    20    16   ar
     3    21    19    1
     4    19    18   ar
     5    16    11    1
     6    16    17   ar
     7    18    23    1
     8    18    17   ar
     9    15    10    1
    10    11    10   ar
    11    11    12   ar
    12    10     9   ar
    13    14     9    1
    14     9     8   ar
    15    12    13    1
    16    12     8   ar
    17    17    22    1
    18     8     3    1
    19     3     6   ar
    20     3     5   ar
    21     6     4   ar
    22     5     2   ar
    23     4     1   ar
    24     2     1   ar
    25     1     7    1
