@<TRIPOS>MOLECULE
mol_data/opt/cam/geoms/mol2/813-12.out
 23 25 0 0 0
SMALL
GASTEIGER

@<TRIPOS>ATOM
      1 C           0.0227   -0.0257    0.0005 C.ar    1  LIG1        0.1605
      2 N           1.3526    0.0237    0.0004 N.ar    1  LIG1       -0.1338
      3 C           1.0939    2.2829    0.0002 C.ar    1  LIG1        0.2193
      4 N          -0.7954    1.0307    0.0004 N.ar    1  LIG1       -0.1338
      5 N           1.9072    1.2105    0.0002 N.ar    1  LIG1       -0.1243
      6 N          -0.2526    2.2187    0.0002 N.ar    1  LIG1       -0.1243
      7 H          -0.4376   -1.0067    0.0007 H       1  LIG1        0.1085
      8 C           1.7188    3.5785   -0.0004 C.ar    1  LIG1        0.0880
      9 C           1.1871    4.8561   -0.0009 C.ar    1  LIG1       -0.0325
     10 C           2.2652    5.7565   -0.0004 C.ar    1  LIG1       -0.0327
     11 C           3.4351    5.0083   -0.0011 C.ar    1  LIG1        0.0826
     12 N           3.0870    3.6924   -0.0009 N.ar    1  LIG1       -0.3492
     13 H           3.7020    2.8929   -0.0009 H       1  LIG1        0.1661
     14 H           0.1331    5.0879   -0.0010 H       1  LIG1        0.0640
     15 H           2.2205    6.8346   -0.0002 H       1  LIG1        0.0640
     16 C           4.8105    5.4441   -0.0014 C.ar    1  LIG1        0.1509
     17 C           6.0085    4.7931   -0.0021 C.ar    1  LIG1       -0.0144
     18 C           7.0150    5.8059   -0.0022 C.ar    1  LIG1       -0.0233
     19 C           6.3570    6.9898   -0.0017 C.ar    1  LIG1        0.0926
     20 O           5.0157    6.7881   -0.0011 O.2     1  LIG1       -0.4615
     21 H           6.6783    8.0188   -0.0015 H       1  LIG1        0.1029
     22 H           6.1644    3.7243   -0.0024 H       1  LIG1        0.0656
     23 H           8.0851    5.6644   -0.0026 H       1  LIG1        0.0649
@<TRIPOS>BOND
     1    23    18    1
     2    22    17    1
     3    18    17   ar
     4    18    19   ar
     5    17    16   ar
     6    19    21    1
     7    19    20   ar
     8    16    20   ar
     9    16    11    1
    10    11    12   ar
    11    11    10   ar
    12    14     9    1
    13     9    10   ar
    14     9     8   ar
    15    13    12    1
    16    12     8   ar
    17    10    15    1
    18     8     3    1
    19     3     6   ar
    20     3     5   ar
    21     6     4   ar
    22     5     2   ar
    23     4     1   ar
    24     2     1   ar
    25     1     7    1
