@<TRIPOS>MOLECULE
mol_data/opt/cam/geoms/mol2/813-4-4-.out
 36 39 0 0 0
SMALL
GASTEIGER

@<TRIPOS>ATOM
      1 C          -0.1855   -0.0235    0.3170 C.ar    1  LIG1        0.1605
      2 N           1.1416    0.0083    0.4083 N.ar    1  LIG1       -0.1338
      3 C           0.9370    2.2472    0.0655 C.ar    1  LIG1        0.2193
      4 N          -0.9764    1.0322    0.1043 N.ar    1  LIG1       -0.1338
      5 N           1.7225    1.1755    0.2793 N.ar    1  LIG1       -0.1243
      6 N          -0.4073    2.2006   -0.0258 N.ar    1  LIG1       -0.1243
      7 H          -0.6677   -0.9880    0.4240 H       1  LIG1        0.1085
      8 C           1.5903    3.5213   -0.0732 C.ar    1  LIG1        0.0879
      9 C           1.0900    4.7920   -0.2940 C.ar    1  LIG1       -0.0326
     10 C           2.1886    5.6641   -0.3412 C.ar    1  LIG1       -0.0357
     11 C           3.3454    4.9144   -0.1485 C.ar    1  LIG1        0.0470
     12 N           2.9554    3.6185    0.0114 N.ar    1  LIG1       -0.3516
     13 H           3.5424    2.8144    0.1703 H       1  LIG1        0.1660
     14 H           0.0451    5.0378   -0.4051 H       1  LIG1        0.0640
     15 H           2.1478    6.7310   -0.4988 H       1  LIG1        0.0639
     16 C           5.0890    6.6768   -0.2841 C.ar    1  LIG1       -0.0521
     17 C           6.4093    7.0900   -0.2482 C.ar    1  LIG1       -0.0534
     18 C           4.7474    5.3315   -0.1072 C.ar    1  LIG1       -0.0017
     19 C           7.4492    6.1800   -0.0334 C.ar    1  LIG1       -0.0178
     20 H           6.6422    8.1367   -0.4130 H       1  LIG1        0.0624
     21 C           5.7868    4.4208    0.1071 C.ar    1  LIG1       -0.0521
     22 C           7.1080    4.8370    0.1434 C.ar    1  LIG1       -0.0534
     23 H           5.5764    3.3670    0.2597 H       1  LIG1        0.0624
     24 H           4.3105    7.4101   -0.4617 H       1  LIG1        0.0624
     25 H           7.8883    4.1084    0.3363 H       1  LIG1        0.0624
     26 C           9.2150    7.8373    0.6062 C.ar    1  LIG1       -0.0540
     27 C          10.5387    8.2547    0.6435 C.ar    1  LIG1       -0.0612
     28 C           8.8626    6.6246    0.0063 C.ar    1  LIG1       -0.0179
     29 C          11.5370    7.4667    0.0824 C.ar    1  LIG1       -0.0617
     30 H          10.7921    9.1960    1.1206 H       1  LIG1        0.0618
     31 C           9.8762    5.8421   -0.5547 C.ar    1  LIG1       -0.0540
     32 C          11.2003    6.2583   -0.5166 C.ar    1  LIG1       -0.0612
     33 H           9.6197    4.9095   -1.0468 H       1  LIG1        0.0624
     34 H          12.5715    7.7925    0.1117 H       1  LIG1        0.0618
     35 H           8.4459    8.4470    1.0691 H       1  LIG1        0.0624
     36 H          11.9712    5.6396   -0.9645 H       1  LIG1        0.0618
@<TRIPOS>BOND
     1    33    31    1
     2    36    32    1
     3    31    32   ar
     4    31    28   ar
     5    32    29   ar
     6    15    10    1
     7    24    16    1
     8    20    17    1
     9    14     9    1
    10    10     9   ar
    11    10    11   ar
    12     9     8   ar
    13    16    17   ar
    14    16    18   ar
    15    17    19   ar
    16    11    18    1
    17    11    12   ar
    18    18    21   ar
    19     8    12   ar
    20     8     3    1
    21    19    28    1
    22    19    22   ar
    23     6     3   ar
    24     6     4   ar
    25    28    26   ar
    26    12    13    1
    27     3     5   ar
    28    29    34    1
    29    29    27   ar
    30     4     1   ar
    31    21    22   ar
    32    21    23    1
    33    22    25    1
    34     5     2   ar
    35     1     2   ar
    36     1     7    1
    37    26    27   ar
    38    26    35    1
    39    27    30    1
