@<TRIPOS>MOLECULE
mol_data/opt/cam/geoms/mol2/813-.out
 16 17 0 0 0
SMALL
GASTEIGER

@<TRIPOS>ATOM
      1 C           0.0282   -0.0018    0.0002 C.ar    1  LIG1        0.1605
      2 N           1.3585    0.0364   -0.0000 N.ar    1  LIG1       -0.1338
      3 C           1.1192    2.2977   -0.0002 C.ar    1  LIG1        0.2193
      4 N          -0.7805    1.0609    0.0002 N.ar    1  LIG1       -0.1338
      5 N           1.9228    1.2187   -0.0003 N.ar    1  LIG1       -0.1243
      6 N          -0.2270    2.2448    0.0001 N.ar    1  LIG1       -0.1243
      7 H          -0.4402   -0.9790    0.0003 H       1  LIG1        0.1085
      8 C           1.7562    3.5899   -0.0003 C.ar    1  LIG1        0.0875
      9 C           1.2349    4.8701   -0.0000 C.ar    1  LIG1       -0.0333
     10 C           2.3259    5.7626   -0.0009 C.ar    1  LIG1       -0.0437
     11 C           3.4790    5.0035   -0.0003 C.ar    1  LIG1        0.0023
     12 N           3.1253    3.6937   -0.0004 N.ar    1  LIG1       -0.3582
     13 H           3.7353    2.8905   -0.0004 H       1  LIG1        0.1654
     14 H           4.5158    5.3037   -0.0003 H       1  LIG1        0.0807
     15 H           0.1827    5.1106    0.0002 H       1  LIG1        0.0640
     16 H           2.2805    6.8414   -0.0013 H       1  LIG1        0.0633
@<TRIPOS>BOND
     1    16    10    1
     2    10    11   ar
     3    10     9   ar
     4    13    12    1
     5    12    11   ar
     6    12     8   ar
     7    14    11    1
     8     8     3    1
     9     8     9   ar
    10     5     3   ar
    11     5     2   ar
    12     3     6   ar
    13     2     1   ar
    14     9    15    1
    15     6     4   ar
    16     1     4   ar
    17     1     7    1
