@<TRIPOS>MOLECULE
mol_data/opt/cam/geoms/mol2/813-8.out
 22 24 0 0 0
SMALL
GASTEIGER

@<TRIPOS>ATOM
      1 C           0.0295   -0.0156    0.0004 C.ar    1  LIG1        0.1605
      2 N           1.3603    0.0280   -0.0001 N.ar    1  LIG1       -0.1338
      3 C           1.1086    2.2840   -0.0002 C.ar    1  LIG1        0.2193
      4 N          -0.7847    1.0422    0.0006 N.ar    1  LIG1       -0.1338
      5 N           1.9185    1.2132   -0.0004 N.ar    1  LIG1       -0.1243
      6 N          -0.2342    2.2287    0.0003 N.ar    1  LIG1       -0.1243
      7 H          -0.4339   -0.9952    0.0006 H       1  LIG1        0.1085
      8 C           1.7382    3.5865   -0.0004 C.ar    1  LIG1        0.0880
      9 C           1.1888    4.8611   -0.0001 C.ar    1  LIG1       -0.0325
     10 C           2.2561    5.7711   -0.0008 C.ar    1  LIG1       -0.0325
     11 C           3.4278    5.0271   -0.0009 C.ar    1  LIG1        0.0880
     12 N           3.0950    3.7063   -0.0008 N.ar    1  LIG1       -0.3491
     13 H           3.7509    2.9371   -0.0009 H       1  LIG1        0.1661
     14 H           0.1322    5.0798    0.0003 H       1  LIG1        0.0640
     15 H           2.2072    6.8490   -0.0009 H       1  LIG1        0.0640
     16 C           4.8134    5.4429   -0.0013 C.ar    1  LIG1        0.2193
     17 N           5.7428    4.4740   -0.0015 N.ar    1  LIG1       -0.1243
     18 C           7.2547    6.1451   -0.0021 C.ar    1  LIG1        0.1605
     19 N           5.0802    6.7601   -0.0016 N.ar    1  LIG1       -0.1243
     20 N           7.0013    4.8378   -0.0019 N.ar    1  LIG1       -0.1338
     21 N           6.3388    7.1162   -0.0020 N.ar    1  LIG1       -0.1338
     22 H           8.2952    6.4479   -0.0025 H       1  LIG1        0.1085
@<TRIPOS>BOND
     1    22    18    1
     2    18    21   ar
     3    18    20   ar
     4    21    19   ar
     5    20    17   ar
     6    19    16   ar
     7    17    16   ar
     8    16    11    1
     9    11    12   ar
    10    11    10   ar
    11    15    10    1
    12    13    12    1
    13    12     8   ar
    14    10     9   ar
    15     8     3    1
    16     8     9   ar
    17     5     3   ar
    18     5     2   ar
    19     3     6   ar
    20     9    14    1
    21     2     1   ar
    22     6     4   ar
    23     1     4   ar
    24     1     7    1
