@<TRIPOS>MOLECULE
mol_data/opt/cam/geoms/mol2/813-85.out
 29 32 0 0 0
SMALL
GASTEIGER

@<TRIPOS>ATOM
      1 C           0.0080   -0.0330    0.0004 C.ar    1  LIG1        0.1605
      2 N           1.3386    0.0136   -0.0005 N.ar    1  LIG1       -0.1338
      3 C           1.0826    2.2698   -0.0002 C.ar    1  LIG1        0.2193
      4 N          -0.8085    1.0234    0.0010 N.ar    1  LIG1       -0.1338
      5 N           1.8947    1.1999   -0.0008 N.ar    1  LIG1       -0.1243
      6 N          -0.2609    2.2109    0.0007 N.ar    1  LIG1       -0.1243
      7 H          -0.4535   -1.0135    0.0006 H       1  LIG1        0.1085
      8 C           1.7081    3.5727   -0.0003 C.ar    1  LIG1        0.0880
      9 C           1.1563    4.8458    0.0005 C.ar    1  LIG1       -0.0325
     10 C           2.2215    5.7588   -0.0007 C.ar    1  LIG1       -0.0325
     11 C           3.3952    5.0182   -0.0010 C.ar    1  LIG1        0.0880
     12 N           3.0659    3.6971   -0.0009 N.ar    1  LIG1       -0.3491
     13 H           3.7239    2.9299   -0.0012 H       1  LIG1        0.1661
     14 H           0.0992    5.0623    0.0013 H       1  LIG1        0.0640
     15 H           2.1694    6.8365   -0.0009 H       1  LIG1        0.0640
     16 C           4.7801    5.4381   -0.0016 C.ar    1  LIG1        0.2194
     17 N           5.7153    4.4747   -0.0019 N.ar    1  LIG1       -0.1237
     18 C           7.2401    6.1493   -0.0028 C.ar    1  LIG1        0.2099
     19 N           5.0485    6.7534   -0.0018 N.ar    1  LIG1       -0.1237
     20 N           6.9690    4.8338   -0.0026 N.ar    1  LIG1       -0.1246
     21 N           6.3008    7.1117   -0.0025 N.ar    1  LIG1       -0.1246
     22 C           8.6318    6.5595   -0.0035 C.ar    1  LIG1        0.0598
     23 C           9.7350    5.7476   -0.0041 C.ar    1  LIG1       -0.0438
     24 C          10.9495    6.4795   -0.0046 C.ar    1  LIG1       -0.0540
     25 C          10.7419    7.8282   -0.0044 C.ar    1  LIG1       -0.0236
     26 S           9.0728    8.2366   -0.0040 S.2     1  LIG1       -0.0934
     27 H          11.4868    8.6114   -0.0047 H       1  LIG1        0.0693
     28 H           9.6590    4.6682   -0.0040 H       1  LIG1        0.0630
     29 H          11.9313    6.0237   -0.0050 H       1  LIG1        0.0623
@<TRIPOS>BOND
     1    29    24    1
     2    27    25    1
     3    24    25   ar
     4    24    23   ar
     5    25    26   ar
     6    23    28    1
     7    23    22   ar
     8    26    22   ar
     9    22    18    1
    10    18    20   ar
    11    18    21   ar
    12    20    17   ar
    13    21    19   ar
    14    17    16   ar
    15    19    16   ar
    16    16    11    1
    17    13    12    1
    18    11    12   ar
    19    11    10   ar
    20    12     8   ar
    21    15    10    1
    22     5     2   ar
    23     5     3   ar
    24    10     9   ar
    25     2     1   ar
    26     8     3    1
    27     8     9   ar
    28     3     6   ar
    29     1     7    1
    30     1     4   ar
    31     9    14    1
    32     6     4   ar
