@<TRIPOS>MOLECULE
mol_data/opt/cam/geoms/mol2/813-8-5-.out
 29 32 0 0 0
SMALL
GASTEIGER

@<TRIPOS>ATOM
      1 C           0.0442   -0.0474    0.0003 C.ar    1  LIG1        0.1605
      2 N           1.3744    0.0132   -0.0003 N.ar    1  LIG1       -0.1338
      3 C           1.0945    2.2664   -0.0003 C.ar    1  LIG1        0.2193
      4 N          -0.7833    1.0003    0.0007 N.ar    1  LIG1       -0.1338
      5 N           1.9178    1.2052   -0.0006 N.ar    1  LIG1       -0.1243
      6 N          -0.2482    2.1936    0.0004 N.ar    1  LIG1       -0.1243
      7 H          -0.4068   -1.0327    0.0005 H       1  LIG1        0.1085
      8 C           1.7067    3.5758   -0.0004 C.ar    1  LIG1        0.0880
      9 C           1.1422    4.8432    0.0002 C.ar    1  LIG1       -0.0325
     10 C           2.1983    5.7669   -0.0009 C.ar    1  LIG1       -0.0325
     11 C           3.3793    5.0380   -0.0009 C.ar    1  LIG1        0.0880
     12 N           3.0632    3.7138   -0.0008 N.ar    1  LIG1       -0.3491
     13 H           3.7288    2.9531   -0.0010 H       1  LIG1        0.1661
     14 H           0.0830    5.0492    0.0008 H       1  LIG1        0.0640
     15 H           2.1353    6.8440   -0.0011 H       1  LIG1        0.0640
     16 C           4.7601    5.4711   -0.0013 C.ar    1  LIG1        0.2194
     17 N           5.0144    6.7914   -0.0017 N.ar    1  LIG1       -0.1237
     18 C           7.2107    6.2138   -0.0023 C.ar    1  LIG1        0.2099
     19 N           5.7044    4.5195   -0.0015 N.ar    1  LIG1       -0.1237
     20 N           6.2603    7.1682   -0.0021 N.ar    1  LIG1       -0.1246
     21 N           6.9535    4.8977   -0.0020 N.ar    1  LIG1       -0.1246
     22 C           8.5982    6.6382   -0.0028 C.ar    1  LIG1        0.0598
     23 C           9.0709    7.9237   -0.0031 C.ar    1  LIG1       -0.0438
     24 C          10.4877    7.9828   -0.0037 C.ar    1  LIG1       -0.0540
     25 C          11.0583    6.7433   -0.0039 C.ar    1  LIG1       -0.0236
     26 S           9.8909    5.4822   -0.0029 S.2     1  LIG1       -0.0934
     27 H          12.1115    6.5005   -0.0043 H       1  LIG1        0.0693
     28 H           8.4120    8.7821   -0.0030 H       1  LIG1        0.0630
     29 H          11.0554    8.9045   -0.0041 H       1  LIG1        0.0623
@<TRIPOS>BOND
     1    27    25    1
     2    29    24    1
     3    25    24   ar
     4    25    26   ar
     5    24    23   ar
     6    23    28    1
     7    23    22   ar
     8    26    22   ar
     9    22    18    1
    10    18    20   ar
    11    18    21   ar
    12    20    17   ar
    13    21    19   ar
    14    17    16   ar
    15    19    16   ar
    16    16    11    1
    17    15    10    1
    18    13    12    1
    19    11    10   ar
    20    11    12   ar
    21    10     9   ar
    22    12     8   ar
    23     5     2   ar
    24     5     3   ar
    25     8     3    1
    26     8     9   ar
    27     2     1   ar
    28     3     6   ar
    29     9    14    1
    30     1     7    1
    31     1     4   ar
    32     6     4   ar
