@<TRIPOS>MOLECULE
mol_data/opt/cam/geoms/mol2/813-12-.out
 23 25 0 0 0
SMALL
GASTEIGER

@<TRIPOS>ATOM
      1 C           0.0100   -0.0165    0.0004 C.ar    1  LIG1        0.1605
      2 N           1.3403    0.0265    0.0001 N.ar    1  LIG1       -0.1338
      3 C           1.0930    2.2862    0.0000 C.ar    1  LIG1        0.2193
      4 N          -0.8027    1.0434    0.0005 N.ar    1  LIG1       -0.1338
      5 N           1.9012    1.2101   -0.0001 N.ar    1  LIG1       -0.1243
      6 N          -0.2535    2.2288    0.0003 N.ar    1  LIG1       -0.1243
      7 H          -0.4549   -0.9953    0.0006 H       1  LIG1        0.1085
      8 C           1.7224    3.5801   -0.0003 C.ar    1  LIG1        0.0880
      9 C           1.1892    4.8582   -0.0005 C.ar    1  LIG1       -0.0325
     10 C           2.2657    5.7598   -0.0006 C.ar    1  LIG1       -0.0327
     11 C           3.4363    5.0106   -0.0010 C.ar    1  LIG1        0.0826
     12 N           3.0889    3.6963   -0.0008 N.ar    1  LIG1       -0.3492
     13 H           3.7249    2.9125   -0.0009 H       1  LIG1        0.1661
     14 H           0.1349    5.0889   -0.0004 H       1  LIG1        0.0640
     15 H           2.2100    6.8381   -0.0005 H       1  LIG1        0.0640
     16 C           4.8208    5.4172   -0.0014 C.ar    1  LIG1        0.1509
     17 C           5.4525    6.6234   -0.0014 C.ar    1  LIG1       -0.0144
     18 C           6.8528    6.3424   -0.0020 C.ar    1  LIG1       -0.0233
     19 C           6.9698    4.9932   -0.0020 C.ar    1  LIG1        0.0926
     20 O           5.7418    4.4121   -0.0017 O.2     1  LIG1       -0.4615
     21 H           7.8104    4.3183   -0.0022 H       1  LIG1        0.1029
     22 H           4.9782    7.5930   -0.0012 H       1  LIG1        0.0656
     23 H           7.6624    7.0563   -0.0023 H       1  LIG1        0.0649
@<TRIPOS>BOND
     1    23    18    1
     2    21    19    1
     3    18    19   ar
     4    18    17   ar
     5    19    20   ar
     6    20    16   ar
     7    17    16   ar
     8    17    22    1
     9    16    11    1
    10    11    12   ar
    11    11    10   ar
    12    13    12    1
    13    12     8   ar
    14    10     9   ar
    15    10    15    1
    16     9    14    1
    17     9     8   ar
    18     8     3    1
    19     5     3   ar
    20     5     2   ar
    21     3     6   ar
    22     2     1   ar
    23     6     4   ar
    24     1     4   ar
    25     1     7    1
