@<TRIPOS>MOLECULE
mol_data/opt/cam/geoms/mol2/813-13.out
 24 26 0 0 0
SMALL
GASTEIGER

@<TRIPOS>ATOM
      1 C           0.0007   -0.0304    0.0007 C.ar    1  LIG1        0.1605
      2 N           1.3306    0.0165    0.0007 N.ar    1  LIG1       -0.1338
      3 C           1.0774    2.2767   -0.0001 C.ar    1  LIG1        0.2193
      4 N          -0.8151    1.0278    0.0004 N.ar    1  LIG1       -0.1338
      5 N           1.8884    1.2017    0.0003 N.ar    1  LIG1       -0.1243
      6 N          -0.2700    2.2146   -0.0000 N.ar    1  LIG1       -0.1243
      7 H          -0.4617   -1.0104    0.0011 H       1  LIG1        0.1085
      8 C           1.7035    3.5699   -0.0005 C.ar    1  LIG1        0.0880
      9 C           1.1728    4.8468   -0.0010 C.ar    1  LIG1       -0.0326
     10 C           2.2525    5.7453   -0.0012 C.ar    1  LIG1       -0.0343
     11 C           3.4281    4.9997   -0.0010 C.ar    1  LIG1        0.0634
     12 N           3.0728    3.6871   -0.0006 N.ar    1  LIG1       -0.3505
     13 H           3.6912    2.8904   -0.0002 H       1  LIG1        0.1660
     14 H           0.1191    5.0803   -0.0010 H       1  LIG1        0.0640
     15 H           2.1834    6.8236   -0.0017 H       1  LIG1        0.0639
     16 C           4.8128    5.4164   -0.0012 C.ar    1  LIG1        0.0629
     17 C           5.9840    4.6849   -0.0020 C.ar    1  LIG1       -0.0350
     18 C           7.0639    5.6004   -0.0017 C.ar    1  LIG1       -0.0438
     19 C           6.5281    6.8640   -0.0008 C.ar    1  LIG1        0.0022
     20 N           5.1670    6.7435   -0.0004 N.ar    1  LIG1       -0.3595
     21 H           4.5162    7.5108    0.0004 H       1  LIG1        0.1654
     22 H           7.0026    7.8330   -0.0003 H       1  LIG1        0.0807
     23 H           6.0599    3.6067   -0.0029 H       1  LIG1        0.0639
     24 H           8.1161    5.3581   -0.0022 H       1  LIG1        0.0633
@<TRIPOS>BOND
     1    23    17    1
     2    24    18    1
     3    17    18   ar
     4    17    16   ar
     5    18    19   ar
     6    15    10    1
     7    10    11   ar
     8    10     9   ar
     9    16    11    1
    10    16    20   ar
    11    14     9    1
    12    11    12   ar
    13     9     8   ar
    14    19    20   ar
    15    19    22    1
    16    12     8   ar
    17    12    13    1
    18     8     3    1
    19    20    21    1
    20     3     6   ar
    21     3     5   ar
    22     6     4   ar
    23     5     2   ar
    24     4     1   ar
    25     2     1   ar
    26     1     7    1
