@<TRIPOS>MOLECULE
mol_data/opt/cam/geoms/mol2/813-5.out
 23 25 0 0 0
SMALL
GASTEIGER

@<TRIPOS>ATOM
      1 C          -0.0324   -0.0278    0.0008 C.ar    1  LIG1        0.1605
      2 N           1.2980    0.0066    0.0004 N.ar    1  LIG1       -0.1338
      3 C           1.0649    2.2685   -0.0002 C.ar    1  LIG1        0.2193
      4 N          -0.8384    1.0377    0.0009 N.ar    1  LIG1       -0.1338
      5 N           1.8659    1.1871   -0.0001 N.ar    1  LIG1       -0.1243
      6 N          -0.2821    2.2195    0.0004 N.ar    1  LIG1       -0.1243
      7 H          -0.5038   -1.0035    0.0012 H       1  LIG1        0.1085
      8 C           1.7045    3.5572   -0.0005 C.ar    1  LIG1        0.0880
      9 C           1.1869    4.8400   -0.0003 C.ar    1  LIG1       -0.0326
     10 C           2.2764    5.7255   -0.0012 C.ar    1  LIG1       -0.0352
     11 C           3.4423    4.9676   -0.0012 C.ar    1  LIG1        0.0536
     12 N           3.0729    3.6564   -0.0008 N.ar    1  LIG1       -0.3512
     13 H           3.6769    2.8489   -0.0005 H       1  LIG1        0.1660
     14 H           0.1360    5.0851    0.0001 H       1  LIG1        0.0640
     15 H           2.2315    6.8047   -0.0017 H       1  LIG1        0.0639
     16 C           4.8336    5.3758   -0.0017 C.ar    1  LIG1        0.0355
     17 C           5.9566    4.5919   -0.0033 C.ar    1  LIG1       -0.0455
     18 C           7.1647    5.3429   -0.0031 C.ar    1  LIG1       -0.0541
     19 C           6.9467    6.6853   -0.0013 C.ar    1  LIG1       -0.0237
     20 S           5.2641    7.0590   -0.0006 S.2     1  LIG1       -0.0952
     21 H           7.6764    7.4818   -0.0007 H       1  LIG1        0.0693
     22 H           5.9330    3.5085   -0.0045 H       1  LIG1        0.0629
     23 H           8.1511    4.8966   -0.0040 H       1  LIG1        0.0623
@<TRIPOS>BOND
     1    22    17    1
     2    23    18    1
     3    17    18   ar
     4    17    16   ar
     5    18    19   ar
     6    15    10    1
     7    16    11    1
     8    16    20   ar
     9    19    21    1
    10    19    20   ar
    11    10    11   ar
    12    10     9   ar
    13    11    12   ar
    14    12    13    1
    15    12     8   ar
    16     8     9   ar
    17     8     3    1
    18     9    14    1
    19     3     5   ar
    20     3     6   ar
    21     5     2   ar
    22     2     1   ar
    23     6     4   ar
    24     1     4   ar
    25     1     7    1
