@<TRIPOS>MOLECULE
mol_data/opt/cam/geoms/mol2/813.out
 16 17 0 0 0
SMALL
GASTEIGER

@<TRIPOS>ATOM
      1 C          -0.0183    0.0215   -0.0002 C.ar    1  LIG1        0.1605
      2 N           1.3170    0.0119   -0.0002 N.ar    1  LIG1       -0.1338
      3 C           1.1671    2.2737    0.0002 C.ar    1  LIG1        0.2193
      4 N          -0.7858    1.1088   -0.0001 N.ar    1  LIG1       -0.1338
      5 N           1.9322    1.1649    0.0000 N.ar    1  LIG1       -0.1243
      6 N          -0.1782    2.2695    0.0001 N.ar    1  LIG1       -0.1243
      7 H          -0.5192   -0.9394   -0.0004 H       1  LIG1        0.1085
      8 C           1.8189    3.5586    0.0003 C.ar    1  LIG1        0.0875
      9 C           3.1559    3.9094    0.0001 C.ar    1  LIG1       -0.0333
     10 C           3.2156    5.3177    0.0009 C.ar    1  LIG1       -0.0437
     11 C           1.9165    5.7849    0.0002 C.ar    1  LIG1        0.0023
     12 N           1.0807    4.7163    0.0003 N.ar    1  LIG1       -0.3582
     13 H           0.0721    4.7225    0.0002 H       1  LIG1        0.1654
     14 H           1.5347    6.7946    0.0002 H       1  LIG1        0.0807
     15 H           3.9795    3.2118    0.0000 H       1  LIG1        0.0640
     16 H           4.1059    5.9285    0.0014 H       1  LIG1        0.0633
@<TRIPOS>BOND
     1     7     1    1
     2     1     2   ar
     3     1     4   ar
     4     2     5   ar
     5     4     6   ar
     6    15     9    1
     7     5     3   ar
     8     6     3   ar
     9     9     8   ar
    10     9    10   ar
    11    14    11    1
    12     3     8    1
    13    13    12    1
    14    11    12   ar
    15    11    10   ar
    16     8    12   ar
    17    10    16    1
