@<TRIPOS>MOLECULE
mol_data/opt/cam/geoms/mol2/8131312.out
 31 34 0 0 0
SMALL
GASTEIGER

@<TRIPOS>ATOM
      1 C           0.0525   -0.0893   -0.0014 C.ar    1  LIG1        0.1605
      2 N           1.3891   -0.0922   -0.0007 N.ar    1  LIG1       -0.1338
      3 C           1.2287    2.1691   -0.0002 C.ar    1  LIG1        0.2193
      4 N          -0.7196    0.9944   -0.0017 N.ar    1  LIG1       -0.1338
      5 N           1.9995    1.0616    0.0000 N.ar    1  LIG1       -0.1243
      6 N          -0.1184    2.1578   -0.0010 N.ar    1  LIG1       -0.1243
      7 H          -0.4434   -1.0527   -0.0020 H       1  LIG1        0.1085
      8 C           1.8690    3.4535    0.0006 C.ar    1  LIG1        0.0880
      9 C           3.2019    3.8246    0.0016 C.ar    1  LIG1       -0.0326
     10 C           3.2442    5.2266    0.0019 C.ar    1  LIG1       -0.0343
     11 C           1.9331    5.6954    0.0013 C.ar    1  LIG1        0.0634
     12 N           1.1158    4.6047    0.0006 N.ar    1  LIG1       -0.3505
     13 H           0.1079    4.5738   -0.0004 H       1  LIG1        0.1660
     14 H           4.0354    3.1389    0.0020 H       1  LIG1        0.0640
     15 H           4.1270    5.8480    0.0026 H       1  LIG1        0.0639
     16 C           1.4503    7.0571    0.0013 C.ar    1  LIG1        0.0634
     17 C           2.1617    8.2434    0.0004 C.ar    1  LIG1       -0.0343
     18 C           1.2359    9.3063    0.0009 C.ar    1  LIG1       -0.0328
     19 C          -0.0292    8.7523    0.0022 C.ar    1  LIG1        0.0826
     20 N           0.1170    7.3896    0.0024 N.ar    1  LIG1       -0.3506
     21 H          -0.6706    6.7623    0.0035 H       1  LIG1        0.1660
     22 H           3.2383    8.3256   -0.0006 H       1  LIG1        0.0639
     23 H           1.4611   10.3623    0.0004 H       1  LIG1        0.0640
     24 C          -1.3427    9.3485    0.0032 C.ar    1  LIG1        0.1509
     25 C          -1.8085   10.6277    0.0031 C.ar    1  LIG1       -0.0144
     26 C          -3.2348   10.5359    0.0047 C.ar    1  LIG1       -0.0233
     27 C          -3.5332    9.2160    0.0052 C.ar    1  LIG1        0.0926
     28 O          -2.3913    8.4748    0.0046 O.2     1  LIG1       -0.4615
     29 H          -4.4564    8.6595    0.0063 H       1  LIG1        0.1029
     30 H          -1.2093   11.5254    0.0021 H       1  LIG1        0.0656
     31 H          -3.9412   11.3523    0.0052 H       1  LIG1        0.0649
@<TRIPOS>BOND
     1     7     1    1
     2     4     1   ar
     3     4     6   ar
     4     1     2   ar
     5     6     3   ar
     6     2     5   ar
     7    22    17    1
     8    13    12    1
     9     3     5   ar
    10     3     8    1
    11    23    18    1
    12    17    18   ar
    13    17    16   ar
    14    12     8   ar
    15    12    11   ar
    16     8     9   ar
    17    18    19   ar
    18    11    16    1
    19    11    10   ar
    20    16    20   ar
    21     9    10   ar
    22     9    14    1
    23    10    15    1
    24    30    25    1
    25    19    20   ar
    26    19    24    1
    27    20    21    1
    28    25    24   ar
    29    25    26   ar
    30    24    28   ar
    31    28    27   ar
    32    26    31    1
    33    26    27   ar
    34    27    29    1
