@<TRIPOS>MOLECULE
mol_data/opt/cam/geoms/mol2/81312-13-.out
 31 34 0 0 0
SMALL
GASTEIGER

@<TRIPOS>ATOM
      1 C          -0.0868   -0.0404   -0.0006 C.ar    1  LIG1        0.1605
      2 N           1.2490   -0.0753   -0.0004 N.ar    1  LIG1       -0.1338
      3 C           1.1416    2.1889    0.0001 C.ar    1  LIG1        0.2193
      4 N          -0.8332    1.0613   -0.0004 N.ar    1  LIG1       -0.1338
      5 N           1.8861    1.0648   -0.0001 N.ar    1  LIG1       -0.1243
      6 N          -0.2044    2.2105   -0.0001 N.ar    1  LIG1       -0.1243
      7 H          -0.6055   -0.9917   -0.0008 H       1  LIG1        0.1085
      8 C           1.8162    3.4587    0.0004 C.ar    1  LIG1        0.0880
      9 C           3.1604    3.7863    0.0006 C.ar    1  LIG1       -0.0325
     10 C           3.2483    5.1877    0.0010 C.ar    1  LIG1       -0.0327
     11 C           1.9521    5.6902    0.0010 C.ar    1  LIG1        0.0826
     12 N           1.0984    4.6297    0.0006 N.ar    1  LIG1       -0.3492
     13 H           0.0900    4.6518    0.0005 H       1  LIG1        0.1661
     14 H           3.9711    3.0739    0.0006 H       1  LIG1        0.0640
     15 H           4.1458    5.7864    0.0012 H       1  LIG1        0.0640
     16 C           1.4875    7.0527    0.0012 C.ar    1  LIG1        0.1518
     17 C           0.2544    7.6341    0.0015 C.ar    1  LIG1       -0.0137
     18 C           0.4643    9.0417    0.0017 C.ar    1  LIG1       -0.0137
     19 C           1.8144    9.2317    0.0016 C.ar    1  LIG1        0.1518
     20 O           2.4476    8.0233    0.0013 O.2     1  LIG1       -0.4519
     21 H          -0.6981    7.1246    0.0015 H       1  LIG1        0.0656
     22 H          -0.2886    9.8147    0.0019 H       1  LIG1        0.0656
     23 C           2.6648   10.3953    0.0017 C.ar    1  LIG1        0.0821
     24 C           2.3703   11.7438    0.0020 C.ar    1  LIG1       -0.0334
     25 C           3.5997   12.4451    0.0019 C.ar    1  LIG1       -0.0437
     26 C           4.6072   11.5106    0.0016 C.ar    1  LIG1        0.0023
     27 N           4.0317   10.2725    0.0015 N.ar    1  LIG1       -0.3583
     28 H           4.5141    9.3889    0.0012 H       1  LIG1        0.1654
     29 H           5.6797   11.6284    0.0015 H       1  LIG1        0.0807
     30 H           1.3785   12.1714    0.0023 H       1  LIG1        0.0640
     31 H           3.7313   13.5169    0.0021 H       1  LIG1        0.0633
@<TRIPOS>BOND
     1     7     1    1
     2     1     2   ar
     3     1     4   ar
     4     2     5   ar
     5     4     6   ar
     6     5     3   ar
     7     6     3   ar
     8     3     8    1
     9     8     9   ar
    10     8    12   ar
    11    13    12    1
    12    14     9    1
    13     9    10   ar
    14    12    11   ar
    15    11    10   ar
    16    11    16    1
    17    10    15    1
    18    28    27    1
    19    16    20   ar
    20    16    17   ar
    21    20    19   ar
    22    27    26   ar
    23    27    23   ar
    24    29    26    1
    25    17    21    1
    26    17    18   ar
    27    19    23    1
    28    19    18   ar
    29    26    25   ar
    30    23    24   ar
    31    18    22    1
    32    25    24   ar
    33    25    31    1
    34    24    30    1
