@<TRIPOS>MOLECULE
mol_data/opt/cam/geoms/mol2/81313-5.out
 31 34 0 0 0
SMALL
GASTEIGER

@<TRIPOS>ATOM
      1 C          -0.0695   -0.0735   -0.0014 C.ar    1  LIG1        0.1605
      2 N           1.2665   -0.1016   -0.0005 N.ar    1  LIG1       -0.1338
      3 C           1.1474    2.1624   -0.0000 C.ar    1  LIG1        0.2193
      4 N          -0.8215    1.0244   -0.0017 N.ar    1  LIG1       -0.1338
      5 N           1.8976    1.0418    0.0002 N.ar    1  LIG1       -0.1243
      6 N          -0.1988    2.1770   -0.0010 N.ar    1  LIG1       -0.1243
      7 H          -0.5834   -1.0274   -0.0019 H       1  LIG1        0.1085
      8 C           1.8167    3.4344    0.0008 C.ar    1  LIG1        0.0880
      9 C           3.1596    3.7645    0.0018 C.ar    1  LIG1       -0.0326
     10 C           3.2424    5.1665    0.0021 C.ar    1  LIG1       -0.0343
     11 C           1.9446    5.6706    0.0014 C.ar    1  LIG1        0.0634
     12 N           1.0983    4.6052    0.0006 N.ar    1  LIG1       -0.3505
     13 H           0.0899    4.6289   -0.0003 H       1  LIG1        0.1660
     14 H           3.9726    3.0549    0.0022 H       1  LIG1        0.0640
     15 H           4.1516    5.7503    0.0030 H       1  LIG1        0.0639
     16 C           1.4605    7.0310    0.0014 C.ar    1  LIG1        0.0633
     17 C           0.1758    7.5411    0.0019 C.ar    1  LIG1       -0.0344
     18 C           0.2731    8.9477    0.0017 C.ar    1  LIG1       -0.0353
     19 C           1.6149    9.2792    0.0010 C.ar    1  LIG1        0.0536
     20 N           2.3188    8.1015    0.0008 N.ar    1  LIG1       -0.3526
     21 H           3.3222    8.0297    0.0003 H       1  LIG1        0.1660
     22 H          -0.7383    6.9651    0.0025 H       1  LIG1        0.0639
     23 H          -0.5479    9.6497    0.0020 H       1  LIG1        0.0639
     24 C           2.2782   10.5677    0.0004 C.ar    1  LIG1        0.0355
     25 C           3.6195   10.8458   -0.0012 C.ar    1  LIG1       -0.0455
     26 C           3.9056   12.2402   -0.0014 C.ar    1  LIG1       -0.0541
     27 C           2.7829   13.0060    0.0001 C.ar    1  LIG1       -0.0237
     28 S           1.3534   12.0395    0.0021 S.2     1  LIG1       -0.0952
     29 H           2.7065   14.0834    0.0003 H       1  LIG1        0.0693
     30 H           4.3922   10.0857   -0.0025 H       1  LIG1        0.0629
     31 H           4.9085   12.6485   -0.0027 H       1  LIG1        0.0623
@<TRIPOS>BOND
     1    31    26    1
     2    30    25    1
     3     7     1    1
     4     4     1   ar
     5     4     6   ar
     6     1     2   ar
     7    26    25   ar
     8    26    27   ar
     9    25    24   ar
    10     6     3   ar
    11     2     5   ar
    12    13    12    1
    13     3     5   ar
    14     3     8    1
    15    27    29    1
    16    27    28   ar
    17    21    20    1
    18    24    19    1
    19    24    28   ar
    20    12     8   ar
    21    12    11   ar
    22     8     9   ar
    23    20    19   ar
    24    20    16   ar
    25    19    18   ar
    26    11    16    1
    27    11    10   ar
    28    16    17   ar
    29    18    17   ar
    30    18    23    1
    31     9    10   ar
    32     9    14    1
    33    17    22    1
    34    10    15    1
