@<TRIPOS>MOLECULE
mol_data/opt/cam/geoms/mol2/8131313-.out
 32 35 0 0 0
SMALL
GASTEIGER

@<TRIPOS>ATOM
      1 C           0.0704   -0.1112   -0.0007 C.ar    1  LIG1        0.1605
      2 N           1.4071   -0.1121   -0.0007 N.ar    1  LIG1       -0.1338
      3 C           1.2438    2.1494   -0.0000 C.ar    1  LIG1        0.2193
      4 N          -0.7032    0.9714   -0.0004 N.ar    1  LIG1       -0.1338
      5 N           2.0162    1.0425   -0.0004 N.ar    1  LIG1       -0.1243
      6 N          -0.1037    2.1359   -0.0000 N.ar    1  LIG1       -0.1243
      7 H          -0.4240   -1.0753   -0.0009 H       1  LIG1        0.1085
      8 C           1.8818    3.4343    0.0003 C.ar    1  LIG1        0.0880
      9 C           3.2136    3.8090    0.0004 C.ar    1  LIG1       -0.0326
     10 C           3.2526    5.2109    0.0008 C.ar    1  LIG1       -0.0343
     11 C           1.9404    5.6775    0.0010 C.ar    1  LIG1        0.0634
     12 N           1.1259    4.5845    0.0007 N.ar    1  LIG1       -0.3505
     13 H           0.1184    4.5487    0.0006 H       1  LIG1        0.1660
     14 H           4.0490    3.1257    0.0002 H       1  LIG1        0.0640
     15 H           4.1341    5.8339    0.0010 H       1  LIG1        0.0639
     16 C           1.4563    7.0382    0.0014 C.ar    1  LIG1        0.0634
     17 C           2.1642    8.2231    0.0014 C.ar    1  LIG1       -0.0343
     18 C           1.2337    9.2839    0.0019 C.ar    1  LIG1       -0.0343
     19 C          -0.0344    8.7341    0.0023 C.ar    1  LIG1        0.0633
     20 N           0.1196    7.3718    0.0020 N.ar    1  LIG1       -0.3519
     21 H          -0.6532    6.7280    0.0022 H       1  LIG1        0.1660
     22 H           3.2405    8.3087    0.0010 H       1  LIG1        0.0639
     23 H           1.4716   10.3380    0.0021 H       1  LIG1        0.0639
     24 C          -1.3457    9.3461    0.0029 C.ar    1  LIG1        0.0629
     25 C          -2.6113    8.7939    0.0033 C.ar    1  LIG1       -0.0350
     26 C          -3.5474    9.8582    0.0039 C.ar    1  LIG1       -0.0438
     27 C          -2.8339   11.0292    0.0038 C.ar    1  LIG1        0.0022
     28 N          -1.5034   10.7097    0.0032 N.ar    1  LIG1       -0.3595
     29 H          -0.7468   11.3727    0.0030 H       1  LIG1        0.1654
     30 H          -3.1610   12.0573    0.0040 H       1  LIG1        0.0807
     31 H          -2.8480    7.7390    0.0033 H       1  LIG1        0.0639
     32 H          -4.6237    9.7712    0.0043 H       1  LIG1        0.0633
@<TRIPOS>BOND
     1     7     1    1
     2     2     1   ar
     3     2     5   ar
     4     1     4   ar
     5     5     3   ar
     6     4     6   ar
     7     3     6   ar
     8     3     8    1
     9    14     9    1
    10     8     9   ar
    11     8    12   ar
    12     9    10   ar
    13    13    12    1
    14    12    11   ar
    15    10    11   ar
    16    10    15    1
    17    22    17    1
    18    11    16    1
    19    17    16   ar
    20    17    18   ar
    21    16    20   ar
    22    18    23    1
    23    18    19   ar
    24    20    21    1
    25    20    19   ar
    26    19    24    1
    27    24    28   ar
    28    24    25   ar
    29    29    28    1
    30    28    27   ar
    31    31    25    1
    32    25    26   ar
    33    27    26   ar
    34    27    30    1
    35    26    32    1
