@<TRIPOS>MOLECULE
mol_data/opt/cam/geoms/mol2/81312-.out
 23 25 0 0 0
SMALL
GASTEIGER

@<TRIPOS>ATOM
      1 C          -0.0342    0.0027   -0.0005 C.ar    1  LIG1        0.1605
      2 N           1.3018   -0.0181   -0.0003 N.ar    1  LIG1       -0.1338
      3 C           1.1704    2.2447   -0.0002 C.ar    1  LIG1        0.2193
      4 N          -0.7923    1.0964   -0.0006 N.ar    1  LIG1       -0.1338
      5 N           1.9267    1.1288   -0.0001 N.ar    1  LIG1       -0.1243
      6 N          -0.1755    2.2521   -0.0004 N.ar    1  LIG1       -0.1243
      7 H          -0.5429   -0.9540   -0.0007 H       1  LIG1        0.1085
      8 C           1.8322    3.5219    0.0003 C.ar    1  LIG1        0.0880
      9 C           3.1733    3.8628    0.0010 C.ar    1  LIG1       -0.0325
     10 C           3.2471    5.2654    0.0005 C.ar    1  LIG1       -0.0327
     11 C           1.9467    5.7527    0.0009 C.ar    1  LIG1        0.0826
     12 N           1.1026    4.6849    0.0007 N.ar    1  LIG1       -0.3492
     13 H           0.0940    4.6973    0.0006 H       1  LIG1        0.1661
     14 H           3.9911    3.1585    0.0012 H       1  LIG1        0.0640
     15 H           4.1365    5.8763    0.0003 H       1  LIG1        0.0640
     16 C           1.4704    7.1146    0.0012 C.ar    1  LIG1        0.1509
     17 C           0.2309    7.6827    0.0017 C.ar    1  LIG1       -0.0144
     18 C           0.4375    9.0955    0.0017 C.ar    1  LIG1       -0.0233
     19 C           1.7794    9.2792    0.0013 C.ar    1  LIG1        0.0926
     20 O           2.4226    8.0850    0.0008 O.2     1  LIG1       -0.4615
     21 H           2.4100   10.1535    0.0011 H       1  LIG1        0.1029
     22 H          -0.7178    7.1663    0.0021 H       1  LIG1        0.0656
     23 H          -0.3176    9.8668    0.0020 H       1  LIG1        0.0649
@<TRIPOS>BOND
     1     7     1    1
     2     4     1   ar
     3     4     6   ar
     4     1     2   ar
     5     6     3   ar
     6     2     5   ar
     7     3     5   ar
     8     3     8    1
     9    15    10    1
    10     8    12   ar
    11     8     9   ar
    12    10    11   ar
    13    10     9   ar
    14    13    12    1
    15    12    11   ar
    16    20    16   ar
    17    20    19   ar
    18    11    16    1
    19     9    14    1
    20    21    19    1
    21    16    17   ar
    22    19    18   ar
    23    18    17   ar
    24    18    23    1
    25    17    22    1
