@<TRIPOS>MOLECULE
mol_data/opt/cam/geoms/mol2/813138.out
 30 33 0 0 0
SMALL
GASTEIGER

@<TRIPOS>ATOM
      1 C           0.0439   -0.0830   -0.0012 C.ar    1  LIG1        0.1605
      2 N           1.3800   -0.0833   -0.0006 N.ar    1  LIG1       -0.1338
      3 C           1.2138    2.1760   -0.0001 C.ar    1  LIG1        0.2193
      4 N          -0.7311    0.9990   -0.0013 N.ar    1  LIG1       -0.1338
      5 N           1.9874    1.0732    0.0000 N.ar    1  LIG1       -0.1243
      6 N          -0.1314    2.1633   -0.0008 N.ar    1  LIG1       -0.1243
      7 H          -0.4501   -1.0474   -0.0017 H       1  LIG1        0.1085
      8 C           1.8532    3.4654    0.0006 C.ar    1  LIG1        0.0880
      9 C           3.1861    3.8345    0.0014 C.ar    1  LIG1       -0.0326
     10 C           3.2277    5.2372    0.0016 C.ar    1  LIG1       -0.0343
     11 C           1.9175    5.7033    0.0012 C.ar    1  LIG1        0.0634
     12 N           1.0988    4.6123    0.0006 N.ar    1  LIG1       -0.3505
     13 H           0.0905    4.5808   -0.0002 H       1  LIG1        0.1660
     14 H           4.0194    3.1487    0.0016 H       1  LIG1        0.0640
     15 H           4.1104    5.8587    0.0022 H       1  LIG1        0.0639
     16 C           1.4362    7.0666    0.0013 C.ar    1  LIG1        0.0634
     17 C           2.1632    8.2520    0.0005 C.ar    1  LIG1       -0.0343
     18 C           1.2501    9.3176    0.0009 C.ar    1  LIG1       -0.0326
     19 C          -0.0190    8.7680    0.0022 C.ar    1  LIG1        0.0880
     20 N           0.1139    7.4017    0.0023 N.ar    1  LIG1       -0.3505
     21 H          -0.6906    6.7930    0.0034 H       1  LIG1        0.1660
     22 H           3.2405    8.3225   -0.0005 H       1  LIG1        0.0639
     23 H           1.4680   10.3746    0.0005 H       1  LIG1        0.0640
     24 C          -1.3263    9.3701    0.0033 C.ar    1  LIG1        0.2193
     25 N          -1.4166   10.7141    0.0030 N.ar    1  LIG1       -0.1243
     26 C          -3.6552   10.3937    0.0050 C.ar    1  LIG1        0.1605
     27 N          -2.3812    8.5354    0.0044 N.ar    1  LIG1       -0.1243
     28 N          -2.6155   11.2329    0.0040 N.ar    1  LIG1       -0.1338
     29 N          -3.5791    9.0650    0.0053 N.ar    1  LIG1       -0.1338
     30 H          -4.6452   10.8341    0.0059 H       1  LIG1        0.1085
@<TRIPOS>BOND
     1     7     1    1
     2     4     1   ar
     3     4     6   ar
     4     1     2   ar
     5     6     3   ar
     6     2     5   ar
     7    22    17    1
     8    13    12    1
     9     3     5   ar
    10     3     8    1
    11    17    18   ar
    12    17    16   ar
    13    23    18    1
    14     8    12   ar
    15     8     9   ar
    16    12    11   ar
    17    18    19   ar
    18    11    16    1
    19    11    10   ar
    20    16    20   ar
    21     9    10   ar
    22     9    14    1
    23    10    15    1
    24    19    20   ar
    25    19    24    1
    26    20    21    1
    27    25    24   ar
    28    25    28   ar
    29    24    27   ar
    30    28    26   ar
    31    27    29   ar
    32    26    29   ar
    33    26    30    1
