@<TRIPOS>MOLECULE
mol_data/opt/cam/geoms/mol2/81313.out
 24 26 0 0 0
SMALL
GASTEIGER

@<TRIPOS>ATOM
      1 C          -0.0011   -0.0217   -0.2214 C.ar    1  LIG1        0.1605
      2 N           1.3168   -0.0392   -0.0008 N.ar    1  LIG1       -0.1338
      3 C           1.1821    2.2240   -0.0200 C.ar    1  LIG1        0.2193
      4 N          -0.7511    1.0702   -0.3462 N.ar    1  LIG1       -0.1338
      5 N           1.9306    1.1086    0.1033 N.ar    1  LIG1       -0.1243
      6 N          -0.1459    2.2276   -0.2432 N.ar    1  LIG1       -0.1243
      7 H          -0.5003   -0.9797   -0.3061 H       1  LIG1        0.1085
      8 C           1.8303    3.5019    0.0880 C.ar    1  LIG1        0.0880
      9 C           3.1521    3.8504    0.2980 C.ar    1  LIG1       -0.0326
     10 C           3.2188    5.2544    0.3006 C.ar    1  LIG1       -0.0343
     11 C           1.9358    5.7409    0.0875 C.ar    1  LIG1        0.0634
     12 N           1.1056    4.6649   -0.0310 N.ar    1  LIG1       -0.3505
     13 H           0.1328    4.6723   -0.2984 H       1  LIG1        0.1660
     14 H           3.9603    3.1504    0.4460 H       1  LIG1        0.0640
     15 H           4.0928    5.8654    0.4693 H       1  LIG1        0.0639
     16 C           1.4530    7.1042   -0.0000 C.ar    1  LIG1        0.0629
     17 C           2.0667    8.2454   -0.4679 C.ar    1  LIG1       -0.0350
     18 C           1.1467    9.3151   -0.3328 C.ar    1  LIG1       -0.0438
     19 C          -0.0024    8.8018    0.2128 C.ar    1  LIG1        0.0022
     20 N           0.1831    7.4585    0.4003 N.ar    1  LIG1       -0.3595
     21 H          -0.4448    6.8577    0.9087 H       1  LIG1        0.1654
     22 H          -0.9323    9.2789    0.4813 H       1  LIG1        0.0807
     23 H           3.0588    8.2887   -0.8925 H       1  LIG1        0.0639
     24 H           1.3065   10.3446   -0.6167 H       1  LIG1        0.0633
@<TRIPOS>BOND
     1    23    17    1
     2    24    18    1
     3    17    18   ar
     4    17    16   ar
     5     4     6   ar
     6     4     1   ar
     7    18    19   ar
     8     7     1    1
     9    13    12    1
    10     6     3   ar
    11     1     2   ar
    12    12    11   ar
    13    12     8   ar
    14     3     8    1
    15     3     5   ar
    16     2     5   ar
    17    16    11    1
    18    16    20   ar
    19    11    10   ar
    20     8     9   ar
    21    19    20   ar
    22    19    22    1
    23     9    10   ar
    24     9    14    1
    25    10    15    1
    26    20    21    1
