@<TRIPOS>MOLECULE
mol_data/opt/cam/geoms/mol2/81313-.out
 24 26 0 0 0
SMALL
GASTEIGER

@<TRIPOS>ATOM
      1 C          -0.0248   -0.0177   -0.0008 C.ar    1  LIG1        0.1605
      2 N           1.3113   -0.0356   -0.0003 N.ar    1  LIG1       -0.1338
      3 C           1.1754    2.2277    0.0001 C.ar    1  LIG1        0.2193
      4 N          -0.7850    1.0745   -0.0010 N.ar    1  LIG1       -0.1338
      5 N           1.9339    1.1124    0.0002 N.ar    1  LIG1       -0.1243
      6 N          -0.1712    2.2318   -0.0005 N.ar    1  LIG1       -0.1243
      7 H          -0.5315   -0.9755   -0.0012 H       1  LIG1        0.1085
      8 C           1.8346    3.5044    0.0006 C.ar    1  LIG1        0.0880
      9 C           3.1745    3.8457    0.0012 C.ar    1  LIG1       -0.0326
     10 C           3.2457    5.2486    0.0014 C.ar    1  LIG1       -0.0343
     11 C           1.9440    5.7419    0.0010 C.ar    1  LIG1        0.0634
     12 N           1.1070    4.6703    0.0005 N.ar    1  LIG1       -0.3505
     13 H           0.0985    4.6872   -0.0001 H       1  LIG1        0.1660
     14 H           3.9934    3.1427    0.0015 H       1  LIG1        0.0640
     15 H           4.1499    5.8401    0.0020 H       1  LIG1        0.0639
     16 C           1.4468    7.0999    0.0010 C.ar    1  LIG1        0.0629
     17 C           0.1590    7.5981    0.0020 C.ar    1  LIG1       -0.0350
     18 C           0.2437    9.0113    0.0014 C.ar    1  LIG1       -0.0438
     19 C           1.5761    9.3406    0.0001 C.ar    1  LIG1        0.0022
     20 N           2.2962    8.1793   -0.0002 N.ar    1  LIG1       -0.3595
     21 H           3.3005    8.1188   -0.0013 H       1  LIG1        0.1654
     22 H           2.0668   10.3015   -0.0007 H       1  LIG1        0.0807
     23 H          -0.7492    7.0121    0.0033 H       1  LIG1        0.0639
     24 H          -0.5813    9.7079    0.0020 H       1  LIG1        0.0633
@<TRIPOS>BOND
     1    21    20    1
     2     7     1    1
     3     4     1   ar
     4     4     6   ar
     5     1     2   ar
     6    22    19    1
     7     6     3   ar
     8     2     5   ar
     9    20    19   ar
    10    20    16   ar
    11    13    12    1
    12     3     5   ar
    13     3     8    1
    14    19    18   ar
    15    12     8   ar
    16    12    11   ar
    17     8     9   ar
    18    11    16    1
    19    11    10   ar
    20    16    17   ar
    21     9    10   ar
    22     9    14    1
    23    10    15    1
    24    18    24    1
    25    18    17   ar
    26    17    23    1
