@<TRIPOS>MOLECULE
mol_data/opt/cam/geoms/mol2/81312.out
 23 25 0 0 0
SMALL
GASTEIGER

@<TRIPOS>ATOM
      1 C          -0.0195   -0.0018   -0.0004 C.ar    1  LIG1        0.1605
      2 N           1.3162   -0.0164   -0.0003 N.ar    1  LIG1       -0.1338
      3 C           1.1736    2.2461   -0.0002 C.ar    1  LIG1        0.2193
      4 N          -0.7829    1.0884   -0.0004 N.ar    1  LIG1       -0.1338
      5 N           1.9353    1.1341   -0.0001 N.ar    1  LIG1       -0.1243
      6 N          -0.1723    2.2473   -0.0003 N.ar    1  LIG1       -0.1243
      7 H          -0.5237   -0.9609   -0.0006 H       1  LIG1        0.1085
      8 C           1.8314    3.5257    0.0003 C.ar    1  LIG1        0.0880
      9 C           3.1738    3.8655    0.0009 C.ar    1  LIG1       -0.0325
     10 C           3.2497    5.2678    0.0004 C.ar    1  LIG1       -0.0327
     11 C           1.9483    5.7552    0.0009 C.ar    1  LIG1        0.0826
     12 N           1.1049    4.6888    0.0007 N.ar    1  LIG1       -0.3492
     13 H           0.0963    4.7279    0.0007 H       1  LIG1        0.1661
     14 H           3.9908    3.1604    0.0011 H       1  LIG1        0.0640
     15 H           4.1460    5.8697    0.0002 H       1  LIG1        0.0640
     16 C           1.4429    7.1067    0.0011 C.ar    1  LIG1        0.1509
     17 C           2.0288    8.3357    0.0010 C.ar    1  LIG1       -0.0144
     18 C           0.9637    9.2873    0.0016 C.ar    1  LIG1       -0.0233
     19 C          -0.1858    8.5715    0.0016 C.ar    1  LIG1        0.0926
     20 O           0.0863    7.2404    0.0015 O.2     1  LIG1       -0.4615
     21 H          -1.2300    8.8392    0.0019 H       1  LIG1        0.1029
     22 H           3.0890    8.5382    0.0008 H       1  LIG1        0.0656
     23 H           1.0491   10.3634    0.0017 H       1  LIG1        0.0649
@<TRIPOS>BOND
     1     7     1    1
     2     4     1   ar
     3     4     6   ar
     4     1     2   ar
     5     6     3   ar
     6     2     5   ar
     7     3     5   ar
     8     3     8    1
     9    15    10    1
    10     8    12   ar
    11     8     9   ar
    12    10    11   ar
    13    10     9   ar
    14    12    13    1
    15    12    11   ar
    16    22    17    1
    17    11    16    1
    18     9    14    1
    19    17    16   ar
    20    17    18   ar
    21    16    20   ar
    22    20    19   ar
    23    18    19   ar
    24    18    23    1
    25    19    21    1
