@<TRIPOS>MOLECULE
mol_data/opt/cam/geoms/mol2/8134-.out
 26 28 0 0 0
SMALL
GASTEIGER

@<TRIPOS>ATOM
      1 C          -0.0243   -0.0393   -0.0008 C.ar    1  LIG1        0.1605
      2 N           1.3114   -0.0594    0.0001 N.ar    1  LIG1       -0.1338
      3 C           1.1791    2.2035   -0.0000 C.ar    1  LIG1        0.2193
      4 N          -0.7831    1.0540   -0.0014 N.ar    1  LIG1       -0.1338
      5 N           1.9358    1.0881    0.0006 N.ar    1  LIG1       -0.1243
      6 N          -0.1669    2.2097   -0.0010 N.ar    1  LIG1       -0.1243
      7 H          -0.5326   -0.9963   -0.0012 H       1  LIG1        0.1085
      8 C           1.8396    3.4815    0.0005 C.ar    1  LIG1        0.0879
      9 C           3.1797    3.8246    0.0016 C.ar    1  LIG1       -0.0326
     10 C           3.2452    5.2265    0.0014 C.ar    1  LIG1       -0.0357
     11 C           1.9442    5.7210    0.0007 C.ar    1  LIG1        0.0470
     12 N           1.1109    4.6430    0.0001 N.ar    1  LIG1       -0.3516
     13 H           0.1027    4.6441   -0.0007 H       1  LIG1        0.1660
     14 H           4.0004    3.1238    0.0022 H       1  LIG1        0.0640
     15 H           4.1457    5.8214    0.0021 H       1  LIG1        0.0639
     16 C           0.0890    7.4011    0.0008 C.ar    1  LIG1       -0.0526
     17 C          -0.3535    8.7166    0.0005 C.ar    1  LIG1       -0.0611
     18 C           1.4556    7.1023    0.0003 C.ar    1  LIG1       -0.0017
     19 C           0.5597    9.7636   -0.0003 C.ar    1  LIG1       -0.0617
     20 H          -1.4189    8.9221    0.0009 H       1  LIG1        0.0618
     21 C           2.3642    8.1669   -0.0005 C.ar    1  LIG1       -0.0526
     22 C           1.9213    9.4805   -0.0008 C.ar    1  LIG1       -0.0611
     23 H           3.4291    7.9637   -0.0009 H       1  LIG1        0.0624
     24 H           0.2138   10.7918   -0.0006 H       1  LIG1        0.0618
     25 H          -0.6503    6.6065    0.0016 H       1  LIG1        0.0624
     26 H           2.6452   10.2889   -0.0014 H       1  LIG1        0.0618
@<TRIPOS>BOND
     1    26    22    1
     2     4     6   ar
     3     4     1   ar
     4     7     1    1
     5     6     3   ar
     6    23    21    1
     7     1     2   ar
     8    22    21   ar
     9    22    19   ar
    10    13    12    1
    11    24    19    1
    12    21    18   ar
    13    19    17   ar
    14     3     8    1
    15     3     5   ar
    16     2     5   ar
    17    12     8   ar
    18    12    11   ar
    19    18    11    1
    20    18    16   ar
    21    17    16   ar
    22    17    20    1
    23     8     9   ar
    24    11    10   ar
    25    16    25    1
    26    10     9   ar
    27    10    15    1
    28     9    14    1
