@<TRIPOS>MOLECULE
mol_data/opt/cam/geoms/mol2/8134.out
 26 28 0 0 0
SMALL
GASTEIGER

@<TRIPOS>ATOM
      1 C           0.0060   -0.0560   -0.0017 C.ar    1  LIG1        0.1605
      2 N           1.3419   -0.0644   -0.0011 N.ar    1  LIG1       -0.1338
      3 C           1.1899    2.1974   -0.0004 C.ar    1  LIG1        0.2193
      4 N          -0.7622    1.0308   -0.0016 N.ar    1  LIG1       -0.1338
      5 N           1.9563    1.0885   -0.0004 N.ar    1  LIG1       -0.1243
      6 N          -0.1560    2.1919   -0.0009 N.ar    1  LIG1       -0.1243
      7 H          -0.4939   -1.0173   -0.0024 H       1  LIG1        0.1085
      8 C           1.8394    3.4811    0.0007 C.ar    1  LIG1        0.0879
      9 C           3.1763    3.8357    0.0017 C.ar    1  LIG1       -0.0326
     10 C           3.2297    5.2383    0.0018 C.ar    1  LIG1       -0.0357
     11 C           1.9246    5.7214    0.0019 C.ar    1  LIG1        0.0470
     12 N           1.1007    4.6362    0.0011 N.ar    1  LIG1       -0.3516
     13 H           0.0925    4.6286    0.0006 H       1  LIG1        0.1660
     14 H           4.0032    3.1421    0.0019 H       1  LIG1        0.0640
     15 H           4.1252    5.8408    0.0023 H       1  LIG1        0.0639
     16 C           2.3235    8.1708    0.0014 C.ar    1  LIG1       -0.0526
     17 C           1.8692    9.4805    0.0018 C.ar    1  LIG1       -0.0611
     18 C           1.4241    7.0984    0.0023 C.ar    1  LIG1       -0.0017
     19 C           0.5052    9.7518    0.0032 C.ar    1  LIG1       -0.0617
     20 H           2.5860   10.2951    0.0011 H       1  LIG1        0.0618
     21 C           0.0550    7.3853    0.0037 C.ar    1  LIG1       -0.0526
     22 C          -0.3989    8.6969    0.0041 C.ar    1  LIG1       -0.0611
     23 H          -0.6774    6.5843    0.0046 H       1  LIG1        0.0624
     24 H           0.1504   10.7769    0.0035 H       1  LIG1        0.0618
     25 H           3.3901    7.9768    0.0002 H       1  LIG1        0.0624
     26 H          -1.4660    8.8932    0.0051 H       1  LIG1        0.0618
@<TRIPOS>BOND
     1     7     1    1
     2     1     4   ar
     3     1     2   ar
     4     4     6   ar
     5     2     5   ar
     6     6     3   ar
     7     5     3   ar
     8     3     8    1
     9    25    16    1
    10    13    12    1
    11     8    12   ar
    12     8     9   ar
    13    20    17    1
    14    12    11   ar
    15    16    17   ar
    16    16    18   ar
    17     9    10   ar
    18     9    14    1
    19    17    19   ar
    20    10    11   ar
    21    10    15    1
    22    11    18    1
    23    18    21   ar
    24    19    24    1
    25    19    22   ar
    26    21    22   ar
    27    21    23    1
    28    22    26    1
