@<TRIPOS>MOLECULE
mol_data/opt/cam/geoms/mol2/8135.out
 23 25 0 0 0
SMALL
GASTEIGER

@<TRIPOS>ATOM
      1 C          -0.0270   -0.0121   -0.0006 C.ar    1  LIG1        0.1605
      2 N           1.3086   -0.0341   -0.0003 N.ar    1  LIG1       -0.1338
      3 C           1.1790    2.2285   -0.0000 C.ar    1  LIG1        0.2193
      4 N          -0.7844    1.0823   -0.0007 N.ar    1  LIG1       -0.1338
      5 N           1.9345    1.1125    0.0001 N.ar    1  LIG1       -0.1243
      6 N          -0.1667    2.2371   -0.0004 N.ar    1  LIG1       -0.1243
      7 H          -0.5367   -0.9683   -0.0010 H       1  LIG1        0.1085
      8 C           1.8417    3.5053    0.0005 C.ar    1  LIG1        0.0880
      9 C           3.1831    3.8442    0.0011 C.ar    1  LIG1       -0.0326
     10 C           3.2571    5.2455    0.0010 C.ar    1  LIG1       -0.0352
     11 C           1.9567    5.7410    0.0010 C.ar    1  LIG1        0.0536
     12 N           1.1153    4.6696    0.0007 N.ar    1  LIG1       -0.3512
     13 H           0.1055    4.6788    0.0003 H       1  LIG1        0.1660
     14 H           4.0004    3.1393    0.0012 H       1  LIG1        0.0640
     15 H           4.1549    5.8450    0.0013 H       1  LIG1        0.0639
     16 C           1.4900    7.1140    0.0011 C.ar    1  LIG1        0.0355
     17 C           2.2483    8.2536   -0.0002 C.ar    1  LIG1       -0.0455
     18 C           1.4710    9.4445    0.0003 C.ar    1  LIG1       -0.0541
     19 C           0.1329    9.2015    0.0019 C.ar    1  LIG1       -0.0237
     20 S          -0.2043    7.5105    0.0032 S.2     1  LIG1       -0.0952
     21 H          -0.6799    9.9128    0.0026 H       1  LIG1        0.0693
     22 H           3.3309    8.2407   -0.0016 H       1  LIG1        0.0629
     23 H           1.8953   10.4406   -0.0006 H       1  LIG1        0.0623
@<TRIPOS>BOND
     1    22    17    1
     2     7     1    1
     3     4     1   ar
     4     4     6   ar
     5     1     2   ar
     6    23    18    1
     7     6     3   ar
     8     2     5   ar
     9    17    18   ar
    10    17    16   ar
    11     3     5   ar
    12     3     8    1
    13    13    12    1
    14    18    19   ar
    15     8    12   ar
    16     8     9   ar
    17    12    11   ar
    18    11    10   ar
    19    11    16    1
    20    10     9   ar
    21    10    15    1
    22     9    14    1
    23    16    20   ar
    24    19    21    1
    25    19    20   ar
