@<TRIPOS>MOLECULE
mol_data/opt/cam/geoms/mol2/8135-4.out
 33 36 0 0 0
SMALL
GASTEIGER

@<TRIPOS>ATOM
      1 C          -0.0608   -0.1012   -0.3074 C.ar    1  LIG1        0.1605
      2 N           1.2746   -0.1283   -0.2775 N.ar    1  LIG1       -0.1338
      3 C           1.1501    2.1298   -0.1249 C.ar    1  LIG1        0.2193
      4 N          -0.8153    0.9935   -0.2508 N.ar    1  LIG1       -0.1338
      5 N           1.9028    1.0133   -0.1842 N.ar    1  LIG1       -0.1243
      6 N          -0.1951    2.1436   -0.1568 N.ar    1  LIG1       -0.1243
      7 H          -0.5723   -1.0533   -0.3848 H       1  LIG1        0.1085
      8 C           1.8162    3.4012   -0.0225 C.ar    1  LIG1        0.0880
      9 C           3.1584    3.7336    0.0227 C.ar    1  LIG1       -0.0326
     10 C           3.2365    5.1329    0.1136 C.ar    1  LIG1       -0.0352
     11 C           1.9384    5.6308    0.1230 C.ar    1  LIG1        0.0537
     12 N           1.0930    4.5655    0.0410 N.ar    1  LIG1       -0.3512
     13 H           0.0870    4.5924   -0.0277 H       1  LIG1        0.1660
     14 H           3.9733    3.0263   -0.0008 H       1  LIG1        0.0640
     15 H           4.1339    5.7290    0.1900 H       1  LIG1        0.0639
     16 C           1.4458    6.9905    0.2125 C.ar    1  LIG1        0.0361
     17 C           0.2152    7.4260    0.6262 C.ar    1  LIG1       -0.0449
     18 C           0.0800    8.8374    0.5876 C.ar    1  LIG1       -0.0463
     19 C           1.2043    9.4829    0.1506 C.ar    1  LIG1        0.0200
     20 S           2.4477    8.3321   -0.2446 S.2     1  LIG1       -0.0868
     21 H          -0.5614    6.7616    0.9869 H       1  LIG1        0.0630
     22 H          -0.8100    9.3623    0.9116 H       1  LIG1        0.0629
     23 C           2.6902   11.4949    0.1391 C.ar    1  LIG1       -0.0535
     24 C           2.8753   12.8628   -0.0061 C.ar    1  LIG1       -0.0612
     25 C           1.4203   10.9270   -0.0062 C.ar    1  LIG1       -0.0113
     26 C           1.7952   13.6900   -0.2904 C.ar    1  LIG1       -0.0617
     27 H           3.8680   13.2847    0.1124 H       1  LIG1        0.0618
     28 C           0.3421   11.7684   -0.3026 C.ar    1  LIG1       -0.0535
     29 C           0.5277   13.1366   -0.4359 C.ar    1  LIG1       -0.0612
     30 H          -0.6436   11.3400   -0.4491 H       1  LIG1        0.0624
     31 H           1.9403   14.7595   -0.4008 H       1  LIG1        0.0618
     32 H           3.5363   10.8616    0.3864 H       1  LIG1        0.0624
     33 H          -0.3206   13.7727   -0.6669 H       1  LIG1        0.0618
@<TRIPOS>BOND
     1    33    29    1
     2    30    28    1
     3    29    28   ar
     4    29    26   ar
     5    31    26    1
     6     7     1    1
     7     1     2   ar
     8     1     4   ar
     9    28    25   ar
    10    26    24   ar
    11     2     5   ar
    12     4     6   ar
    13    20    19   ar
    14    20    16   ar
    15     5     3   ar
    16     6     3   ar
    17     3     8    1
    18    13    12    1
    19     8     9   ar
    20     8    12   ar
    21    25    23   ar
    22    25    19    1
    23    24    27    1
    24    24    23   ar
    25    14     9    1
    26     9    10   ar
    27    12    11   ar
    28    10    11   ar
    29    10    15    1
    30    11    16    1
    31    23    32    1
    32    19    18   ar
    33    16    17   ar
    34    18    17   ar
    35    18    22    1
    36    17    21    1
