@<TRIPOS>MOLECULE
mol_data/opt/cam/geoms/mol2/81388.out
 28 31 0 0 0
SMALL
GASTEIGER

@<TRIPOS>ATOM
      1 C          -0.0447    0.0050   -0.0005 C.ar    1  LIG1        0.1605
      2 N           1.2900   -0.0187   -0.0006 N.ar    1  LIG1       -0.1338
      3 C           1.1586    2.2410   -0.0001 C.ar    1  LIG1        0.2193
      4 N          -0.8029    1.0998   -0.0002 N.ar    1  LIG1       -0.1338
      5 N           1.9146    1.1308   -0.0003 N.ar    1  LIG1       -0.1243
      6 N          -0.1833    2.2542    0.0000 N.ar    1  LIG1       -0.1243
      7 H          -0.5553   -0.9509   -0.0007 H       1  LIG1        0.1085
      8 C           1.8303    3.5236    0.0003 C.ar    1  LIG1        0.0880
      9 C           3.1828    3.8396    0.0004 C.ar    1  LIG1       -0.0325
     10 C           3.2797    5.2376    0.0005 C.ar    1  LIG1       -0.0325
     11 C           1.9836    5.7379    0.0009 C.ar    1  LIG1        0.0880
     12 N           1.1193    4.6835    0.0007 N.ar    1  LIG1       -0.3491
     13 H           0.1104    4.7515    0.0008 H       1  LIG1        0.1661
     14 H           3.9866    3.1199    0.0002 H       1  LIG1        0.0640
     15 H           4.1753    5.8396    0.0005 H       1  LIG1        0.0640
     16 C           1.4979    7.0953    0.0013 C.ar    1  LIG1        0.2194
     17 N           2.3980    8.0953    0.0014 N.ar    1  LIG1       -0.1236
     18 C           0.6122    9.4862    0.0021 C.ar    1  LIG1        0.2435
     19 N           0.1657    7.2734    0.0016 N.ar    1  LIG1       -0.1236
     20 N           1.9403    9.3155    0.0018 N.ar    1  LIG1       -0.1218
     21 N          -0.2863    8.4978    0.0020 N.ar    1  LIG1       -0.1218
     22 C           0.0992   10.8828    0.0026 C.ar    1  LIG1        0.2434
     23 N           1.0018   11.8687    0.0025 N.ar    1  LIG1       -0.1224
     24 C          -0.7752   13.2592    0.0032 C.ar    1  LIG1        0.1605
     25 N          -1.2273   11.0487    0.0029 N.ar    1  LIG1       -0.1224
     26 N           0.5473   13.0992    0.0028 N.ar    1  LIG1       -0.1338
     27 N          -1.6788   12.2802    0.0033 N.ar    1  LIG1       -0.1338
     28 H          -1.1495   14.2768    0.0037 H       1  LIG1        0.1085
@<TRIPOS>BOND
     1     7     1    1
     2     2     1   ar
     3     2     5   ar
     4     1     4   ar
     5     5     3   ar
     6     4     6   ar
     7     3     6   ar
     8     3     8    1
     9    14     9    1
    10     8     9   ar
    11     8    12   ar
    12     9    10   ar
    13    15    10    1
    14    10    11   ar
    15    12    13    1
    16    12    11   ar
    17    11    16    1
    18    16    17   ar
    19    16    19   ar
    20    17    20   ar
    21    19    21   ar
    22    20    18   ar
    23    21    18   ar
    24    18    22    1
    25    23    22   ar
    26    23    26   ar
    27    22    25   ar
    28    26    24   ar
    29    25    27   ar
    30    24    27   ar
    31    24    28    1
