@<TRIPOS>MOLECULE
mol_data/opt/cam/geoms/mol2/8138-5.out
 29 32 0 0 0
SMALL
GASTEIGER

@<TRIPOS>ATOM
      1 C          -0.0645    0.0070   -0.0002 C.ar    1  LIG1        0.1605
      2 N           1.2701   -0.0267   -0.0005 N.ar    1  LIG1       -0.1338
      3 C           1.1569    2.2353    0.0003 C.ar    1  LIG1        0.2193
      4 N          -0.8139    1.1076    0.0003 N.ar    1  LIG1       -0.1338
      5 N           1.9039    1.1173   -0.0003 N.ar    1  LIG1       -0.1243
      6 N          -0.1861    2.2575    0.0006 N.ar    1  LIG1       -0.1243
      7 H          -0.5824   -0.9449   -0.0004 H       1  LIG1        0.1085
      8 C           1.8373    3.5105    0.0004 C.ar    1  LIG1        0.0880
      9 C           3.1900    3.8191   -0.0002 C.ar    1  LIG1       -0.0325
     10 C           3.2956    5.2181    0.0008 C.ar    1  LIG1       -0.0325
     11 C           2.0040    5.7259    0.0007 C.ar    1  LIG1        0.0880
     12 N           1.1341    4.6787    0.0006 N.ar    1  LIG1       -0.3491
     13 H           0.1262    4.7550    0.0008 H       1  LIG1        0.1661
     14 H           3.9902    3.0952   -0.0007 H       1  LIG1        0.0640
     15 H           4.1953    5.8138    0.0011 H       1  LIG1        0.0640
     16 C           1.5223    7.0905    0.0010 C.ar    1  LIG1        0.2194
     17 N           0.1945    7.2752    0.0011 N.ar    1  LIG1       -0.1237
     18 C           0.6466    9.4968    0.0017 C.ar    1  LIG1        0.2099
     19 N           2.4262    8.0859    0.0013 N.ar    1  LIG1       -0.1237
     20 N          -0.2522    8.5015    0.0014 N.ar    1  LIG1       -0.1246
     21 N           1.9803    9.3088    0.0017 N.ar    1  LIG1       -0.1246
     22 C           0.1539   10.8615    0.0021 C.ar    1  LIG1        0.0598
     23 C           0.8990   12.0108    0.0024 C.ar    1  LIG1       -0.0438
     24 C           0.0964   13.1799    0.0028 C.ar    1  LIG1       -0.0540
     25 C          -1.2376   12.8929    0.0030 C.ar    1  LIG1       -0.0236
     26 S          -1.5465   11.2024    0.0021 S.2     1  LIG1       -0.0934
     27 H          -2.0636   13.5901    0.0033 H       1  LIG1        0.0693
     28 H           1.9810   11.9985    0.0023 H       1  LIG1        0.0630
     29 H           0.4933   14.1870    0.0032 H       1  LIG1        0.0623
@<TRIPOS>BOND
     1    14     9    1
     2     2     5   ar
     3     2     1   ar
     4     7     1    1
     5     5     3   ar
     6     1     4   ar
     7     9     8   ar
     8     9    10   ar
     9     3     8    1
    10     3     6   ar
    11     4     6   ar
    12     8    12   ar
    13    12    11   ar
    14    12    13    1
    15    11    10   ar
    16    11    16    1
    17    10    15    1
    18    16    17   ar
    19    16    19   ar
    20    17    20   ar
    21    19    21   ar
    22    20    18   ar
    23    21    18   ar
    24    18    22    1
    25    22    26   ar
    26    22    23   ar
    27    26    25   ar
    28    28    23    1
    29    23    24   ar
    30    24    25   ar
    31    24    29    1
    32    25    27    1
