@<TRIPOS>MOLECULE
mol_data/opt/cam/geoms/mol2/84-.out
 18 19 0 0 0
SMALL
GASTEIGER

@<TRIPOS>ATOM
      1 C          -0.0279   -0.0119    0.0005 C.ar    1  LIG1        0.1605
      2 N           1.3037   -0.0080    0.0005 N.ar    1  LIG1       -0.1339
      3 C           1.1320    2.2600   -0.0004 C.ar    1  LIG1        0.2033
      4 N          -0.8057    1.0690    0.0001 N.ar    1  LIG1       -0.1339
      5 N           1.8995    1.1587    0.0001 N.ar    1  LIG1       -0.1258
      6 N          -0.2101    2.2358   -0.0004 N.ar    1  LIG1       -0.1258
      7 H          -0.5209   -0.9773    0.0009 H       1  LIG1        0.1085
      8 C           1.0458    4.7483   -0.0015 C.ar    1  LIG1       -0.0509
      9 C           1.6799    5.9819   -0.0020 C.ar    1  LIG1       -0.0611
     10 C           1.8029    3.5741   -0.0009 C.ar    1  LIG1        0.0226
     11 C           3.0691    6.0540   -0.0019 C.ar    1  LIG1       -0.0617
     12 H           1.0876    6.8908   -0.0024 H       1  LIG1        0.0618
     13 C           3.1980    3.6495   -0.0009 C.ar    1  LIG1       -0.0509
     14 C           3.8254    4.8866   -0.0014 C.ar    1  LIG1       -0.0611
     15 H           3.7764    2.7337   -0.0004 H       1  LIG1        0.0625
     16 H           3.5626    7.0205   -0.0023 H       1  LIG1        0.0618
     17 H          -0.0351    4.6797   -0.0015 H       1  LIG1        0.0625
     18 H           4.9089    4.9398   -0.0013 H       1  LIG1        0.0618
@<TRIPOS>BOND
     1    12     9    1
     2    16    11    1
     3     9    11   ar
     4     9     8   ar
     5    11    14   ar
     6    17     8    1
     7     8    10   ar
     8    14    18    1
     9    14    13   ar
    10    10    13   ar
    11    10     3    1
    12    13    15    1
    13     6     3   ar
    14     6     4   ar
    15     3     5   ar
    16     4     1   ar
    17     5     2   ar
    18     1     2   ar
    19     1     7    1
