@<TRIPOS>MOLECULE
mol_data/opt/cam/geoms/mol2/84-13-.out
 26 28 0 0 0
SMALL
GASTEIGER

@<TRIPOS>ATOM
      1 C          -0.0829   -0.0695    0.0015 C.ar    1  LIG1        0.1605
      2 N           1.2491   -0.0751    0.0021 N.ar    1  LIG1       -0.1339
      3 C           1.0941    2.1948   -0.0002 C.ar    1  LIG1        0.2033
      4 N          -0.8526    1.0174    0.0000 N.ar    1  LIG1       -0.1339
      5 N           1.8538    1.0863    0.0012 N.ar    1  LIG1       -0.1258
      6 N          -0.2496    2.1799   -0.0008 N.ar    1  LIG1       -0.1258
      7 H          -0.5828   -1.0312    0.0022 H       1  LIG1        0.1085
      8 C           1.0338    4.6866   -0.0027 C.ar    1  LIG1       -0.0503
      9 C           1.6743    5.9102   -0.0037 C.ar    1  LIG1       -0.0520
     10 C           1.7722    3.4989   -0.0012 C.ar    1  LIG1        0.0227
     11 C           3.0743    6.0004   -0.0031 C.ar    1  LIG1       -0.0017
     12 H           1.0803    6.8166   -0.0051 H       1  LIG1        0.0624
     13 C           3.1664    3.5737   -0.0006 C.ar    1  LIG1       -0.0503
     14 C           3.8019    4.8024   -0.0015 C.ar    1  LIG1       -0.0520
     15 H           3.7446    2.6577    0.0007 H       1  LIG1        0.0625
     16 H          -0.0483    4.6351   -0.0033 H       1  LIG1        0.0625
     17 H           4.8870    4.8142   -0.0006 H       1  LIG1        0.0624
     18 C           3.7261    7.3059   -0.0041 C.ar    1  LIG1        0.0465
     19 C           3.1899    8.5805   -0.0037 C.ar    1  LIG1       -0.0364
     20 C           4.2577    9.5066   -0.0044 C.ar    1  LIG1       -0.0438
     21 C           5.4237    8.7808   -0.0068 C.ar    1  LIG1        0.0022
     22 N           5.0946    7.4570   -0.0059 N.ar    1  LIG1       -0.3607
     23 H           5.7610    6.7042   -0.0071 H       1  LIG1        0.1653
     24 H           6.4548    9.0998   -0.0085 H       1  LIG1        0.0807
     25 H           2.1376    8.8224   -0.0022 H       1  LIG1        0.0639
     26 H           4.1810   10.5836   -0.0038 H       1  LIG1        0.0633
@<TRIPOS>BOND
     1    24    21    1
     2    23    22    1
     3    21    22   ar
     4    21    20   ar
     5    22    18   ar
     6    12     9    1
     7    20    26    1
     8    20    19   ar
     9    18    19   ar
    10    18    11    1
    11     9    11   ar
    12     9     8   ar
    13    19    25    1
    14    16     8    1
    15    11    14   ar
    16     8    10   ar
    17    14    17    1
    18    14    13   ar
    19    10    13   ar
    20    10     3    1
    21     6     3   ar
    22     6     4   ar
    23    13    15    1
    24     3     5   ar
    25     4     1   ar
    26     5     2   ar
    27     1     2   ar
    28     1     7    1
