@<TRIPOS>MOLECULE
mol_data/opt/cam/geoms/mol2/84-13-4.out
 36 39 0 0 0
SMALL
GASTEIGER

@<TRIPOS>ATOM
      1 C          -0.1655   -0.1034    0.2720 C.ar    1  LIG1        0.1605
      2 N           1.1441   -0.1186    0.0299 N.ar    1  LIG1       -0.1339
      3 C           1.0175    2.1517    0.1083 C.ar    1  LIG1        0.2033
      4 N          -0.9099    0.9886    0.4367 N.ar    1  LIG1       -0.1339
      5 N           1.7520    1.0383   -0.0534 N.ar    1  LIG1       -0.1258
      6 N          -0.3037    2.1464    0.3522 N.ar    1  LIG1       -0.1258
      7 H          -0.6682   -1.0613    0.3411 H       1  LIG1        0.1085
      8 C           0.9863    4.6423    0.1823 C.ar    1  LIG1       -0.0503
      9 C           1.6314    5.8617    0.1024 C.ar    1  LIG1       -0.0520
     10 C           1.6998    3.4511    0.0138 C.ar    1  LIG1        0.0227
     11 C           3.0061    5.9363   -0.1608 C.ar    1  LIG1       -0.0017
     12 H           1.0713    6.7760    0.2642 H       1  LIG1        0.0624
     13 C           3.0707    3.5136   -0.2468 C.ar    1  LIG1       -0.0503
     14 C           3.7096    4.7372   -0.3383 C.ar    1  LIG1       -0.0520
     15 H           3.6237    2.5929   -0.3882 H       1  LIG1        0.0625
     16 H          -0.0762    4.5958    0.3884 H       1  LIG1        0.0625
     17 H           4.7668    4.7605   -0.5825 H       1  LIG1        0.0624
     18 C           3.6717    7.2301   -0.2463 C.ar    1  LIG1        0.0469
     19 C           3.1700    8.4886   -0.5165 C.ar    1  LIG1       -0.0358
     20 C           4.2463    9.4011   -0.4807 C.ar    1  LIG1       -0.0358
     21 C           5.3935    8.6900   -0.1877 C.ar    1  LIG1        0.0469
     22 N           5.0288    7.3723   -0.0699 N.ar    1  LIG1       -0.3542
     23 H           5.6293    6.6563    0.3055 H       1  LIG1        0.1659
     24 H           2.1424    8.7154   -0.7598 H       1  LIG1        0.0639
     25 H           4.2020   10.4596   -0.6907 H       1  LIG1        0.0639
     26 C           7.8510    8.2694   -0.2812 C.ar    1  LIG1       -0.0526
     27 C           9.1614    8.6971   -0.1149 C.ar    1  LIG1       -0.0611
     28 C           6.7790    9.1307   -0.0233 C.ar    1  LIG1       -0.0017
     29 C           9.4265    9.9970    0.2990 C.ar    1  LIG1       -0.0617
     30 H           9.9790    8.0143   -0.3225 H       1  LIG1        0.0618
     31 C           7.0586   10.4357    0.3966 C.ar    1  LIG1       -0.0526
     32 C           8.3685   10.8651    0.5490 C.ar    1  LIG1       -0.0611
     33 H           6.2371   11.1076    0.6208 H       1  LIG1        0.0624
     34 H          10.4505   10.3324    0.4247 H       1  LIG1        0.0618
     35 H           7.6601    7.2645   -0.6457 H       1  LIG1        0.0624
     36 H           8.5651   11.8808    0.8766 H       1  LIG1        0.0618
@<TRIPOS>BOND
     1    24    19    1
     2    25    20    1
     3    35    26    1
     4    17    14    1
     5    19    20   ar
     6    19    18   ar
     7    20    21   ar
     8    15    13    1
     9    14    13   ar
    10    14    11   ar
    11    30    27    1
    12    26    27   ar
    13    26    28   ar
    14    13    10   ar
    15    18    11    1
    16    18    22   ar
    17    21    22   ar
    18    21    28    1
    19    11     9   ar
    20    27    29   ar
    21    22    23    1
    22     5     2   ar
    23     5     3   ar
    24    28    31   ar
    25    10     3    1
    26    10     8   ar
    27     2     1   ar
    28     9     8   ar
    29     9    12    1
    30     3     6   ar
    31     8    16    1
    32     1     7    1
    33     1     4   ar
    34    29    34    1
    35    29    32   ar
    36     6     4   ar
    37    31    32   ar
    38    31    33    1
    39    32    36    1
