@<TRIPOS>MOLECULE
mol_data/opt/cam/geoms/mol2/84-12.out
 25 27 0 0 0
SMALL
GASTEIGER

@<TRIPOS>ATOM
      1 C          -0.0345   -0.0690    0.0013 C.ar    1  LIG1        0.1605
      2 N           1.2972   -0.0570    0.0011 N.ar    1  LIG1       -0.1339
      3 C           1.1119    2.2102   -0.0003 C.ar    1  LIG1        0.2033
      4 N          -0.8188    1.0075    0.0007 N.ar    1  LIG1       -0.1339
      5 N           1.8862    1.1127    0.0003 N.ar    1  LIG1       -0.1258
      6 N          -0.2310    2.1777   -0.0001 N.ar    1  LIG1       -0.1258
      7 H          -0.5217   -1.0373    0.0019 H       1  LIG1        0.1085
      8 C           1.0163    4.6991   -0.0019 C.ar    1  LIG1       -0.0503
      9 C           1.6389    5.9347   -0.0028 C.ar    1  LIG1       -0.0504
     10 C           1.7735    3.5250   -0.0012 C.ar    1  LIG1        0.0227
     11 C           3.0350    6.0293   -0.0029 C.ar    1  LIG1        0.0173
     12 H           1.0459    6.8412   -0.0033 H       1  LIG1        0.0625
     13 C           3.1690    3.6143   -0.0014 C.ar    1  LIG1       -0.0503
     14 C           3.7890    4.8495   -0.0022 C.ar    1  LIG1       -0.0504
     15 H           3.7566    2.7045   -0.0008 H       1  LIG1        0.0625
     16 H          -0.0647    4.6301   -0.0018 H       1  LIG1        0.0625
     17 H           4.8723    4.9006   -0.0023 H       1  LIG1        0.0625
     18 C           3.6938    7.3283   -0.0038 C.ar    1  LIG1        0.1348
     19 C           5.0001    7.7205   -0.0043 C.ar    1  LIG1       -0.0159
     20 C           4.9994    9.1467   -0.0052 C.ar    1  LIG1       -0.0233
     21 C           3.6965    9.5195   -0.0052 C.ar    1  LIG1        0.0926
     22 O           2.8918    8.4309   -0.0043 O.2     1  LIG1       -0.4629
     23 H           3.1976   10.4754   -0.0057 H       1  LIG1        0.1029
     24 H           5.8642    7.0737   -0.0041 H       1  LIG1        0.0655
     25 H           5.8564    9.8030   -0.0057 H       1  LIG1        0.0649
@<TRIPOS>BOND
     1    25    20    1
     2    23    21    1
     3    21    20   ar
     4    21    22   ar
     5    20    19   ar
     6    19    24    1
     7    19    18   ar
     8    22    18   ar
     9    18    11    1
    10    12     9    1
    11    11     9   ar
    12    11    14   ar
    13     9     8   ar
    14    17    14    1
    15    14    13   ar
    16     8    16    1
    17     8    10   ar
    18    13    10   ar
    19    13    15    1
    20    10     3    1
    21     3     6   ar
    22     3     5   ar
    23     6     4   ar
    24     5     2   ar
    25     4     1   ar
    26     2     1   ar
    27     1     7    1
