@<TRIPOS>MOLECULE
mol_data/opt/cam/geoms/mol2/84-13.out
 26 28 0 0 0
SMALL
GASTEIGER

@<TRIPOS>ATOM
      1 C          -0.0482   -0.0873    0.0011 C.ar    1  LIG1        0.1605
      2 N           1.2836   -0.0769    0.0016 N.ar    1  LIG1       -0.1339
      3 C           1.1018    2.1909   -0.0003 C.ar    1  LIG1        0.2033
      4 N          -0.8310    0.9904   -0.0001 N.ar    1  LIG1       -0.1339
      5 N           1.8747    1.0917    0.0009 N.ar    1  LIG1       -0.1258
      6 N          -0.2417    2.1598   -0.0008 N.ar    1  LIG1       -0.1258
      7 H          -0.5366   -1.0549    0.0017 H       1  LIG1        0.1085
      8 C           1.0100    4.6783   -0.0025 C.ar    1  LIG1       -0.0503
      9 C           1.6358    5.9120   -0.0033 C.ar    1  LIG1       -0.0520
     10 C           1.7639    3.5032   -0.0012 C.ar    1  LIG1        0.0227
     11 C           3.0333    6.0214   -0.0028 C.ar    1  LIG1       -0.0017
     12 H           1.0114    6.7995   -0.0045 H       1  LIG1        0.0624
     13 C           3.1592    3.5979   -0.0007 C.ar    1  LIG1       -0.0503
     14 C           3.7780    4.8326   -0.0015 C.ar    1  LIG1       -0.0520
     15 H           3.7496    2.6896    0.0003 H       1  LIG1        0.0625
     16 H          -0.0712    4.6124   -0.0029 H       1  LIG1        0.0625
     17 H           4.8607    4.8801   -0.0009 H       1  LIG1        0.0624
     18 C           3.7118    7.3132   -0.0036 C.ar    1  LIG1        0.0465
     19 C           5.0596    7.6228   -0.0046 C.ar    1  LIG1       -0.0364
     20 C           5.1872    9.0304   -0.0058 C.ar    1  LIG1       -0.0438
     21 C           3.9169    9.5527   -0.0038 C.ar    1  LIG1        0.0022
     22 N           3.0349    8.5121   -0.0032 N.ar    1  LIG1       -0.3607
     23 H           2.0346    8.6131   -0.0020 H       1  LIG1        0.1653
     24 H           3.5733   10.5758   -0.0033 H       1  LIG1        0.0807
     25 H           5.8707    6.9101   -0.0053 H       1  LIG1        0.0639
     26 H           6.1061    9.5975   -0.0072 H       1  LIG1        0.0633
@<TRIPOS>BOND
     1    26    20    1
     2    20    19   ar
     3    20    21   ar
     4    25    19    1
     5    19    18   ar
     6    12     9    1
     7    21    24    1
     8    21    22   ar
     9    18    22   ar
    10    18    11    1
    11     9    11   ar
    12     9     8   ar
    13    22    23    1
    14    16     8    1
    15    11    14   ar
    16     8    10   ar
    17    14    17    1
    18    14    13   ar
    19    10    13   ar
    20    10     3    1
    21     6     3   ar
    22     6     4   ar
    23    13    15    1
    24     3     5   ar
    25     4     1   ar
    26     5     2   ar
    27     1     2   ar
    28     1     7    1
