@<TRIPOS>MOLECULE
mol_data/opt/cam/geoms/mol2/84-128.out
 31 34 0 0 0
SMALL
GASTEIGER

@<TRIPOS>ATOM
      1 C           0.0437   -0.1866    0.0014 C.ar    1  LIG1        0.1605
      2 N           1.3749   -0.1455    0.0014 N.ar    1  LIG1       -0.1339
      3 C           1.1388    2.1159   -0.0002 C.ar    1  LIG1        0.2033
      4 N          -0.7644    0.8723    0.0006 N.ar    1  LIG1       -0.1339
      5 N           1.9376    1.0373    0.0006 N.ar    1  LIG1       -0.1258
      6 N          -0.2021    2.0550   -0.0002 N.ar    1  LIG1       -0.1258
      7 H          -0.4220   -1.1654    0.0021 H       1  LIG1        0.1085
      8 C           0.9874    4.6025   -0.0021 C.ar    1  LIG1       -0.0503
      9 C           1.5819    5.8521   -0.0030 C.ar    1  LIG1       -0.0504
     10 C           1.7720    3.4467   -0.0012 C.ar    1  LIG1        0.0227
     11 C           2.9757    5.9729   -0.0030 C.ar    1  LIG1        0.0173
     12 H           0.9702    6.7463   -0.0037 H       1  LIG1        0.0625
     13 C           3.1650    3.5641   -0.0012 C.ar    1  LIG1       -0.0503
     14 C           3.7582    4.8127   -0.0021 C.ar    1  LIG1       -0.0504
     15 H           3.7713    2.6667   -0.0005 H       1  LIG1        0.0625
     16 H          -0.0916    4.5088   -0.0021 H       1  LIG1        0.0625
     17 H           4.8401    4.8878   -0.0020 H       1  LIG1        0.0625
     18 C           3.6037    7.2870   -0.0039 C.ar    1  LIG1        0.1358
     19 C           4.9072    7.7087   -0.0043 C.ar    1  LIG1       -0.0151
     20 C           4.8745    9.1244   -0.0053 C.ar    1  LIG1       -0.0120
     21 C           3.5546    9.4729   -0.0054 C.ar    1  LIG1        0.1760
     22 O           2.7781    8.3611   -0.0046 O.2     1  LIG1       -0.4516
     23 H           5.7852    7.0814   -0.0040 H       1  LIG1        0.0656
     24 H           5.7054    9.8127   -0.0059 H       1  LIG1        0.0657
     25 C           2.9007   10.7644   -0.0063 C.ar    1  LIG1        0.2381
     26 N           3.7087   11.8396   -0.0070 N.ar    1  LIG1       -0.1226
     27 C           1.8086   13.0554   -0.0080 C.ar    1  LIG1        0.1605
     28 N           1.5600   10.8094   -0.0063 N.ar    1  LIG1       -0.1226
     29 N           3.1429   13.0179   -0.0079 N.ar    1  LIG1       -0.1338
     30 N           1.0019   11.9967   -0.0071 N.ar    1  LIG1       -0.1338
     31 H           1.3424   14.0338   -0.0084 H       1  LIG1        0.1085
@<TRIPOS>BOND
     1    31    27    1
     2    27    29   ar
     3    27    30   ar
     4    29    26   ar
     5    30    28   ar
     6    26    25   ar
     7    28    25   ar
     8    25    21    1
     9    24    20    1
    10    21    20   ar
    11    21    22   ar
    12    20    19   ar
    13    22    18   ar
    14    19    23    1
    15    19    18   ar
    16    18    11    1
    17    12     9    1
    18    11     9   ar
    19    11    14   ar
    20     9     8   ar
    21    14    17    1
    22    14    13   ar
    23     8    16    1
    24     8    10   ar
    25    13    10   ar
    26    13    15    1
    27    10     3    1
    28     3     6   ar
    29     3     5   ar
    30     6     4   ar
    31     5     2   ar
    32     4     1   ar
    33     2     1   ar
    34     1     7    1
