@<TRIPOS>MOLECULE
mol_data/opt/cam/geoms/mol2/84-12-.out
 25 27 0 0 0
SMALL
GASTEIGER

@<TRIPOS>ATOM
      1 C          -0.0763   -0.0476    0.0013 C.ar    1  LIG1        0.1605
      2 N           1.2556   -0.0550    0.0011 N.ar    1  LIG1       -0.1339
      3 C           1.1036    2.2145   -0.0003 C.ar    1  LIG1        0.2033
      4 N          -0.8446    1.0401    0.0007 N.ar    1  LIG1       -0.1339
      5 N           1.8618    1.1057    0.0003 N.ar    1  LIG1       -0.1258
      6 N          -0.2395    2.2016   -0.0001 N.ar    1  LIG1       -0.1258
      7 H          -0.5774   -1.0087    0.0019 H       1  LIG1        0.1085
      8 C           1.0412    4.7043   -0.0019 C.ar    1  LIG1       -0.0503
      9 C           1.6812    5.9292   -0.0028 C.ar    1  LIG1       -0.0504
     10 C           1.7840    3.5196   -0.0012 C.ar    1  LIG1        0.0227
     11 C           3.0793    6.0066   -0.0029 C.ar    1  LIG1        0.0173
     12 H           1.0897    6.8382   -0.0033 H       1  LIG1        0.0625
     13 C           3.1793    3.5911   -0.0014 C.ar    1  LIG1       -0.0503
     14 C           3.8182    4.8183   -0.0022 C.ar    1  LIG1       -0.0504
     15 H           3.7549    2.6735   -0.0008 H       1  LIG1        0.0625
     16 H          -0.0406    4.6496   -0.0018 H       1  LIG1        0.0625
     17 H           4.9004    4.8668   -0.0023 H       1  LIG1        0.0625
     18 C           3.7486    7.3002   -0.0038 C.ar    1  LIG1        0.1348
     19 C           3.3036    8.5895   -0.0045 C.ar    1  LIG1       -0.0159
     20 C           4.4614    9.4223   -0.0052 C.ar    1  LIG1       -0.0233
     21 C           5.5252    8.5827   -0.0049 C.ar    1  LIG1        0.0926
     22 O           5.1120    7.2937   -0.0041 O.2     1  LIG1       -0.4629
     23 H           6.5925    8.7364   -0.0051 H       1  LIG1        0.1029
     24 H           2.2738    8.9129   -0.0044 H       1  LIG1        0.0655
     25 H           4.4933   10.5012   -0.0058 H       1  LIG1        0.0649
@<TRIPOS>BOND
     1    25    20    1
     2    20    21   ar
     3    20    19   ar
     4    23    21    1
     5    21    22   ar
     6    19    24    1
     7    19    18   ar
     8    22    18   ar
     9    18    11    1
    10    12     9    1
    11    11     9   ar
    12    11    14   ar
    13     9     8   ar
    14    17    14    1
    15    14    13   ar
    16     8    16    1
    17     8    10   ar
    18    13    10   ar
    19    13    15    1
    20    10     3    1
    21     3     6   ar
    22     3     5   ar
    23     6     4   ar
    24     5     2   ar
    25     4     1   ar
    26     2     1   ar
    27     1     7    1
