@<TRIPOS>MOLECULE
mol_data/opt/cam/geoms/mol2/84-4-.out
 28 30 0 0 0
SMALL
GASTEIGER

@<TRIPOS>ATOM
      1 C          -0.0881   -0.0874    0.0063 C.ar    1  LIG1        0.1605
      2 N           1.1982   -0.0664    0.3508 N.ar    1  LIG1       -0.1339
      3 C           1.0840    2.1786    0.0024 C.ar    1  LIG1        0.2033
      4 N          -0.8146    0.9736   -0.3400 N.ar    1  LIG1       -0.1339
      5 N           1.8005    1.0968    0.3484 N.ar    1  LIG1       -0.1258
      6 N          -0.2134    2.1373   -0.3417 N.ar    1  LIG1       -0.1258
      7 H          -0.5861   -1.0502    0.0081 H       1  LIG1        0.1085
      8 C           1.0636    4.6430   -0.3586 C.ar    1  LIG1       -0.0504
      9 C           1.7038    5.8706   -0.3603 C.ar    1  LIG1       -0.0534
     10 C           1.7608    3.4870    0.0001 C.ar    1  LIG1        0.0227
     11 C           3.0519    5.9832   -0.0042 C.ar    1  LIG1       -0.0178
     12 H           1.1568    6.7560   -0.6657 H       1  LIG1        0.0624
     13 C           3.1076    3.5870    0.3567 C.ar    1  LIG1       -0.0504
     14 C           3.7396    4.8188    0.3541 C.ar    1  LIG1       -0.0534
     15 H           3.6466    2.6920    0.6425 H       1  LIG1        0.0625
     16 H           0.0213    4.5650   -0.6428 H       1  LIG1        0.0625
     17 H           4.7787    4.8849    0.6578 H       1  LIG1        0.0624
     18 C           3.0665    8.4509    0.4240 C.ar    1  LIG1       -0.0540
     19 C           3.7044    9.6841    0.4226 C.ar    1  LIG1       -0.0612
     20 C           3.7330    7.3000   -0.0065 C.ar    1  LIG1       -0.0179
     21 C           5.0209    9.7898   -0.0108 C.ar    1  LIG1       -0.0617
     22 H           3.1728   10.5646    0.7685 H       1  LIG1        0.0618
     23 C           5.0570    7.4198   -0.4392 C.ar    1  LIG1       -0.0540
     24 C           5.6948    8.6530   -0.4421 C.ar    1  LIG1       -0.0612
     25 H           5.5825    6.5416   -0.7997 H       1  LIG1        0.0624
     26 H           5.5194   10.7536   -0.0125 H       1  LIG1        0.0618
     27 H           2.0465    8.3733    0.7861 H       1  LIG1        0.0624
     28 H           6.7201    8.7271   -0.7897 H       1  LIG1        0.0618
@<TRIPOS>BOND
     1    25    23    1
     2    28    24    1
     3    12     9    1
     4    16     8    1
     5    24    23   ar
     6    24    21   ar
     7    23    20   ar
     8     9     8   ar
     9     9    11   ar
    10     8    10   ar
    11     6     4   ar
    12     6     3   ar
    13     4     1   ar
    14    26    21    1
    15    21    19   ar
    16    20    11    1
    17    20    18   ar
    18    11    14   ar
    19    10     3    1
    20    10    13   ar
    21     3     5   ar
    22     1     7    1
    23     1     2   ar
    24     5     2   ar
    25    14    13   ar
    26    14    17    1
    27    13    15    1
    28    19    18   ar
    29    19    22    1
    30    18    27    1
