@<TRIPOS>MOLECULE
mol_data/opt/cam/geoms/mol2/84-4-8.out
 34 37 0 0 0
SMALL
GASTEIGER

@<TRIPOS>ATOM
      1 C          -0.1212   -0.1302   -0.0029 C.ar    1  LIG1        0.1605
      2 N           1.1533   -0.1065    0.3831 N.ar    1  LIG1       -0.1339
      3 C           1.0557    2.1322   -0.0037 C.ar    1  LIG1        0.2033
      4 N          -0.8335    0.9268   -0.3893 N.ar    1  LIG1       -0.1339
      5 N           1.7580    1.0555    0.3824 N.ar    1  LIG1       -0.1258
      6 N          -0.2293    2.0890   -0.3894 N.ar    1  LIG1       -0.1258
      7 H          -0.6214   -1.0918   -0.0026 H       1  LIG1        0.1085
      8 C           1.0517    4.5916   -0.3991 C.ar    1  LIG1       -0.0504
      9 C           1.6939    5.8182   -0.3977 C.ar    1  LIG1       -0.0534
     10 C           1.7360    3.4400   -0.0042 C.ar    1  LIG1        0.0227
     11 C           3.0317    5.9309   -0.0051 C.ar    1  LIG1       -0.0178
     12 H           1.1574    6.7005   -0.7298 H       1  LIG1        0.0624
     13 C           3.0718    3.5410    0.3904 C.ar    1  LIG1       -0.0504
     14 C           3.7075    4.7710    0.3881 C.ar    1  LIG1       -0.0534
     15 H           3.5997    2.6488    0.7042 H       1  LIG1        0.0625
     16 H           0.0180    4.5114   -0.7126 H       1  LIG1        0.0625
     17 H           4.7379    4.8385    0.7200 H       1  LIG1        0.0624
     18 C           3.0394    8.4052    0.3872 C.ar    1  LIG1       -0.0534
     19 C           3.6750    9.6352    0.3886 C.ar    1  LIG1       -0.0504
     20 C           3.7153    7.2452   -0.0054 C.ar    1  LIG1       -0.0178
     21 C           5.0108    9.7361   -0.0063 C.ar    1  LIG1        0.0227
     22 H           3.1472   10.5276    0.7020 H       1  LIG1        0.0625
     23 C           5.0529    7.3577   -0.3986 C.ar    1  LIG1       -0.0534
     24 C           5.6951    8.5844   -0.4008 C.ar    1  LIG1       -0.0504
     25 H           5.5893    6.4753   -0.7305 H       1  LIG1        0.0624
     26 H           2.0091    8.3379    0.7193 H       1  LIG1        0.0624
     27 H           6.7286    8.6645   -0.7146 H       1  LIG1        0.0625
     28 C           5.6910   11.0440   -0.0068 C.ar    1  LIG1        0.2033
     29 N           6.9760   11.0870   -0.3925 N.ar    1  LIG1       -0.1258
     30 C           6.8677   13.3064   -0.0076 C.ar    1  LIG1        0.1605
     31 N           4.9886   12.1209    0.3785 N.ar    1  LIG1       -0.1258
     32 N           7.5801   12.2492   -0.3932 N.ar    1  LIG1       -0.1339
     33 N           5.5933   13.2829    0.3785 N.ar    1  LIG1       -0.1339
     34 H           7.3680   14.2680   -0.0077 H       1  LIG1        0.1085
@<TRIPOS>BOND
     1    25    23    1
     2    12     9    1
     3    27    24    1
     4    16     8    1
     5    24    23   ar
     6    24    21   ar
     7     8     9   ar
     8     8    10   ar
     9    23    20   ar
    10     9    11   ar
    11    32    29   ar
    12    32    30   ar
    13    29    28   ar
    14     6     4   ar
    15     6     3   ar
    16     4     1   ar
    17    34    30    1
    18    30    33   ar
    19    28    21    1
    20    28    31   ar
    21    21    19   ar
    22    20    11    1
    23    20    18   ar
    24    11    14   ar
    25    10     3    1
    26    10    13   ar
    27     3     5   ar
    28     1     7    1
    29     1     2   ar
    30    33    31   ar
    31     5     2   ar
    32    18    19   ar
    33    18    26    1
    34    14    13   ar
    35    14    17    1
    36    19    22    1
    37    13    15    1
