@<TRIPOS>MOLECULE
mol_data/opt/cam/geoms/mol2/84-4-12.out
 35 38 0 0 0
SMALL
GASTEIGER

@<TRIPOS>ATOM
      1 C          -0.1105   -0.1485    0.0046 C.ar    1  LIG1        0.1605
      2 N           1.1564   -0.1160    0.4139 N.ar    1  LIG1       -0.1339
      3 C           1.0587    2.1190    0.0023 C.ar    1  LIG1        0.2033
      4 N          -0.8191    0.9017   -0.4059 N.ar    1  LIG1       -0.1339
      5 N           1.7572    1.0479    0.4123 N.ar    1  LIG1       -0.1258
      6 N          -0.2193    2.0662   -0.4069 N.ar    1  LIG1       -0.1258
      7 H          -0.6074   -1.1119    0.0059 H       1  LIG1        0.1085
      8 C           1.0545    4.5736   -0.4207 C.ar    1  LIG1       -0.0504
      9 C           1.6930    5.8020   -0.4217 C.ar    1  LIG1       -0.0534
     10 C           1.7338    3.4282    0.0007 C.ar    1  LIG1        0.0227
     11 C           3.0222    5.9264   -0.0025 C.ar    1  LIG1       -0.0178
     12 H           1.1609    6.6780   -0.7766 H       1  LIG1        0.0624
     13 C           3.0614    3.5396    0.4206 C.ar    1  LIG1       -0.0504
     14 C           3.6920    4.7720    0.4184 C.ar    1  LIG1       -0.0534
     15 H           3.5861    2.6531    0.7554 H       1  LIG1        0.0625
     16 H           0.0276    4.4867   -0.7542 H       1  LIG1        0.0625
     17 H           4.7145    4.8471    0.7724 H       1  LIG1        0.0624
     18 C           3.0136    8.4087    0.3444 C.ar    1  LIG1       -0.0534
     19 C           3.6456    9.6414    0.3448 C.ar    1  LIG1       -0.0505
     20 C           3.7005    7.2424   -0.0039 C.ar    1  LIG1       -0.0178
     21 C           4.9936    9.7506   -0.0077 C.ar    1  LIG1        0.0173
     22 H           3.0976   10.5324    0.6274 H       1  LIG1        0.0625
     23 C           5.0499    7.3576   -0.3546 C.ar    1  LIG1       -0.0534
     24 C           5.6854    8.5869   -0.3583 C.ar    1  LIG1       -0.0505
     25 H           5.6023    6.4730   -0.6538 H       1  LIG1        0.0624
     26 H           1.9728    8.3466    0.6446 H       1  LIG1        0.0624
     27 H           6.7299    8.6451   -0.6456 H       1  LIG1        0.0625
     28 C           5.6643   11.0453   -0.0108 C.ar    1  LIG1        0.1348
     29 C           6.9361   11.4457   -0.2949 C.ar    1  LIG1       -0.0159
     30 C           6.9702   12.8609   -0.1133 C.ar    1  LIG1       -0.0233
     31 C           5.7207   13.2193    0.2674 C.ar    1  LIG1        0.0926
     32 O           4.9161   12.1310    0.3346 O.2     1  LIG1       -0.4629
     33 H           5.2612   14.1622    0.5169 H       1  LIG1        0.1029
     34 H           7.7560   10.8125   -0.5977 H       1  LIG1        0.0655
     35 H           7.8150   13.5191   -0.2492 H       1  LIG1        0.0649
@<TRIPOS>BOND
     1    12     9    1
     2    16     8    1
     3    25    23    1
     4    27    24    1
     5    34    29    1
     6     9     8   ar
     7     9    11   ar
     8     8    10   ar
     9     6     4   ar
    10     6     3   ar
    11     4     1   ar
    12    24    23   ar
    13    24    21   ar
    14    23    20   ar
    15    29    30   ar
    16    29    28   ar
    17    35    30    1
    18    30    31   ar
    19    28    21    1
    20    28    32   ar
    21    21    19   ar
    22    20    11    1
    23    20    18   ar
    24    11    14   ar
    25    10     3    1
    26    10    13   ar
    27     3     5   ar
    28     1     7    1
    29     1     2   ar
    30    31    32   ar
    31    31    33    1
    32    18    19   ar
    33    18    26    1
    34    19    22    1
    35     5     2   ar
    36    14    13   ar
    37    14    17    1
    38    13    15    1
