@<TRIPOS>MOLECULE
mol_data/opt/cam/geoms/mol2/84-512-.out
 32 35 0 0 0
SMALL
GASTEIGER

@<TRIPOS>ATOM
      1 C          -0.0966   -0.1349    0.0020 C.ar    1  LIG1        0.1605
      2 N           1.2352   -0.1406    0.0026 N.ar    1  LIG1       -0.1339
      3 C           1.0797    2.1283   -0.0000 C.ar    1  LIG1        0.2033
      4 N          -0.8667    0.9519    0.0005 N.ar    1  LIG1       -0.1339
      5 N           1.8397    1.0210    0.0016 N.ar    1  LIG1       -0.1258
      6 N          -0.2634    2.1141   -0.0006 N.ar    1  LIG1       -0.1258
      7 H          -0.5966   -1.0967    0.0029 H       1  LIG1        0.1085
      8 C           1.0189    4.6181   -0.0029 C.ar    1  LIG1       -0.0503
      9 C           1.6610    5.8432   -0.0040 C.ar    1  LIG1       -0.0529
     10 C           1.7584    3.4338   -0.0012 C.ar    1  LIG1        0.0227
     11 C           3.0592    5.9318   -0.0034 C.ar    1  LIG1       -0.0113
     12 H           1.0604    6.7469   -0.0054 H       1  LIG1        0.0624
     13 C           3.1541    3.5081   -0.0006 C.ar    1  LIG1       -0.0503
     14 C           3.7903    4.7348   -0.0017 C.ar    1  LIG1       -0.0529
     15 H           3.7317    2.5917    0.0008 H       1  LIG1        0.0625
     16 H          -0.0630    4.5667   -0.0033 H       1  LIG1        0.0625
     17 H           4.8735    4.7620   -0.0010 H       1  LIG1        0.0624
     18 C           3.7467    7.2256   -0.0046 C.ar    1  LIG1        0.0200
     19 C           5.0932    7.4790   -0.0059 C.ar    1  LIG1       -0.0462
     20 C           5.4184    8.8572   -0.0069 C.ar    1  LIG1       -0.0434
     21 C           4.3140    9.6653   -0.0063 C.ar    1  LIG1        0.0550
     22 S           2.8568    8.7266   -0.0045 S.2     1  LIG1       -0.0852
     23 H           5.8444    6.6998   -0.0064 H       1  LIG1        0.0629
     24 H           6.4273    9.2482   -0.0080 H       1  LIG1        0.0630
     25 C           4.2766   11.1093   -0.0069 C.ar    1  LIG1        0.1413
     26 C           3.2720   12.0308   -0.0070 C.ar    1  LIG1       -0.0154
     27 C           3.9003   13.3123   -0.0078 C.ar    1  LIG1       -0.0233
     28 C           5.2344   13.0766   -0.0082 C.ar    1  LIG1        0.0926
     29 O           5.4822   11.7433   -0.0077 O.2     1  LIG1       -0.4624
     30 H           6.1021   13.7165   -0.0089 H       1  LIG1        0.1029
     31 H           2.2124   11.8221   -0.0065 H       1  LIG1        0.0655
     32 H           3.4180   14.2779   -0.0080 H       1  LIG1        0.0649
@<TRIPOS>BOND
     1    30    28    1
     2    28    27   ar
     3    28    29   ar
     4    24    20    1
     5    32    27    1
     6    27    26   ar
     7    29    25   ar
     8    26    25   ar
     9    26    31    1
    10    25    21    1
    11    20    21   ar
    12    20    19   ar
    13    23    19    1
    14    21    22   ar
    15    19    18   ar
    16    12     9    1
    17    18    22   ar
    18    18    11    1
    19     9    11   ar
    20     9     8   ar
    21    11    14   ar
    22    16     8    1
    23     8    10   ar
    24    14    17    1
    25    14    13   ar
    26    10    13   ar
    27    10     3    1
    28    13    15    1
    29     6     3   ar
    30     6     4   ar
    31     3     5   ar
    32     4     1   ar
    33     5     2   ar
    34     1     2   ar
    35     1     7    1
