@<TRIPOS>MOLECULE
mol_data/opt/cam/geoms/mol2/84-55-.out
 32 35 0 0 0
SMALL
GASTEIGER

@<TRIPOS>ATOM
      1 C          -0.0742   -0.1698    0.0021 C.ar    1  LIG1        0.1605
      2 N           1.2576   -0.1671    0.0025 N.ar    1  LIG1       -0.1339
      3 C           1.0876    2.1008    0.0001 C.ar    1  LIG1        0.2033
      4 N          -0.8511    0.9121    0.0007 N.ar    1  LIG1       -0.1339
      5 N           1.8547    0.9984    0.0015 N.ar    1  LIG1       -0.1258
      6 N          -0.2552    2.0780   -0.0003 N.ar    1  LIG1       -0.1258
      7 H          -0.5680   -1.1347    0.0030 H       1  LIG1        0.1085
      8 C           1.0108    4.5901   -0.0026 C.ar    1  LIG1       -0.0503
      9 C           1.6449    5.8193   -0.0038 C.ar    1  LIG1       -0.0529
     10 C           1.7580    3.4107   -0.0011 C.ar    1  LIG1        0.0227
     11 C           3.0425    5.9168   -0.0034 C.ar    1  LIG1       -0.0113
     12 H           1.0387    6.7192   -0.0051 H       1  LIG1        0.0624
     13 C           3.1532    3.4938   -0.0007 C.ar    1  LIG1       -0.0503
     14 C           3.7814    4.7247   -0.0018 C.ar    1  LIG1       -0.0529
     15 H           3.7367    2.5812    0.0005 H       1  LIG1        0.0625
     16 H          -0.0708    4.5315   -0.0029 H       1  LIG1        0.0625
     17 H           4.8644    4.7589   -0.0013 H       1  LIG1        0.0624
     18 C           3.7214    7.2153   -0.0046 C.ar    1  LIG1        0.0199
     19 C           5.0658    7.4768   -0.0062 C.ar    1  LIG1       -0.0463
     20 C           5.3798    8.8574   -0.0071 C.ar    1  LIG1       -0.0458
     21 C           4.2748    9.6664   -0.0062 C.ar    1  LIG1        0.0265
     22 S           2.8241    8.7099   -0.0041 S.2     1  LIG1       -0.0877
     23 H           5.8233    6.7038   -0.0069 H       1  LIG1        0.0629
     24 H           6.3935    9.2397   -0.0085 H       1  LIG1        0.0629
     25 C           4.2103   11.1169   -0.0067 C.ar    1  LIG1        0.0259
     26 C           3.1045   11.9244   -0.0074 C.ar    1  LIG1       -0.0464
     27 C           3.4194   13.3112   -0.0076 C.ar    1  LIG1       -0.0541
     28 C           4.7593   13.5441   -0.0071 C.ar    1  LIG1       -0.0237
     29 S           5.6633   12.0765   -0.0065 S.2     1  LIG1       -0.0961
     30 H           5.2738   14.4940   -0.0072 H       1  LIG1        0.0693
     31 H           2.0917   11.5393   -0.0077 H       1  LIG1        0.0629
     32 H           2.6755   14.0979   -0.0082 H       1  LIG1        0.0623
@<TRIPOS>BOND
     1    24    20    1
     2    32    27    1
     3    31    26    1
     4    27    26   ar
     5    27    28   ar
     6    26    25   ar
     7    30    28    1
     8    28    29   ar
     9    20    19   ar
    10    20    21   ar
    11    23    19    1
    12    25    29   ar
    13    25    21    1
    14    19    18   ar
    15    21    22   ar
    16    12     9    1
    17    18    22   ar
    18    18    11    1
    19     9    11   ar
    20     9     8   ar
    21    11    14   ar
    22    16     8    1
    23     8    10   ar
    24    14    17    1
    25    14    13   ar
    26    10    13   ar
    27    10     3    1
    28    13    15    1
    29     6     3   ar
    30     6     4   ar
    31     3     5   ar
    32     4     1   ar
    33     5     2   ar
    34     1     2   ar
    35     1     7    1
