@<TRIPOS>MOLECULE
mol_data/opt/cam/geoms/mol2/84-513-.out
 33 36 0 0 0
SMALL
GASTEIGER

@<TRIPOS>ATOM
      1 C          -0.1041   -0.1508    0.0025 C.ar    1  LIG1        0.1605
      2 N           1.2277   -0.1580    0.0031 N.ar    1  LIG1       -0.1339
      3 C           1.0752    2.1118    0.0003 C.ar    1  LIG1        0.2033
      4 N          -0.8728    0.9370    0.0009 N.ar    1  LIG1       -0.1339
      5 N           1.8338    1.0031    0.0019 N.ar    1  LIG1       -0.1258
      6 N          -0.2682    2.0986   -0.0003 N.ar    1  LIG1       -0.1258
      7 H          -0.6052   -1.1120    0.0035 H       1  LIG1        0.1085
      8 C           1.0176    4.6017   -0.0028 C.ar    1  LIG1       -0.0503
      9 C           1.6610    5.8260   -0.0041 C.ar    1  LIG1       -0.0529
     10 C           1.7552    3.4161   -0.0010 C.ar    1  LIG1        0.0227
     11 C           3.0596    5.9133   -0.0036 C.ar    1  LIG1       -0.0113
     12 H           1.0619    6.7305   -0.0056 H       1  LIG1        0.0624
     13 C           3.1512    3.4891   -0.0005 C.ar    1  LIG1       -0.0503
     14 C           3.7887    4.7149   -0.0017 C.ar    1  LIG1       -0.0529
     15 H           3.7277    2.5721    0.0009 H       1  LIG1        0.0625
     16 H          -0.0644    4.5518   -0.0032 H       1  LIG1        0.0625
     17 H           4.8720    4.7406   -0.0011 H       1  LIG1        0.0624
     18 C           3.7474    7.2059   -0.0049 C.ar    1  LIG1        0.0200
     19 C           5.0929    7.4587   -0.0068 C.ar    1  LIG1       -0.0463
     20 C           5.4172    8.8376   -0.0079 C.ar    1  LIG1       -0.0449
     21 C           4.3169    9.6555   -0.0067 C.ar    1  LIG1        0.0360
     22 S           2.8620    8.7099   -0.0041 S.2     1  LIG1       -0.0868
     23 H           5.8454    6.6806   -0.0078 H       1  LIG1        0.0629
     24 H           6.4382    9.2004   -0.0097 H       1  LIG1        0.0630
     25 C           4.2543   11.1018   -0.0073 C.ar    1  LIG1        0.0531
     26 C           3.1763   11.9654   -0.0084 C.ar    1  LIG1       -0.0359
     27 C           3.6802   13.2874   -0.0085 C.ar    1  LIG1       -0.0438
     28 C           5.0504   13.2018   -0.0075 C.ar    1  LIG1        0.0022
     29 N           5.3897   11.8784   -0.0067 N.ar    1  LIG1       -0.3603
     30 H           6.3309   11.5237   -0.0054 H       1  LIG1        0.1653
     31 H           5.8069   13.9713   -0.0072 H       1  LIG1        0.0807
     32 H           2.1368   11.6705   -0.0092 H       1  LIG1        0.0639
     33 H           3.1026   14.1996   -0.0093 H       1  LIG1        0.0633
@<TRIPOS>BOND
     1    24    20    1
     2    33    27    1
     3    32    26    1
     4    27    26   ar
     5    27    28   ar
     6    26    25   ar
     7    20    19   ar
     8    20    21   ar
     9    23    19    1
    10    28    31    1
    11    28    29   ar
    12    25    29   ar
    13    25    21    1
    14    19    18   ar
    15    29    30    1
    16    21    22   ar
    17    12     9    1
    18    18    22   ar
    19    18    11    1
    20     9    11   ar
    21     9     8   ar
    22    11    14   ar
    23    16     8    1
    24     8    10   ar
    25    14    17    1
    26    14    13   ar
    27    10    13   ar
    28    10     3    1
    29    13    15    1
    30     6     3   ar
    31     6     4   ar
    32     3     5   ar
    33     4     1   ar
    34     5     2   ar
    35     1     2   ar
    36     1     7    1
