@<TRIPOS>MOLECULE
mol_data/opt/cam/geoms/mol2/84-5.out
 25 27 0 0 0
SMALL
GASTEIGER

@<TRIPOS>ATOM
      1 C          -0.0818   -0.0702    0.0014 C.ar    1  LIG1        0.1605
      2 N           1.2500   -0.0766    0.0017 N.ar    1  LIG1       -0.1339
      3 C           1.0957    2.1925   -0.0002 C.ar    1  LIG1        0.2033
      4 N          -0.8513    1.0169    0.0004 N.ar    1  LIG1       -0.1339
      5 N           1.8551    1.0849    0.0008 N.ar    1  LIG1       -0.1258
      6 N          -0.2473    2.1788   -0.0004 N.ar    1  LIG1       -0.1258
      7 H          -0.5822   -1.0317    0.0021 H       1  LIG1        0.1085
      8 C           1.0357    4.6825   -0.0023 C.ar    1  LIG1       -0.0503
      9 C           1.6782    5.9076   -0.0032 C.ar    1  LIG1       -0.0529
     10 C           1.7749    3.4981   -0.0012 C.ar    1  LIG1        0.0227
     11 C           3.0759    5.9958   -0.0030 C.ar    1  LIG1       -0.0113
     12 H           1.0780    6.8115   -0.0042 H       1  LIG1        0.0624
     13 C           3.1704    3.5720   -0.0009 C.ar    1  LIG1       -0.0503
     14 C           3.8064    4.7993   -0.0018 C.ar    1  LIG1       -0.0529
     15 H           3.7483    2.6559   -0.0000 H       1  LIG1        0.0625
     16 H          -0.0462    4.6313   -0.0025 H       1  LIG1        0.0625
     17 H           4.8895    4.8268   -0.0014 H       1  LIG1        0.0624
     18 C           3.7643    7.2922   -0.0040 C.ar    1  LIG1        0.0193
     19 C           5.1111    7.5421   -0.0058 C.ar    1  LIG1       -0.0469
     20 C           5.4348    8.9261   -0.0064 C.ar    1  LIG1       -0.0541
     21 C           4.3304    9.7204   -0.0050 C.ar    1  LIG1       -0.0237
     22 S           2.8806    8.7939   -0.0027 S.2     1  LIG1       -0.0967
     23 H           4.2821   10.7997   -0.0050 H       1  LIG1        0.0693
     24 H           5.8613    6.7619   -0.0069 H       1  LIG1        0.0629
     25 H           6.4478    9.3085   -0.0078 H       1  LIG1        0.0623
@<TRIPOS>BOND
     1    25    20    1
     2    24    19    1
     3    20    19   ar
     4    20    21   ar
     5    19    18   ar
     6    23    21    1
     7    21    22   ar
     8    12     9    1
     9    18    11    1
    10    18    22   ar
    11     9    11   ar
    12     9     8   ar
    13    11    14   ar
    14    16     8    1
    15     8    10   ar
    16    14    17    1
    17    14    13   ar
    18    10    13   ar
    19    10     3    1
    20    13    15    1
    21     6     3   ar
    22     6     4   ar
    23     3     5   ar
    24     4     1   ar
    25     5     2   ar
    26     1     2   ar
    27     1     7    1
