@<TRIPOS>MOLECULE
mol_data/opt/cam/geoms/mol2/84-5-.out
 25 27 0 0 0
SMALL
GASTEIGER

@<TRIPOS>ATOM
      1 C          -0.0494   -0.0868    0.0012 C.ar    1  LIG1        0.1605
      2 N           1.2825   -0.0760    0.0014 N.ar    1  LIG1       -0.1339
      3 C           1.0989    2.1909   -0.0003 C.ar    1  LIG1        0.2033
      4 N          -0.8328    0.9902    0.0004 N.ar    1  LIG1       -0.1339
      5 N           1.8725    1.0931    0.0006 N.ar    1  LIG1       -0.1258
      6 N          -0.2437    2.1600   -0.0004 N.ar    1  LIG1       -0.1258
      7 H          -0.5373   -1.0547    0.0019 H       1  LIG1        0.1085
      8 C           1.0060    4.6807   -0.0022 C.ar    1  LIG1       -0.0503
      9 C           1.6304    5.9139   -0.0030 C.ar    1  LIG1       -0.0529
     10 C           1.7614    3.5050   -0.0012 C.ar    1  LIG1        0.0227
     11 C           3.0281    6.0203   -0.0029 C.ar    1  LIG1       -0.0113
     12 H           1.0197    6.8090   -0.0039 H       1  LIG1        0.0624
     13 C           3.1546    3.5972   -0.0011 C.ar    1  LIG1       -0.0503
     14 C           3.7733    4.8345   -0.0019 C.ar    1  LIG1       -0.0529
     15 H           3.7452    2.6893   -0.0003 H       1  LIG1        0.0625
     16 H          -0.0751    4.6143   -0.0023 H       1  LIG1        0.0625
     17 H           4.8575    4.8756   -0.0017 H       1  LIG1        0.0624
     18 C           3.6780    7.3364   -0.0037 C.ar    1  LIG1        0.0193
     19 C           3.0938    8.5754   -0.0035 C.ar    1  LIG1       -0.0469
     20 C           4.0278    9.6468   -0.0044 C.ar    1  LIG1       -0.0541
     21 C           5.3177    9.2147   -0.0054 C.ar    1  LIG1       -0.0237
     22 S           5.4130    7.4968   -0.0054 S.2     1  LIG1       -0.0967
     23 H           6.2218    9.8061   -0.0063 H       1  LIG1        0.0693
     24 H           2.0223    8.7283   -0.0024 H       1  LIG1        0.0629
     25 H           3.7462   10.6923   -0.0043 H       1  LIG1        0.0623
@<TRIPOS>BOND
     1    23    21    1
     2    21    22   ar
     3    21    20   ar
     4    22    18   ar
     5    20    25    1
     6    20    19   ar
     7    12     9    1
     8    18    19   ar
     9    18    11    1
    10    19    24    1
    11     9    11   ar
    12     9     8   ar
    13    11    14   ar
    14    16     8    1
    15     8    10   ar
    16    14    17    1
    17    14    13   ar
    18    10    13   ar
    19    10     3    1
    20    13    15    1
    21     6     3   ar
    22     6     4   ar
    23     3     5   ar
    24     4     1   ar
    25     5     2   ar
    26     1     2   ar
    27     1     7    1
