@<TRIPOS>MOLECULE
mol_data/opt/cam/geoms/mol2/84-8.out
 24 26 0 0 0
SMALL
GASTEIGER

@<TRIPOS>ATOM
      1 C          -0.0518   -0.0517    0.0013 C.ar    1  LIG1        0.1605
      2 N           1.2801   -0.0499    0.0011 N.ar    1  LIG1       -0.1339
      3 C           1.1099    2.2166   -0.0003 C.ar    1  LIG1        0.2033
      4 N          -0.8288    1.0301    0.0007 N.ar    1  LIG1       -0.1339
      5 N           1.8770    1.1162    0.0003 N.ar    1  LIG1       -0.1258
      6 N          -0.2313    2.1960   -0.0001 N.ar    1  LIG1       -0.1258
      7 H          -0.5459   -1.0165    0.0019 H       1  LIG1        0.1085
      8 C           1.0284    4.7066   -0.0019 C.ar    1  LIG1       -0.0503
      9 C           1.6594    5.9386   -0.0027 C.ar    1  LIG1       -0.0503
     10 C           1.7830    3.5309   -0.0012 C.ar    1  LIG1        0.0227
     11 C           3.0544    6.0133   -0.0029 C.ar    1  LIG1        0.0227
     12 H           1.0799    6.8533   -0.0033 H       1  LIG1        0.0625
     13 C           3.1781    3.6056   -0.0013 C.ar    1  LIG1       -0.0503
     14 C           3.8090    4.8376   -0.0022 C.ar    1  LIG1       -0.0503
     15 H           3.7575    2.6908   -0.0008 H       1  LIG1        0.0625
     16 H          -0.0525    4.6422   -0.0018 H       1  LIG1        0.0625
     17 H           4.8900    4.9020   -0.0023 H       1  LIG1        0.0625
     18 C           3.7276    7.3276   -0.0038 C.ar    1  LIG1        0.2033
     19 N           5.0687    7.3482   -0.0040 N.ar    1  LIG1       -0.1258
     20 C           4.8892    9.5958   -0.0055 C.ar    1  LIG1        0.1605
     21 N           2.9604    8.4279   -0.0044 N.ar    1  LIG1       -0.1258
     22 N           5.6662    8.5140   -0.0049 N.ar    1  LIG1       -0.1339
     23 N           3.5573    9.5941   -0.0052 N.ar    1  LIG1       -0.1339
     24 H           5.3834   10.5607   -0.0061 H       1  LIG1        0.1085
@<TRIPOS>BOND
     1    24    20    1
     2    20    23   ar
     3    20    22   ar
     4    23    21   ar
     5    22    19   ar
     6    21    18   ar
     7    19    18   ar
     8    18    11    1
     9    12     9    1
    10    11     9   ar
    11    11    14   ar
    12     9     8   ar
    13    17    14    1
    14    14    13   ar
    15     8    16    1
    16     8    10   ar
    17    13    10   ar
    18    13    15    1
    19    10     3    1
    20     3     6   ar
    21     3     5   ar
    22     6     4   ar
    23     5     2   ar
    24     4     1   ar
    25     2     1   ar
    26     1     7    1
