@<TRIPOS>MOLECULE
mol_data/opt/cam/geoms/mol2/84.out
 18 19 0 0 0
SMALL
GASTEIGER

@<TRIPOS>ATOM
      1 C           0.0073   -0.0295   -0.0005 C.ar    1  LIG1        0.1605
      2 N           1.3387   -0.0034   -0.0001 N.ar    1  LIG1       -0.1339
      3 C           1.1293    2.2614    0.0004 C.ar    1  LIG1        0.2033
      4 N          -0.7884    1.0383   -0.0006 N.ar    1  LIG1       -0.1339
      5 N           1.9149    1.1730    0.0004 N.ar    1  LIG1       -0.1258
      6 N          -0.2123    2.2148   -0.0001 N.ar    1  LIG1       -0.1258
      7 H          -0.4695   -1.0030   -0.0009 H       1  LIG1        0.1085
      8 C           3.1719    3.6851    0.0015 C.ar    1  LIG1       -0.0509
      9 C           3.7785    4.9324    0.0020 C.ar    1  LIG1       -0.0611
     10 C           1.7782    3.5865    0.0009 C.ar    1  LIG1        0.0226
     11 C           3.0029    6.0871    0.0019 C.ar    1  LIG1       -0.0617
     12 H           4.8610    5.0036    0.0024 H       1  LIG1        0.0618
     13 C           1.0017    4.7479    0.0009 C.ar    1  LIG1       -0.0509
     14 C           1.6151    5.9919    0.0014 C.ar    1  LIG1       -0.0611
     15 H          -0.0780    4.6614    0.0004 H       1  LIG1        0.0625
     16 H           3.4802    7.0617    0.0023 H       1  LIG1        0.0618
     17 H           3.7654    2.7790    0.0015 H       1  LIG1        0.0625
     18 H           1.0078    6.8908    0.0013 H       1  LIG1        0.0618
@<TRIPOS>BOND
     1     7     1    1
     2     4     1   ar
     3     4     6   ar
     4     1     2   ar
     5     6     3   ar
     6     2     5   ar
     7     3     5   ar
     8     3    10    1
     9    15    13    1
    10    13    10   ar
    11    13    14   ar
    12    10     8   ar
    13    18    14    1
    14    14    11   ar
    15     8    17    1
    16     8     9   ar
    17    11     9   ar
    18    11    16    1
    19     9    12    1
