@<TRIPOS>MOLECULE
mol_data/opt/cam/geoms/mol2/8412.out
 25 27 0 0 0
SMALL
GASTEIGER

@<TRIPOS>ATOM
      1 C           0.0077   -0.0896   -0.0013 C.ar    1  LIG1        0.1605
      2 N           1.3389   -0.0519   -0.0007 N.ar    1  LIG1       -0.1339
      3 C           1.1099    2.2113    0.0003 C.ar    1  LIG1        0.2033
      4 N          -0.7972    0.9716   -0.0012 N.ar    1  LIG1       -0.1339
      5 N           1.9052    1.1290    0.0001 N.ar    1  LIG1       -0.1258
      6 N          -0.2321    2.1529   -0.0004 N.ar    1  LIG1       -0.1258
      7 H          -0.4607   -1.0671   -0.0020 H       1  LIG1        0.1085
      8 C           3.1394    3.6549    0.0019 C.ar    1  LIG1       -0.0503
      9 C           3.7356    4.9018    0.0028 C.ar    1  LIG1       -0.0504
     10 C           1.7459    3.5386    0.0012 C.ar    1  LIG1        0.0227
     11 C           2.9589    6.0668    0.0029 C.ar    1  LIG1        0.0173
     12 H           4.8177    4.9738    0.0033 H       1  LIG1        0.0625
     13 C           0.9662    4.6979    0.0013 C.ar    1  LIG1       -0.0503
     14 C           1.5649    5.9453    0.0022 C.ar    1  LIG1       -0.0504
     15 H          -0.1132    4.6080    0.0008 H       1  LIG1        0.0625
     16 H           3.7445    2.7566    0.0018 H       1  LIG1        0.0625
     17 H           0.9545    6.8402    0.0023 H       1  LIG1        0.0625
     18 C           3.5925    7.3783    0.0038 C.ar    1  LIG1        0.1348
     19 C           4.8910    7.7957    0.0045 C.ar    1  LIG1       -0.0159
     20 C           4.8628    9.2215    0.0052 C.ar    1  LIG1       -0.0233
     21 C           3.5529    9.5691    0.0049 C.ar    1  LIG1        0.0926
     22 O           2.7694    8.4653    0.0041 O.2     1  LIG1       -0.4629
     23 H           3.0357   10.5153    0.0051 H       1  LIG1        0.1029
     24 H           5.7675    7.1657    0.0045 H       1  LIG1        0.0655
     25 H           5.7069    9.8943    0.0059 H       1  LIG1        0.0649
@<TRIPOS>BOND
     1     7     1    1
     2     1     4   ar
     3     1     2   ar
     4     4     6   ar
     5     2     5   ar
     6     6     3   ar
     7     5     3   ar
     8     3    10    1
     9    15    13    1
    10    10    13   ar
    11    10     8   ar
    12    13    14   ar
    13    16     8    1
    14     8     9   ar
    15    14    17    1
    16    14    11   ar
    17     9    11   ar
    18     9    12    1
    19    11    18    1
    20    18    22   ar
    21    18    19   ar
    22    22    21   ar
    23    24    19    1
    24    19    20   ar
    25    21    23    1
    26    21    20   ar
    27    20    25    1
