@<TRIPOS>MOLECULE
mol_data/opt/cam/geoms/mol2/8412-.out
 25 27 0 0 0
SMALL
GASTEIGER

@<TRIPOS>ATOM
      1 C          -0.0345   -0.0690   -0.0013 C.ar    1  LIG1        0.1605
      2 N           1.2973   -0.0507   -0.0007 N.ar    1  LIG1       -0.1339
      3 C           1.1015    2.2154    0.0003 C.ar    1  LIG1        0.2033
      4 N          -0.8237    1.0037   -0.0011 N.ar    1  LIG1       -0.1339
      5 N           1.8809    1.1215    0.0001 N.ar    1  LIG1       -0.1258
      6 N          -0.2411    2.1767   -0.0003 N.ar    1  LIG1       -0.1258
      7 H          -0.5170   -1.0396   -0.0020 H       1  LIG1        0.1085
      8 C           3.1502    3.6318    0.0019 C.ar    1  LIG1       -0.0503
      9 C           3.7654    4.8712    0.0028 C.ar    1  LIG1       -0.0504
     10 C           1.7566    3.5334    0.0012 C.ar    1  LIG1        0.0227
     11 C           3.0036    6.0450    0.0029 C.ar    1  LIG1        0.0173
     12 H           4.8464    4.9405    0.0033 H       1  LIG1        0.0625
     13 C           0.9910    4.7036    0.0014 C.ar    1  LIG1       -0.0503
     14 C           1.6073    5.9406    0.0022 C.ar    1  LIG1       -0.0504
     15 H          -0.0895    4.6280    0.0008 H       1  LIG1        0.0625
     16 H           3.7434    2.7256    0.0018 H       1  LIG1        0.0625
     17 H           0.9984    6.8380    0.0023 H       1  LIG1        0.0625
     18 C           3.6478    7.3513    0.0038 C.ar    1  LIG1        0.1348
     19 C           3.1781    8.6318    0.0043 C.ar    1  LIG1       -0.0159
     20 C           4.3196    9.4867    0.0052 C.ar    1  LIG1       -0.0233
     21 C           5.3994    8.6678    0.0052 C.ar    1  LIG1        0.0926
     22 O           5.0111    7.3710    0.0043 O.2     1  LIG1       -0.4629
     23 H           6.4635    8.8421    0.0057 H       1  LIG1        0.1029
     24 H           2.1422    8.9352    0.0041 H       1  LIG1        0.0655
     25 H           4.3306   10.5661    0.0057 H       1  LIG1        0.0649
@<TRIPOS>BOND
     1     7     1    1
     2     1     4   ar
     3     1     2   ar
     4     4     6   ar
     5     2     5   ar
     6     6     3   ar
     7     5     3   ar
     8     3    10    1
     9    15    13    1
    10    10    13   ar
    11    10     8   ar
    12    13    14   ar
    13    16     8    1
    14     8     9   ar
    15    14    17    1
    16    14    11   ar
    17     9    11   ar
    18     9    12    1
    19    11    18    1
    20    18    22   ar
    21    18    19   ar
    22    24    19    1
    23    22    21   ar
    24    19    20   ar
    25    21    20   ar
    26    21    23    1
    27    20    25    1
