@<TRIPOS>MOLECULE
mol_data/opt/cam/geoms/mol2/8413-8.out
 32 35 0 0 0
SMALL
GASTEIGER

@<TRIPOS>ATOM
      1 C          -0.0763   -0.1127   -0.0014 C.ar    1  LIG1        0.1605
      2 N           1.2556   -0.0951    0.0001 N.ar    1  LIG1       -0.1339
      3 C           1.0598    2.1703    0.0002 C.ar    1  LIG1        0.2033
      4 N          -0.8653    0.9603   -0.0022 N.ar    1  LIG1       -0.1339
      5 N           1.8393    1.0771    0.0009 N.ar    1  LIG1       -0.1258
      6 N          -0.2822    2.1331   -0.0013 N.ar    1  LIG1       -0.1258
      7 H          -0.5593   -1.0831   -0.0022 H       1  LIG1        0.1085
      8 C           3.1088    3.5854    0.0028 C.ar    1  LIG1       -0.0503
      9 C           3.7229    4.8252    0.0038 C.ar    1  LIG1       -0.0520
     10 C           1.7160    3.4882    0.0012 C.ar    1  LIG1        0.0227
     11 C           2.9703    6.0063    0.0030 C.ar    1  LIG1       -0.0017
     12 H           4.8072    4.8598    0.0052 H       1  LIG1        0.0624
     13 C           0.9546    4.6603    0.0004 C.ar    1  LIG1       -0.0503
     14 C           1.5735    5.8959    0.0013 C.ar    1  LIG1       -0.0520
     15 H          -0.1261    4.5881   -0.0009 H       1  LIG1        0.0625
     16 H           3.7023    2.6795    0.0035 H       1  LIG1        0.0625
     17 H           0.9634    6.7916    0.0006 H       1  LIG1        0.0624
     18 C           3.6024    7.3240    0.0039 C.ar    1  LIG1        0.0470
     19 C           3.0332    8.5943    0.0048 C.ar    1  LIG1       -0.0357
     20 C           4.0715    9.5378    0.0057 C.ar    1  LIG1       -0.0326
     21 C           5.2605    8.8303    0.0049 C.ar    1  LIG1        0.0879
     22 N           4.9556    7.4957    0.0040 N.ar    1  LIG1       -0.3516
     23 H           5.6684    6.7825    0.0033 H       1  LIG1        0.1660
     24 H           1.9761    8.8119    0.0051 H       1  LIG1        0.0639
     25 H           3.9883   10.6137    0.0066 H       1  LIG1        0.0640
     26 C           6.6336    9.2672    0.0050 C.ar    1  LIG1        0.2193
     27 N           7.5792    8.3111    0.0042 N.ar    1  LIG1       -0.1243
     28 C           9.0691   10.0015    0.0052 C.ar    1  LIG1        0.1605
     29 N           6.8860   10.5900    0.0060 N.ar    1  LIG1       -0.1243
     30 N           8.8326    8.6918    0.0043 N.ar    1  LIG1       -0.1338
     31 N           8.1391   10.9604    0.0062 N.ar    1  LIG1       -0.1338
     32 H          10.1053   10.3186    0.0055 H       1  LIG1        0.1085
@<TRIPOS>BOND
     1     4     1   ar
     2     4     6   ar
     3     7     1    1
     4     1     2   ar
     5     6     3   ar
     6    15    13    1
     7     2     5   ar
     8     3     5   ar
     9     3    10    1
    10    13    10   ar
    11    13    14   ar
    12    17    14    1
    13    10     8   ar
    14    14    11   ar
    15     8    16    1
    16     8     9   ar
    17    11     9   ar
    18    11    18    1
    19    23    22    1
    20     9    12    1
    21    18    22   ar
    22    18    19   ar
    23    22    21   ar
    24    27    30   ar
    25    27    26   ar
    26    30    28   ar
    27    19    24    1
    28    19    20   ar
    29    21    26    1
    30    21    20   ar
    31    26    29   ar
    32    28    32    1
    33    28    31   ar
    34    20    25    1
    35    29    31   ar
