@<TRIPOS>MOLECULE
mol_data/opt/cam/geoms/mol2/844-.out
 28 30 0 0 0
SMALL
GASTEIGER

@<TRIPOS>ATOM
      1 C          -0.0455   -0.1092   -0.0048 C.ar    1  LIG1        0.1605
      2 N           1.2396   -0.0638    0.3417 N.ar    1  LIG1       -0.1339
      3 C           1.0820    2.1794   -0.0010 C.ar    1  LIG1        0.2033
      4 N          -0.7922    0.9383   -0.3492 N.ar    1  LIG1       -0.1339
      5 N           1.8190    1.1109    0.3431 N.ar    1  LIG1       -0.1258
      6 N          -0.2138    2.1136   -0.3471 N.ar    1  LIG1       -0.1258
      7 H          -0.5247   -1.0815   -0.0056 H       1  LIG1        0.1085
      8 C           3.0776    3.6260    0.3584 C.ar    1  LIG1       -0.0504
      9 C           3.6855    4.8700    0.3593 C.ar    1  LIG1       -0.0534
     10 C           1.7333    3.5008    0.0003 C.ar    1  LIG1        0.0227
     11 C           2.9757    6.0216    0.0029 C.ar    1  LIG1       -0.0178
     12 H           4.7229    4.9555    0.6642 H       1  LIG1        0.0624
     13 C           1.0141    4.6438   -0.3566 C.ar    1  LIG1       -0.0504
     14 C           1.6303    5.8836   -0.3549 C.ar    1  LIG1       -0.0534
     15 H          -0.0262    4.5462   -0.6420 H       1  LIG1        0.0625
     16 H           3.6336    2.7411    0.6429 H       1  LIG1        0.0625
     17 H           1.0666    6.7589   -0.6588 H       1  LIG1        0.0624
     18 C           2.9420    8.4881    0.4369 C.ar    1  LIG1       -0.0540
     19 C           3.5558    9.7334    0.4389 C.ar    1  LIG1       -0.0612
     20 C           3.6311    7.3514    0.0042 C.ar    1  LIG1       -0.0179
     21 C           4.8704    9.8658    0.0067 C.ar    1  LIG1       -0.0617
     22 H           3.0070   10.6027    0.7865 H       1  LIG1        0.0618
     23 C           4.9527    7.4979   -0.4272 C.ar    1  LIG1       -0.0540
     24 C           5.5665    8.7433   -0.4267 C.ar    1  LIG1       -0.0612
     25 H           5.4955    6.6309   -0.7894 H       1  LIG1        0.0624
     26 H           5.3500   10.8390    0.0077 H       1  LIG1        0.0618
     27 H           1.9235    8.3898    0.7981 H       1  LIG1        0.0624
     28 H           6.5904    8.8381   -0.7734 H       1  LIG1        0.0618
@<TRIPOS>BOND
     1    25    23    1
     2    28    24    1
     3    17    14    1
     4    15    13    1
     5    23    24   ar
     6    23    20   ar
     7    24    21   ar
     8    13    14   ar
     9    13    10   ar
    10    14    11   ar
    11     4     6   ar
    12     4     1   ar
    13     6     3   ar
    14     7     1    1
    15     1     2   ar
    16     3    10    1
    17     3     5   ar
    18    10     8   ar
    19    11    20    1
    20    11     9   ar
    21    20    18   ar
    22    21    26    1
    23    21    19   ar
    24     2     5   ar
    25     8     9   ar
    26     8    16    1
    27     9    12    1
    28    18    19   ar
    29    18    27    1
    30    19    22    1
