@<TRIPOS>MOLECULE
mol_data/opt/cam/geoms/mol2/84412.out
 35 38 0 0 0
SMALL
GASTEIGER

@<TRIPOS>ATOM
      1 C          -0.0192   -0.1937    0.0009 C.ar    1  LIG1        0.1605
      2 N           1.2458   -0.1213    0.4111 N.ar    1  LIG1       -0.1339
      3 C           1.0769    2.1101    0.0029 C.ar    1  LIG1        0.2033
      4 N          -0.7606    0.8341   -0.4086 N.ar    1  LIG1       -0.1339
      5 N           1.8091    1.0612    0.4119 N.ar    1  LIG1       -0.1258
      6 N          -0.1985    2.0171   -0.4073 N.ar    1  LIG1       -0.1258
      7 H          -0.4849   -1.1725    0.0001 H       1  LIG1        0.1085
      8 C           3.0326    3.5936    0.4256 C.ar    1  LIG1       -0.0504
      9 C           3.6233    4.8455    0.4261 C.ar    1  LIG1       -0.0534
     10 C           1.7097    3.4402    0.0042 C.ar    1  LIG1        0.0227
     11 C           2.9173    5.9786    0.0066 C.ar    1  LIG1       -0.0178
     12 H           4.6426    4.9527    0.7813 H       1  LIG1        0.0624
     13 C           0.9944    4.5641   -0.4159 C.ar    1  LIG1       -0.0504
     14 C           1.5931    5.8122   -0.4141 C.ar    1  LIG1       -0.0534
     15 H          -0.0289    4.4448   -0.7506 H       1  LIG1        0.0625
     16 H           3.5852    2.7238    0.7594 H       1  LIG1        0.0625
     17 H           1.0335    6.6713   -0.7681 H       1  LIG1        0.0624
     18 C           4.8981    7.4748   -0.3412 C.ar    1  LIG1       -0.0534
     19 C           5.4939    8.7240   -0.3423 C.ar    1  LIG1       -0.0505
     20 C           3.5529    7.3157    0.0081 C.ar    1  LIG1       -0.0178
     21 C           4.7649    9.8642    0.0097 C.ar    1  LIG1        0.0173
     22 H           6.5362    8.8161   -0.6287 H       1  LIG1        0.0625
     23 C           2.8286    8.4587    0.3579 C.ar    1  LIG1       -0.0534
     24 C           3.4207    9.7111    0.3610 C.ar    1  LIG1       -0.0505
     25 H           1.7901    8.3627    0.6572 H       1  LIG1        0.0624
     26 H           5.4790    6.6091   -0.6416 H       1  LIG1        0.0624
     27 H           2.8443   10.5835    0.6449 H       1  LIG1        0.0625
     28 C           5.3935   11.1798    0.0096 C.ar    1  LIG1        0.1348
     29 C           6.6521   11.6215   -0.2726 C.ar    1  LIG1       -0.0159
     30 C           6.6405   13.0367   -0.0886 C.ar    1  LIG1       -0.0233
     31 C           5.3798   13.3540    0.2917 C.ar    1  LIG1        0.0926
     32 O           4.6106   12.2403    0.3563 O.2     1  LIG1       -0.4629
     33 H           4.8900   14.2812    0.5424 H       1  LIG1        0.1029
     34 H           7.4922   11.0155   -0.5758 H       1  LIG1        0.0655
     35 H           7.4637   13.7220   -0.2225 H       1  LIG1        0.0649
@<TRIPOS>BOND
     1    17    14    1
     2    15    13    1
     3    26    18    1
     4    22    19    1
     5    34    29    1
     6    13    14   ar
     7    13    10   ar
     8    14    11   ar
     9     4     6   ar
    10     4     1   ar
    11     6     3   ar
    12    19    18   ar
    13    19    21   ar
    14    18    20   ar
    15    29    30   ar
    16    29    28   ar
    17    35    30    1
    18    30    31   ar
    19     7     1    1
    20     1     2   ar
    21     3    10    1
    22     3     5   ar
    23    10     8   ar
    24    11    20    1
    25    11     9   ar
    26    20    23   ar
    27    28    21    1
    28    28    32   ar
    29    21    24   ar
    30    31    32   ar
    31    31    33    1
    32    23    24   ar
    33    23    25    1
    34    24    27    1
    35     2     5   ar
    36     8     9   ar
    37     8    16    1
    38     9    12    1
