@<TRIPOS>MOLECULE
mol_data/opt/cam/geoms/mol2/8448-.out
 34 37 0 0 0
SMALL
GASTEIGER

@<TRIPOS>ATOM
      1 C          -0.0319   -0.1749   -0.0002 C.ar    1  LIG1        0.1605
      2 N           1.2411   -0.1111    0.3865 N.ar    1  LIG1       -0.1339
      3 C           1.0727    2.1237    0.0017 C.ar    1  LIG1        0.2033
      4 N          -0.7772    0.8593   -0.3859 N.ar    1  LIG1       -0.1339
      5 N           1.8086    1.0694    0.3871 N.ar    1  LIG1       -0.1258
      6 N          -0.2101    2.0401   -0.3847 N.ar    1  LIG1       -0.1258
      7 H          -0.5013   -1.1519   -0.0010 H       1  LIG1        0.1085
      8 C           3.0429    3.5954    0.3981 C.ar    1  LIG1       -0.0504
      9 C           3.6393    4.8450    0.3973 C.ar    1  LIG1       -0.0534
     10 C           1.7112    3.4524    0.0027 C.ar    1  LIG1        0.0227
     11 C           2.9272    5.9831    0.0047 C.ar    1  LIG1       -0.0178
     12 H           4.6668    4.9448    0.7299 H       1  LIG1        0.0624
     13 C           0.9909    4.5821   -0.3916 C.ar    1  LIG1       -0.0504
     14 C           1.5939    5.8285   -0.3888 C.ar    1  LIG1       -0.0534
     15 H          -0.0395    4.4695   -0.7057 H       1  LIG1        0.0625
     16 H           3.5986    2.7201    0.7115 H       1  LIG1        0.0625
     17 H           1.0299    6.6936   -0.7203 H       1  LIG1        0.0624
     18 C           4.9025    7.4737   -0.3861 C.ar    1  LIG1       -0.0534
     19 C           5.5053    8.7202   -0.3868 C.ar    1  LIG1       -0.0504
     20 C           3.5688    7.3185    0.0059 C.ar    1  LIG1       -0.0178
     21 C           4.7845    9.8493    0.0080 C.ar    1  LIG1        0.0227
     22 H           6.5360    8.8333   -0.6997 H       1  LIG1        0.0625
     23 C           2.8560    8.4561    0.3988 C.ar    1  LIG1       -0.0534
     24 C           3.4522    9.7057    0.4016 C.ar    1  LIG1       -0.0504
     25 H           1.8280    8.3559    0.7298 H       1  LIG1        0.0624
     26 H           5.4669    6.6091   -0.7181 H       1  LIG1        0.0624
     27 H           2.8961   10.5806    0.7152 H       1  LIG1        0.0625
     28 C           5.4228   11.1781    0.0091 C.ar    1  LIG1        0.2033
     29 N           4.6861   12.2319    0.3945 N.ar    1  LIG1       -0.1258
     30 C           6.5267   13.4770    0.0101 C.ar    1  LIG1        0.1605
     31 N           6.7059   11.2624   -0.3760 N.ar    1  LIG1       -0.1258
     32 N           5.2534   13.4126    0.3954 N.ar    1  LIG1       -0.1339
     33 N           7.2727   12.4433   -0.3757 N.ar    1  LIG1       -0.1339
     34 H           6.9960   14.4541    0.0108 H       1  LIG1        0.1085
@<TRIPOS>BOND
     1    17    14    1
     2    26    18    1
     3    15    13    1
     4    22    19    1
     5    13    14   ar
     6    13    10   ar
     7    14    11   ar
     8    19    18   ar
     9    19    21   ar
    10    18    20   ar
    11     4     6   ar
    12     4     1   ar
    13     6     3   ar
    14    31    33   ar
    15    31    28   ar
    16    33    30   ar
    17     7     1    1
    18     1     2   ar
    19     3    10    1
    20     3     5   ar
    21    10     8   ar
    22    11    20    1
    23    11     9   ar
    24    20    23   ar
    25    21    28    1
    26    21    24   ar
    27    28    29   ar
    28    30    34    1
    29    30    32   ar
    30     2     5   ar
    31    29    32   ar
    32     9     8   ar
    33     9    12    1
    34     8    16    1
    35    23    24   ar
    36    23    25    1
    37    24    27    1
