@<TRIPOS>MOLECULE
mol_data/opt/cam/geoms/mol2/845-.out
 25 27 0 0 0
SMALL
GASTEIGER

@<TRIPOS>ATOM
      1 C          -0.0071   -0.1076   -0.0014 C.ar    1  LIG1        0.1605
      2 N           1.3243   -0.0711   -0.0005 N.ar    1  LIG1       -0.1339
      3 C           1.0971    2.1918    0.0002 C.ar    1  LIG1        0.2033
      4 N          -0.8111    0.9542   -0.0016 N.ar    1  LIG1       -0.1339
      5 N           1.8917    1.1091    0.0003 N.ar    1  LIG1       -0.1258
      6 N          -0.2447    2.1350   -0.0007 N.ar    1  LIG1       -0.1258
      7 H          -0.4763   -1.0847   -0.0022 H       1  LIG1        0.1085
      8 C           3.1253    3.6375    0.0022 C.ar    1  LIG1       -0.0503
      9 C           3.7202    4.8864    0.0031 C.ar    1  LIG1       -0.0529
     10 C           1.7342    3.5185    0.0012 C.ar    1  LIG1        0.0227
     11 C           2.9522    6.0577    0.0030 C.ar    1  LIG1       -0.0113
     12 H           4.8034    4.9484    0.0040 H       1  LIG1        0.0624
     13 C           0.9563    4.6794    0.0010 C.ar    1  LIG1       -0.0503
     14 C           1.5568    5.9244    0.0019 C.ar    1  LIG1       -0.0529
     15 H          -0.1234    4.5922    0.0002 H       1  LIG1        0.0625
     16 H           3.7333    2.7411    0.0023 H       1  LIG1        0.0625
     17 H           0.9290    6.8075    0.0017 H       1  LIG1        0.0624
     18 C           3.5767    7.3861    0.0040 C.ar    1  LIG1        0.0193
     19 C           2.9687    8.6136    0.0053 C.ar    1  LIG1       -0.0469
     20 C           3.8819    9.7028    0.0061 C.ar    1  LIG1       -0.0541
     21 C           5.1799    9.2955    0.0053 C.ar    1  LIG1       -0.0237
     22 S           5.3082    7.5798    0.0034 S.2     1  LIG1       -0.0967
     23 H           6.0724    9.9043    0.0056 H       1  LIG1        0.0693
     24 H           1.8944    8.7458    0.0060 H       1  LIG1        0.0629
     25 H           3.5802   10.7427    0.0072 H       1  LIG1        0.0623
@<TRIPOS>BOND
     1     7     1    1
     2     4     1   ar
     3     4     6   ar
     4     1     2   ar
     5     6     3   ar
     6     2     5   ar
     7    15    13    1
     8     3     5   ar
     9     3    10    1
    10    13    10   ar
    11    13    14   ar
    12    10     8   ar
    13    17    14    1
    14    14    11   ar
    15     8    16    1
    16     8     9   ar
    17    11     9   ar
    18    11    18    1
    19     9    12    1
    20    22    18   ar
    21    22    21   ar
    22    18    19   ar
    23    21    23    1
    24    21    20   ar
    25    19    24    1
    26    19    20   ar
    27    20    25    1
