@<TRIPOS>MOLECULE
mol_data/opt/cam/geoms/mol2/845.out
 25 27 0 0 0
SMALL
GASTEIGER

@<TRIPOS>ATOM
      1 C          -0.0398   -0.0916   -0.0012 C.ar    1  LIG1        0.1605
      2 N           1.2918   -0.0723   -0.0003 N.ar    1  LIG1       -0.1339
      3 C           1.0938    2.1934    0.0003 C.ar    1  LIG1        0.2033
      4 N          -0.8301    0.9806   -0.0015 N.ar    1  LIG1       -0.1339
      5 N           1.8744    1.1006    0.0005 N.ar    1  LIG1       -0.1258
      6 N          -0.2486    2.1539   -0.0007 N.ar    1  LIG1       -0.1258
      7 H          -0.5216   -1.0626   -0.0019 H       1  LIG1        0.1085
      8 C           3.1416    3.6126    0.0023 C.ar    1  LIG1       -0.0503
      9 C           3.7539    4.8519    0.0032 C.ar    1  LIG1       -0.0529
     10 C           1.7479    3.5118    0.0012 C.ar    1  LIG1        0.0227
     11 C           3.0005    6.0341    0.0029 C.ar    1  LIG1       -0.0113
     12 H           4.8363    4.9002    0.0042 H       1  LIG1        0.0624
     13 C           0.9860    4.6818    0.0010 C.ar    1  LIG1       -0.0503
     14 C           1.6047    5.9191    0.0018 C.ar    1  LIG1       -0.0529
     15 H          -0.0948    4.6098    0.0001 H       1  LIG1        0.0625
     16 H           3.7370    2.7077    0.0025 H       1  LIG1        0.0625
     17 H           0.9873    6.8112    0.0015 H       1  LIG1        0.0624
     18 C           3.6638    7.3436    0.0037 C.ar    1  LIG1        0.0193
     19 C           5.0055    7.6193    0.0030 C.ar    1  LIG1       -0.0469
     20 C           5.3026    9.0093    0.0041 C.ar    1  LIG1       -0.0541
     21 C           4.1830    9.7821    0.0057 C.ar    1  LIG1       -0.0237
     22 S           2.7514    8.8279    0.0061 S.2     1  LIG1       -0.0967
     23 H           4.1140   10.8603    0.0068 H       1  LIG1        0.0693
     24 H           5.7706    6.8537    0.0015 H       1  LIG1        0.0629
     25 H           6.3080    9.4111    0.0037 H       1  LIG1        0.0623
@<TRIPOS>BOND
     1     7     1    1
     2     4     1   ar
     3     4     6   ar
     4     1     2   ar
     5     6     3   ar
     6     2     5   ar
     7    15    13    1
     8     3     5   ar
     9     3    10    1
    10    13    10   ar
    11    13    14   ar
    12    10     8   ar
    13    24    19    1
    14    17    14    1
    15    14    11   ar
    16     8    16    1
    17     8     9   ar
    18    11     9   ar
    19    11    18    1
    20    19    18   ar
    21    19    20   ar
    22     9    12    1
    23    25    20    1
    24    18    22   ar
    25    20    21   ar
    26    21    22   ar
    27    21    23    1
