@<TRIPOS>MOLECULE
mol_data/opt/cam/geoms/mol2/8454-.out
 35 38 0 0 0
SMALL
GASTEIGER

@<TRIPOS>ATOM
      1 C          -0.0624   -0.2012   -0.0009 C.ar    1  LIG1        0.1605
      2 N           1.2692   -0.1812    0.0000 N.ar    1  LIG1       -0.1339
      3 C           1.0701    2.0844    0.0004 C.ar    1  LIG1        0.2033
      4 N          -0.8533    0.8706   -0.0013 N.ar    1  LIG1       -0.1339
      5 N           1.8513    0.9919    0.0007 N.ar    1  LIG1       -0.1258
      6 N          -0.2724    2.0442   -0.0006 N.ar    1  LIG1       -0.1258
      7 H          -0.5438   -1.1724   -0.0015 H       1  LIG1        0.1085
      8 C           3.1174    3.5041    0.0022 C.ar    1  LIG1       -0.0503
      9 C           3.7296    4.7431    0.0030 C.ar    1  LIG1       -0.0529
     10 C           1.7235    3.4028    0.0011 C.ar    1  LIG1        0.0227
     11 C           2.9756    5.9255    0.0026 C.ar    1  LIG1       -0.0113
     12 H           4.8121    4.7913    0.0039 H       1  LIG1        0.0624
     13 C           0.9612    4.5726    0.0008 C.ar    1  LIG1       -0.0503
     14 C           1.5794    5.8100    0.0015 C.ar    1  LIG1       -0.0529
     15 H          -0.1196    4.5002   -0.0000 H       1  LIG1        0.0625
     16 H           3.7127    2.5991    0.0025 H       1  LIG1        0.0625
     17 H           0.9620    6.7021    0.0012 H       1  LIG1        0.0624
     18 C           3.6378    7.2330    0.0033 C.ar    1  LIG1        0.0199
     19 C           4.9787    7.5116    0.0028 C.ar    1  LIG1       -0.0463
     20 C           5.2733    8.8963    0.0038 C.ar    1  LIG1       -0.0463
     21 C           4.1621    9.6968    0.0051 C.ar    1  LIG1        0.0199
     22 S           2.7261    8.7158    0.0052 S.2     1  LIG1       -0.0883
     23 H           5.7468    6.7490    0.0015 H       1  LIG1        0.0629
     24 H           6.2852    9.2803    0.0033 H       1  LIG1        0.0629
     25 C           2.8601   11.8353    0.0064 C.ar    1  LIG1       -0.0535
     26 C           2.8026   13.2217    0.0076 C.ar    1  LIG1       -0.0612
     27 C           4.0881   11.1646    0.0064 C.ar    1  LIG1       -0.0113
     28 C           3.9718   13.9722    0.0089 C.ar    1  LIG1       -0.0617
     29 H           1.8369   13.7165    0.0075 H       1  LIG1        0.0618
     30 C           5.2582   11.9343    0.0077 C.ar    1  LIG1       -0.0535
     31 C           5.1997   13.3195    0.0089 C.ar    1  LIG1       -0.0612
     32 H           6.2264   11.4468    0.0079 H       1  LIG1        0.0624
     33 H           3.9275   15.0561    0.0098 H       1  LIG1        0.0618
     34 H           1.9338   11.2696    0.0053 H       1  LIG1        0.0624
     35 H           6.1210   13.8929    0.0099 H       1  LIG1        0.0618
@<TRIPOS>BOND
     1     7     1    1
     2     4     1   ar
     3     4     6   ar
     4     1     2   ar
     5     6     3   ar
     6    15    13    1
     7     2     5   ar
     8     3     5   ar
     9     3    10    1
    10    13    10   ar
    11    13    14   ar
    12    10     8   ar
    13    17    14    1
    14    23    19    1
    15    14    11   ar
    16     8    16    1
    17     8     9   ar
    18    11     9   ar
    19    11    18    1
    20    19    18   ar
    21    19    20   ar
    22     9    12    1
    23    18    22   ar
    24    24    20    1
    25    20    21   ar
    26    21    22   ar
    27    21    27    1
    28    34    25    1
    29    25    27   ar
    30    25    26   ar
    31    27    30   ar
    32    29    26    1
    33    26    28   ar
    34    30    32    1
    35    30    31   ar
    36    28    31   ar
    37    28    33    1
    38    31    35    1
