@<TRIPOS>MOLECULE
mol_data/opt/cam/geoms/mol2/848-5-.out
 31 34 0 0 0
SMALL
GASTEIGER

@<TRIPOS>ATOM
      1 C          -0.0123   -0.1235   -0.0020 C.ar    1  LIG1        0.1605
      2 N           1.3191   -0.0892   -0.0014 N.ar    1  LIG1       -0.1339
      3 C           1.0940    2.1729   -0.0000 C.ar    1  LIG1        0.2033
      4 N          -0.8152    0.9390   -0.0017 N.ar    1  LIG1       -0.1339
      5 N           1.8875    1.0910   -0.0004 N.ar    1  LIG1       -0.1258
      6 N          -0.2466    2.1191   -0.0007 N.ar    1  LIG1       -0.1258
      7 H          -0.4827   -1.1001   -0.0029 H       1  LIG1        0.1085
      8 C           3.1275    3.6121    0.0019 C.ar    1  LIG1       -0.0503
      9 C           3.7282    4.8590    0.0030 C.ar    1  LIG1       -0.0503
     10 C           1.7346    3.5026    0.0011 C.ar    1  LIG1        0.0227
     11 C           2.9459    6.0167    0.0034 C.ar    1  LIG1        0.0227
     12 H           4.8073    4.9495    0.0035 H       1  LIG1        0.0625
     13 C           0.9521    4.6600    0.0015 C.ar    1  LIG1       -0.0503
     14 C           1.5529    5.9069    0.0026 C.ar    1  LIG1       -0.0503
     15 H          -0.1270    4.5697    0.0010 H       1  LIG1        0.0625
     16 H           3.7294    2.7119    0.0016 H       1  LIG1        0.0625
     17 H           0.9512    6.8072    0.0029 H       1  LIG1        0.0625
     18 C           3.5865    7.3459    0.0045 C.ar    1  LIG1        0.2034
     19 N           2.7962    8.4306    0.0050 N.ar    1  LIG1       -0.1252
     20 C           4.6985    9.6619    0.0066 C.ar    1  LIG1        0.2099
     21 N           4.9253    7.4049    0.0051 N.ar    1  LIG1       -0.1252
     22 N           3.3557    9.6079    0.0060 N.ar    1  LIG1       -0.1247
     23 N           5.4919    8.5797    0.0062 N.ar    1  LIG1       -0.1247
     24 C           5.3282   10.9687    0.0078 C.ar    1  LIG1        0.0598
     25 C           4.7049   12.1885    0.0083 C.ar    1  LIG1       -0.0438
     26 C           5.6230   13.2688    0.0095 C.ar    1  LIG1       -0.0540
     27 C           6.9205   12.8458    0.0099 C.ar    1  LIG1       -0.0236
     28 S           7.0547   11.1330    0.0085 S.2     1  LIG1       -0.0934
     29 H           7.8138   13.4545    0.0108 H       1  LIG1        0.0693
     30 H           3.6272   12.2867    0.0079 H       1  LIG1        0.0630
     31 H           5.3319   14.3114    0.0102 H       1  LIG1        0.0623
@<TRIPOS>BOND
     1     7     1    1
     2     1     4   ar
     3     1     2   ar
     4     4     6   ar
     5     2     5   ar
     6     6     3   ar
     7     5     3   ar
     8     3    10    1
     9    15    13    1
    10    10    13   ar
    11    10     8   ar
    12    13    14   ar
    13    16     8    1
    14     8     9   ar
    15    14    17    1
    16    14    11   ar
    17     9    11   ar
    18     9    12    1
    19    11    18    1
    20    18    19   ar
    21    18    21   ar
    22    19    22   ar
    23    21    23   ar
    24    22    20   ar
    25    23    20   ar
    26    20    24    1
    27    24    25   ar
    28    24    28   ar
    29    30    25    1
    30    25    26   ar
    31    28    27   ar
    32    26    27   ar
    33    26    31    1
    34    27    29    1
