@<TRIPOS>MOLECULE
mol_data/opt/cam/geoms/mol2/848-8-.out
 30 33 0 0 0
SMALL
GASTEIGER

@<TRIPOS>ATOM
      1 C          -0.0237   -0.1027   -0.0018 C.ar    1  LIG1        0.1605
      2 N           1.3079   -0.0751   -0.0012 N.ar    1  LIG1       -0.1339
      3 C           1.0933    2.1872    0.0000 C.ar    1  LIG1        0.2033
      4 N          -0.8217    0.9637   -0.0016 N.ar    1  LIG1       -0.1339
      5 N           1.8819    1.1025   -0.0002 N.ar    1  LIG1       -0.1258
      6 N          -0.2469    2.1410   -0.0007 N.ar    1  LIG1       -0.1258
      7 H          -0.4990   -1.0770   -0.0027 H       1  LIG1        0.1085
      8 C           3.1344    3.6159    0.0020 C.ar    1  LIG1       -0.0503
      9 C           3.7415    4.8595    0.0030 C.ar    1  LIG1       -0.0503
     10 C           1.7409    3.5148    0.0011 C.ar    1  LIG1        0.0227
     11 C           2.9631    6.0203    0.0033 C.ar    1  LIG1        0.0227
     12 H           4.8211    4.9448    0.0037 H       1  LIG1        0.0625
     13 C           0.9628    4.6752    0.0014 C.ar    1  LIG1       -0.0503
     14 C           1.5692    5.9192    0.0024 C.ar    1  LIG1       -0.0503
     15 H          -0.1166    4.5892    0.0008 H       1  LIG1        0.0625
     16 H           3.7311    2.7123    0.0018 H       1  LIG1        0.0625
     17 H           0.9719    6.8225    0.0026 H       1  LIG1        0.0625
     18 C           3.6090    7.3443    0.0044 C.ar    1  LIG1        0.2034
     19 N           2.8234    8.4327    0.0047 N.ar    1  LIG1       -0.1251
     20 C           4.7302    9.6428    0.0063 C.ar    1  LIG1        0.2435
     21 N           4.9503    7.3952    0.0051 N.ar    1  LIG1       -0.1251
     22 N           3.3951    9.6066    0.0057 N.ar    1  LIG1       -0.1218
     23 N           5.5236    8.5683    0.0061 N.ar    1  LIG1       -0.1218
     24 C           5.3831   10.9813    0.0074 C.ar    1  LIG1        0.2434
     25 N           4.5846   12.0528    0.0079 N.ar    1  LIG1       -0.1224
     26 C           6.4930   13.2564    0.0096 C.ar    1  LIG1        0.1605
     27 N           6.7191   11.0115    0.0080 N.ar    1  LIG1       -0.1224
     28 N           5.1610   13.2313    0.0090 N.ar    1  LIG1       -0.1338
     29 N           7.2931   12.1912    0.0090 N.ar    1  LIG1       -0.1338
     30 H           6.9684   14.2309    0.0102 H       1  LIG1        0.1085
@<TRIPOS>BOND
     1     7     1    1
     2     1     4   ar
     3     1     2   ar
     4     4     6   ar
     5     2     5   ar
     6     6     3   ar
     7     5     3   ar
     8     3    10    1
     9    15    13    1
    10    10    13   ar
    11    10     8   ar
    12    13    14   ar
    13    16     8    1
    14     8     9   ar
    15    14    17    1
    16    14    11   ar
    17     9    11   ar
    18     9    12    1
    19    11    18    1
    20    18    19   ar
    21    18    21   ar
    22    19    22   ar
    23    21    23   ar
    24    22    20   ar
    25    23    20   ar
    26    20    24    1
    27    24    25   ar
    28    24    27   ar
    29    25    28   ar
    30    27    29   ar
    31    28    26   ar
    32    29    26   ar
    33    26    30    1
