@<TRIPOS>MOLECULE
mol_data/opt/cam/geoms/mol2/848-.out
 24 26 0 0 0
SMALL
GASTEIGER

@<TRIPOS>ATOM
      1 C          -0.0103   -0.0724   -0.0013 C.ar    1  LIG1        0.1605
      2 N           1.3214   -0.0452   -0.0007 N.ar    1  LIG1       -0.1339
      3 C           1.1077    2.2176    0.0003 C.ar    1  LIG1        0.2033
      4 N          -0.8078    0.9943   -0.0011 N.ar    1  LIG1       -0.1339
      5 N           1.8958    1.1322    0.0001 N.ar    1  LIG1       -0.1258
      6 N          -0.2328    2.1714   -0.0003 N.ar    1  LIG1       -0.1258
      7 H          -0.4858   -1.0466   -0.0019 H       1  LIG1        0.1085
      8 C           3.1489    3.6461    0.0019 C.ar    1  LIG1       -0.0503
      9 C           3.7562    4.8899    0.0027 C.ar    1  LIG1       -0.0503
     10 C           1.7556    3.5446    0.0012 C.ar    1  LIG1        0.0227
     11 C           2.9791    6.0509    0.0029 C.ar    1  LIG1        0.0227
     12 H           4.8357    4.9750    0.0033 H       1  LIG1        0.0625
     13 C           0.9786    4.7056    0.0013 C.ar    1  LIG1       -0.0503
     14 C           1.5858    5.9495    0.0022 C.ar    1  LIG1       -0.0503
     15 H          -0.1010    4.6205    0.0008 H       1  LIG1        0.0625
     16 H           3.7458    2.7425    0.0018 H       1  LIG1        0.0625
     17 H           0.9889    6.8530    0.0023 H       1  LIG1        0.0625
     18 C           3.6270    7.3779    0.0038 C.ar    1  LIG1        0.2033
     19 N           2.8389    8.4633    0.0040 N.ar    1  LIG1       -0.1258
     20 C           4.7450    9.6680    0.0055 C.ar    1  LIG1        0.1605
     21 N           4.9675    7.4241    0.0044 N.ar    1  LIG1       -0.1258
     22 N           3.4134    9.6407    0.0049 N.ar    1  LIG1       -0.1339
     23 N           5.5425    8.6012    0.0052 N.ar    1  LIG1       -0.1339
     24 H           5.2206   10.6421    0.0061 H       1  LIG1        0.1085
@<TRIPOS>BOND
     1     7     1    1
     2     1     4   ar
     3     1     2   ar
     4     4     6   ar
     5     2     5   ar
     6     6     3   ar
     7     5     3   ar
     8     3    10    1
     9    15    13    1
    10    10    13   ar
    11    10     8   ar
    12    13    14   ar
    13    16     8    1
    14     8     9   ar
    15    14    17    1
    16    14    11   ar
    17     9    11   ar
    18     9    12    1
    19    11    18    1
    20    18    19   ar
    21    18    21   ar
    22    19    22   ar
    23    21    23   ar
    24    22    20   ar
    25    23    20   ar
    26    20    24    1
