@<TRIPOS>MOLECULE
mol_data/opt/cam/geoms/mol2/84812-.out
 31 34 0 0 0
SMALL
GASTEIGER

@<TRIPOS>ATOM
      1 C          -0.0744   -0.0785   -0.0019 C.ar    1  LIG1        0.1605
      2 N           1.2575   -0.0682   -0.0013 N.ar    1  LIG1       -0.1339
      3 C           1.0732    2.1977    0.0000 C.ar    1  LIG1        0.2033
      4 N          -0.8580    0.9983   -0.0016 N.ar    1  LIG1       -0.1339
      5 N           1.8471    1.1016   -0.0003 N.ar    1  LIG1       -0.1258
      6 N          -0.2682    2.1680   -0.0006 N.ar    1  LIG1       -0.1258
      7 H          -0.5623   -1.0465   -0.0028 H       1  LIG1        0.1085
      8 C           3.1323    3.6000    0.0019 C.ar    1  LIG1       -0.0503
      9 C           3.7553    4.8358    0.0030 C.ar    1  LIG1       -0.0503
     10 C           1.7376    3.5155    0.0012 C.ar    1  LIG1        0.0227
     11 C           2.9940    6.0075    0.0033 C.ar    1  LIG1        0.0227
     12 H           4.8359    4.9074    0.0035 H       1  LIG1        0.0625
     13 C           0.9761    4.6869    0.0015 C.ar    1  LIG1       -0.0503
     14 C           1.5993    5.9228    0.0026 C.ar    1  LIG1       -0.0503
     15 H          -0.1045    4.6160    0.0009 H       1  LIG1        0.0625
     16 H           3.7179    2.6891    0.0016 H       1  LIG1        0.0625
     17 H           1.0138    6.8338    0.0028 H       1  LIG1        0.0625
     18 C           3.6589    7.3248    0.0044 C.ar    1  LIG1        0.2034
     19 N           4.9979    7.3591    0.0050 N.ar    1  LIG1       -0.1251
     20 C           4.8147    9.6133    0.0064 C.ar    1  LIG1        0.2381
     21 N           2.8872    8.4238    0.0048 N.ar    1  LIG1       -0.1251
     22 N           5.5937    8.5221    0.0061 N.ar    1  LIG1       -0.1220
     23 N           3.4709    9.5881    0.0058 N.ar    1  LIG1       -0.1220
     24 C           5.4347   10.9221    0.0075 C.ar    1  LIG1        0.1751
     25 C           4.8970   12.1758    0.0081 C.ar    1  LIG1       -0.0126
     26 C           5.9978   13.0763    0.0091 C.ar    1  LIG1       -0.0232
     27 C           7.1142   12.3009    0.0091 C.ar    1  LIG1        0.0927
     28 O           6.7912   10.9916    0.0081 O.2     1  LIG1       -0.4597
     29 H           8.1693   12.5246    0.0098 H       1  LIG1        0.1029
     30 H           3.8431   12.4066    0.0078 H       1  LIG1        0.0656
     31 H           5.9641   14.1551    0.0098 H       1  LIG1        0.0649
@<TRIPOS>BOND
     1     7     1    1
     2     1     4   ar
     3     1     2   ar
     4     4     6   ar
     5     2     5   ar
     6     6     3   ar
     7     5     3   ar
     8     3    10    1
     9    15    13    1
    10    10    13   ar
    11    10     8   ar
    12    13    14   ar
    13    16     8    1
    14     8     9   ar
    15    14    17    1
    16    14    11   ar
    17     9    11   ar
    18     9    12    1
    19    11    18    1
    20    18    21   ar
    21    18    19   ar
    22    21    23   ar
    23    19    22   ar
    24    23    20   ar
    25    22    20   ar
    26    20    24    1
    27    24    25   ar
    28    24    28   ar
    29    30    25    1
    30    25    26   ar
    31    28    27   ar
    32    26    27   ar
    33    26    31    1
    34    27    29    1
