@<TRIPOS>MOLECULE
mol_data/opt/cam/geoms/mol2/85-.out
 15 16 0 0 0
SMALL
GASTEIGER

@<TRIPOS>ATOM
      1 C           0.0006   -0.0026   -0.0001 C.ar    1  LIG1        0.1605
      2 N           1.3319    0.0262   -0.0002 N.ar    1  LIG1       -0.1339
      3 C           1.1112    2.2859    0.0001 C.ar    1  LIG1        0.2098
      4 N          -0.7997    1.0641    0.0000 N.ar    1  LIG1       -0.1339
      5 N           1.9052    1.2034   -0.0001 N.ar    1  LIG1       -0.1253
      6 N          -0.2326    2.2436    0.0002 N.ar    1  LIG1       -0.1253
      7 H          -0.4742   -0.9769   -0.0002 H       1  LIG1        0.1085
      8 C           1.7472    3.5909    0.0002 C.ar    1  LIG1        0.0598
      9 C           1.1289    4.8129    0.0004 C.ar    1  LIG1       -0.0438
     10 C           2.0517    5.8894    0.0005 C.ar    1  LIG1       -0.0540
     11 C           3.3473    5.4602    0.0005 C.ar    1  LIG1       -0.0236
     12 S           3.4741    3.7472    0.0001 S.2     1  LIG1       -0.0934
     13 H           4.2432    6.0650    0.0006 H       1  LIG1        0.0693
     14 H           0.0517    4.9155    0.0005 H       1  LIG1        0.0630
     15 H           1.7652    6.9332    0.0007 H       1  LIG1        0.0623
@<TRIPOS>BOND
     1     7     1    1
     2     2     1   ar
     3     2     5   ar
     4     1     4   ar
     5     5     3   ar
     6     4     6   ar
     7     3     6   ar
     8     3     8    1
     9    12     8   ar
    10    12    11   ar
    11     8     9   ar
    12     9    14    1
    13     9    10   ar
    14    11    10   ar
    15    11    13    1
    16    10    15    1
