@<TRIPOS>MOLECULE
mol_data/opt/cam/geoms/mol2/85-13.out
 23 25 0 0 0
SMALL
GASTEIGER

@<TRIPOS>ATOM
      1 C          -0.0447   -0.0532   -0.0004 C.ar    1  LIG1        0.1605
      2 N           1.2864   -0.0217   -0.0005 N.ar    1  LIG1       -0.1339
      3 C           1.0623    2.2389    0.0000 C.ar    1  LIG1        0.2098
      4 N          -0.8470    1.0129   -0.0001 N.ar    1  LIG1       -0.1339
      5 N           1.8586    1.1560   -0.0003 N.ar    1  LIG1       -0.1253
      6 N          -0.2833    2.1930    0.0002 N.ar    1  LIG1       -0.1253
      7 H          -0.5179   -1.0280   -0.0006 H       1  LIG1        0.1085
      8 C           1.6945    3.5399    0.0003 C.ar    1  LIG1        0.0604
      9 C           1.0791    4.7635    0.0007 C.ar    1  LIG1       -0.0432
     10 C           1.9955    5.8371    0.0008 C.ar    1  LIG1       -0.0448
     11 C           3.3099    5.4269    0.0005 C.ar    1  LIG1        0.0361
     12 S           3.4245    3.6969    0.0001 S.2     1  LIG1       -0.0836
     13 H           0.0020    4.8681    0.0009 H       1  LIG1        0.0630
     14 H           1.6871    6.8756    0.0012 H       1  LIG1        0.0630
     15 C           4.5061    6.2393    0.0005 C.ar    1  LIG1        0.0531
     16 C           5.8426    5.8871    0.0010 C.ar    1  LIG1       -0.0359
     17 C           6.6040    7.0776    0.0008 C.ar    1  LIG1       -0.0438
     18 C           5.7185    8.1281    0.0002 C.ar    1  LIG1        0.0022
     19 N           4.4543    7.6146    0.0001 N.ar    1  LIG1       -0.3603
     20 H           3.6096    8.1608   -0.0004 H       1  LIG1        0.1653
     21 H           5.8874    9.1939   -0.0001 H       1  LIG1        0.0807
     22 H           6.2245    4.8763    0.0015 H       1  LIG1        0.0639
     23 H           7.6808    7.1568    0.0010 H       1  LIG1        0.0633
@<TRIPOS>BOND
     1     7     1    1
     2     2     1   ar
     3     2     5   ar
     4    20    19    1
     5     1     4   ar
     6     5     3   ar
     7    21    18    1
     8     4     6   ar
     9     3     6   ar
    10     3     8    1
    11    19    18   ar
    12    19    15   ar
    13    12     8   ar
    14    12    11   ar
    15    18    17   ar
    16     8     9   ar
    17    11    15    1
    18    11    10   ar
    19    15    16   ar
    20     9    10   ar
    21     9    13    1
    22    17    16   ar
    23    17    23    1
    24    10    14    1
    25    16    22    1
