@<TRIPOS>MOLECULE
mol_data/opt/cam/geoms/mol2/85-134-.out
 33 36 0 0 0
SMALL
GASTEIGER

@<TRIPOS>ATOM
      1 C          -0.0698   -0.1560   -0.0007 C.ar    1  LIG1        0.1605
      2 N           1.2611   -0.1178   -0.0007 N.ar    1  LIG1       -0.1339
      3 C           1.0256    2.1415    0.0000 C.ar    1  LIG1        0.2098
      4 N          -0.8775    0.9061   -0.0003 N.ar    1  LIG1       -0.1339
      5 N           1.8274    1.0627   -0.0004 N.ar    1  LIG1       -0.1253
      6 N          -0.3199    2.0889    0.0001 N.ar    1  LIG1       -0.1253
      7 H          -0.5381   -1.1332   -0.0009 H       1  LIG1        0.1085
      8 C           1.6506    3.4458    0.0004 C.ar    1  LIG1        0.0604
      9 C           1.0277    4.6659    0.0009 C.ar    1  LIG1       -0.0432
     10 C           1.9369    5.7448    0.0010 C.ar    1  LIG1       -0.0448
     11 C           3.2544    5.3426    0.0008 C.ar    1  LIG1        0.0362
     12 S           3.3795    3.6127    0.0004 S.2     1  LIG1       -0.0836
     13 H          -0.0500    4.7637    0.0010 H       1  LIG1        0.0630
     14 H           1.6214    6.7811    0.0014 H       1  LIG1        0.0630
     15 C           4.4436    6.1616    0.0008 C.ar    1  LIG1        0.0536
     16 C           5.7834    5.8175    0.0011 C.ar    1  LIG1       -0.0353
     17 C           6.5314    7.0090    0.0011 C.ar    1  LIG1       -0.0358
     18 C           5.6448    8.0729    0.0005 C.ar    1  LIG1        0.0469
     19 N           4.3844    7.5341    0.0004 N.ar    1  LIG1       -0.3537
     20 H           3.5314    8.0662   -0.0002 H       1  LIG1        0.1659
     21 H           6.1741    4.8102    0.0015 H       1  LIG1        0.0639
     22 H           7.6082    7.0831    0.0015 H       1  LIG1        0.0639
     23 C           4.8456   10.4474   -0.0003 C.ar    1  LIG1       -0.0526
     24 C           5.1027   11.8116   -0.0007 C.ar    1  LIG1       -0.0611
     25 C           5.8898    9.5160    0.0001 C.ar    1  LIG1       -0.0017
     26 C           6.4105   12.2792   -0.0006 C.ar    1  LIG1       -0.0617
     27 H           4.2736   12.5116   -0.0010 H       1  LIG1        0.0618
     28 C           7.2029   10.0030    0.0002 C.ar    1  LIG1       -0.0526
     29 C           7.4589   11.3649   -0.0001 C.ar    1  LIG1       -0.0611
     30 H           8.0326    9.3052    0.0006 H       1  LIG1        0.0624
     31 H           6.6118   13.3450   -0.0009 H       1  LIG1        0.0618
     32 H           3.8105   10.1197   -0.0004 H       1  LIG1        0.0624
     33 H           8.4860   11.7153   -0.0001 H       1  LIG1        0.0618
@<TRIPOS>BOND
     1    27    24    1
     2     7     1    1
     3    31    26    1
     4     2     1   ar
     5     2     5   ar
     6    24    26   ar
     7    24    23   ar
     8     1     4   ar
     9    26    29   ar
    10     5     3   ar
    11    32    23    1
    12    23    25   ar
    13     4     6   ar
    14    20    19    1
    15    29    33    1
    16    29    28   ar
    17     3     6   ar
    18     3     8    1
    19    25    28   ar
    20    25    18    1
    21    28    30    1
    22    19    18   ar
    23    19    15   ar
    24     8    12   ar
    25     8     9   ar
    26    12    11   ar
    27    18    17   ar
    28    11    15    1
    29    11    10   ar
    30    15    16   ar
    31     9    13    1
    32     9    10   ar
    33    10    14    1
    34    16    17   ar
    35    16    21    1
    36    17    22    1
