@<TRIPOS>MOLECULE
mol_data/opt/cam/geoms/mol2/85-13-.out
 23 25 0 0 0
SMALL
GASTEIGER

@<TRIPOS>ATOM
      1 C          -0.0679   -0.0482   -0.0000 C.ar    1  LIG1        0.1605
      2 N           1.2633   -0.0243   -0.0004 N.ar    1  LIG1       -0.1339
      3 C           1.0521    2.2378    0.0001 C.ar    1  LIG1        0.2098
      4 N          -0.8640    1.0228    0.0004 N.ar    1  LIG1       -0.1339
      5 N           1.8422    1.1501   -0.0003 N.ar    1  LIG1       -0.1253
      6 N          -0.2942    2.1997    0.0005 N.ar    1  LIG1       -0.1253
      7 H          -0.5469   -1.0202   -0.0001 H       1  LIG1        0.1085
      8 C           1.6913    3.5338    0.0002 C.ar    1  LIG1        0.0604
      9 C           1.0914    4.7660    0.0006 C.ar    1  LIG1       -0.0432
     10 C           2.0153    5.8317    0.0005 C.ar    1  LIG1       -0.0448
     11 C           3.3255    5.4107    0.0001 C.ar    1  LIG1        0.0361
     12 S           3.4228    3.6770   -0.0003 S.2     1  LIG1       -0.0836
     13 H           0.0152    4.8801    0.0009 H       1  LIG1        0.0630
     14 H           1.7313    6.8759    0.0009 H       1  LIG1        0.0630
     15 C           4.5131    6.2354   -0.0001 C.ar    1  LIG1        0.0531
     16 C           4.6409    7.6123   -0.0003 C.ar    1  LIG1       -0.0359
     17 C           6.0201    7.9185   -0.0004 C.ar    1  LIG1       -0.0438
     18 C           6.7035    6.7263   -0.0004 C.ar    1  LIG1        0.0022
     19 N           5.7875    5.7152   -0.0002 N.ar    1  LIG1       -0.3603
     20 H           6.0147    4.7339   -0.0000 H       1  LIG1        0.1653
     21 H           7.7625    6.5191   -0.0004 H       1  LIG1        0.0807
     22 H           3.8227    8.3172   -0.0003 H       1  LIG1        0.0639
     23 H           6.4641    8.9027   -0.0005 H       1  LIG1        0.0633
@<TRIPOS>BOND
     1    23    17    1
     2    21    18    1
     3     2     5   ar
     4     2     1   ar
     5    17    18   ar
     6    17    16   ar
     7    18    19   ar
     8     5     3   ar
     9    22    16    1
    10    12    11   ar
    11    12     8   ar
    12    16    15   ar
    13    19    15   ar
    14    19    20    1
    15    15    11    1
    16     7     1    1
    17     1     4   ar
    18    11    10   ar
    19     3     8    1
    20     3     6   ar
    21     8     9   ar
    22     4     6   ar
    23    10     9   ar
    24    10    14    1
    25     9    13    1
