@<TRIPOS>MOLECULE
mol_data/opt/cam/geoms/mol2/85-138.out
 29 32 0 0 0
SMALL
GASTEIGER

@<TRIPOS>ATOM
      1 C          -0.0604   -0.0847   -0.0007 C.ar    1  LIG1        0.1605
      2 N           1.2709   -0.0533   -0.0008 N.ar    1  LIG1       -0.1339
      3 C           1.0451    2.2055   -0.0001 C.ar    1  LIG1        0.2098
      4 N          -0.8631    0.9810   -0.0003 N.ar    1  LIG1       -0.1339
      5 N           1.8419    1.1249   -0.0005 N.ar    1  LIG1       -0.1253
      6 N          -0.2991    2.1611   -0.0000 N.ar    1  LIG1       -0.1253
      7 H          -0.5334   -1.0597   -0.0010 H       1  LIG1        0.1085
      8 C           1.6781    3.5093    0.0003 C.ar    1  LIG1        0.0604
      9 C           1.0608    4.7319    0.0008 C.ar    1  LIG1       -0.0432
     10 C           1.9778    5.8052    0.0010 C.ar    1  LIG1       -0.0448
     11 C           3.2897    5.3914    0.0007 C.ar    1  LIG1        0.0362
     12 S           3.4056    3.6624    0.0003 S.2     1  LIG1       -0.0836
     13 H          -0.0162    4.8363    0.0009 H       1  LIG1        0.0630
     14 H           1.6727    6.8446    0.0014 H       1  LIG1        0.0630
     15 C           4.4855    6.2068    0.0008 C.ar    1  LIG1        0.0537
     16 C           5.8283    5.8432    0.0010 C.ar    1  LIG1       -0.0352
     17 C           6.5925    7.0199    0.0008 C.ar    1  LIG1       -0.0326
     18 C           5.7044    8.0813    0.0010 C.ar    1  LIG1        0.0880
     19 N           4.4343    7.5696    0.0008 N.ar    1  LIG1       -0.3512
     20 H           3.6128    8.1550    0.0007 H       1  LIG1        0.1660
     21 H           6.2028    4.8299    0.0011 H       1  LIG1        0.0639
     22 H           7.6679    7.1100    0.0008 H       1  LIG1        0.0640
     23 C           5.9178    9.5067    0.0011 C.ar    1  LIG1        0.2193
     24 N           7.1833    9.9659    0.0010 N.ar    1  LIG1       -0.1243
     25 C           6.2546   12.0273    0.0009 C.ar    1  LIG1        0.1605
     26 N           4.8231   10.2872    0.0010 N.ar    1  LIG1       -0.1243
     27 N           7.3495   11.2619    0.0010 N.ar    1  LIG1       -0.1338
     28 N           4.9991   11.5852    0.0010 N.ar    1  LIG1       -0.1338
     29 H           6.4026   13.1007    0.0011 H       1  LIG1        0.1085
@<TRIPOS>BOND
     1     7     1    1
     2     2     1   ar
     3     2     5   ar
     4     1     4   ar
     5     5     3   ar
     6     4     6   ar
     7     3     6   ar
     8     3     8    1
     9     8    12   ar
    10     8     9   ar
    11    12    11   ar
    12    20    19    1
    13    11    15    1
    14    11    10   ar
    15    22    17    1
    16    17    18   ar
    17    17    16   ar
    18     9    13    1
    19     9    10   ar
    20    19    15   ar
    21    19    18   ar
    22    15    16   ar
    23    25    28   ar
    24    25    27   ar
    25    25    29    1
    26    18    23    1
    27    28    26   ar
    28    27    24   ar
    29    16    21    1
    30    26    23   ar
    31    24    23   ar
    32    10    14    1
