@<TRIPOS>MOLECULE
mol_data/opt/cam/geoms/mol2/85-4-.out
 25 27 0 0 0
SMALL
GASTEIGER

@<TRIPOS>ATOM
      1 C          -0.0963   -0.0608   -0.0003 C.ar    1  LIG1        0.1605
      2 N           1.2351   -0.0425   -0.0015 N.ar    1  LIG1       -0.1339
      3 C           1.0326    2.2193   -0.0000 C.ar    1  LIG1        0.2098
      4 N          -0.8882    1.0126    0.0010 N.ar    1  LIG1       -0.1339
      5 N           1.8183    1.1298   -0.0013 N.ar    1  LIG1       -0.1253
      6 N          -0.3124    2.1872    0.0011 N.ar    1  LIG1       -0.1253
      7 H          -0.5789   -1.0311   -0.0005 H       1  LIG1        0.1085
      8 C           1.6770    3.5172    0.0002 C.ar    1  LIG1        0.0604
      9 C           1.0705    4.7449    0.0015 C.ar    1  LIG1       -0.0432
     10 C           1.9976    5.8098    0.0013 C.ar    1  LIG1       -0.0462
     11 C           3.3082    5.3952   -0.0001 C.ar    1  LIG1        0.0200
     12 S           3.4033    3.6611   -0.0013 S.2     1  LIG1       -0.0850
     13 H          -0.0056    4.8593    0.0025 H       1  LIG1        0.0630
     14 H           1.6995    6.8498    0.0023 H       1  LIG1        0.0629
     15 C           4.4277    7.6221   -0.0023 C.ar    1  LIG1       -0.0535
     16 C           5.5669    8.4126   -0.0028 C.ar    1  LIG1       -0.0612
     17 C           4.5224    6.2251   -0.0008 C.ar    1  LIG1       -0.0113
     18 C           6.8282    7.8275   -0.0019 C.ar    1  LIG1       -0.0617
     19 H           5.4677    9.4931   -0.0040 H       1  LIG1        0.0618
     20 C           5.7983    5.6505    0.0001 C.ar    1  LIG1       -0.0535
     21 C           6.9374    6.4422   -0.0005 C.ar    1  LIG1       -0.0612
     22 H           5.9078    4.5707    0.0014 H       1  LIG1        0.0624
     23 H           7.7188    8.4469   -0.0024 H       1  LIG1        0.0618
     24 H           3.4545    8.0992   -0.0032 H       1  LIG1        0.0624
     25 H           7.9152    5.9721    0.0003 H       1  LIG1        0.0618
@<TRIPOS>BOND
     1    19    16    1
     2    24    15    1
     3    16    15   ar
     4    16    18   ar
     5    23    18    1
     6    15    17   ar
     7    18    21   ar
     8     2     5   ar
     9     2     1   ar
    10     5     3   ar
    11    12    11   ar
    12    12     8   ar
    13    17    11    1
    14    17    20   ar
    15    21    20   ar
    16    21    25    1
    17     7     1    1
    18     1     4   ar
    19    11    10   ar
    20     3     8    1
    21     3     6   ar
    22    20    22    1
    23     8     9   ar
    24     4     6   ar
    25    10     9   ar
    26    10    14    1
    27     9    13    1
