@<TRIPOS>MOLECULE
mol_data/opt/cam/geoms/mol2/85-5.out
 22 24 0 0 0
SMALL
GASTEIGER

@<TRIPOS>ATOM
      1 C          -0.0775   -0.0468   -0.0001 C.ar    1  LIG1        0.1605
      2 N           1.2539   -0.0305   -0.0004 N.ar    1  LIG1       -0.1339
      3 C           1.0541    2.2314    0.0001 C.ar    1  LIG1        0.2098
      4 N          -0.8681    1.0277    0.0004 N.ar    1  LIG1       -0.1339
      5 N           1.8385    1.1410   -0.0004 N.ar    1  LIG1       -0.1253
      6 N          -0.2910    2.2015    0.0004 N.ar    1  LIG1       -0.1253
      7 H          -0.5616   -1.0165   -0.0001 H       1  LIG1        0.1085
      8 C           1.7013    3.5273    0.0002 C.ar    1  LIG1        0.0604
      9 C           1.0987    4.7571    0.0006 C.ar    1  LIG1       -0.0432
     10 C           2.0278    5.8200    0.0006 C.ar    1  LIG1       -0.0457
     11 C           3.3351    5.3947    0.0001 C.ar    1  LIG1        0.0266
     12 S           3.4310    3.6615   -0.0003 S.2     1  LIG1       -0.0845
     13 H           0.0229    4.8737    0.0009 H       1  LIG1        0.0630
     14 H           1.7439    6.8652    0.0009 H       1  LIG1        0.0629
     15 C           4.5411    6.2031   -0.0001 C.ar    1  LIG1        0.0259
     16 C           5.8466    5.7884   -0.0003 C.ar    1  LIG1       -0.0464
     17 C           6.7778    6.8620   -0.0005 C.ar    1  LIG1       -0.0541
     18 C           6.1715    8.0801   -0.0004 C.ar    1  LIG1       -0.0237
     19 S           4.4548    7.9419    0.0002 S.2     1  LIG1       -0.0961
     20 H           6.6333    9.0568   -0.0005 H       1  LIG1        0.0693
     21 H           6.1356    4.7441   -0.0005 H       1  LIG1        0.0629
     22 H           7.8521    6.7282   -0.0008 H       1  LIG1        0.0623
@<TRIPOS>BOND
     1    22    17    1
     2    17    18   ar
     3    17    16   ar
     4    20    18    1
     5    21    16    1
     6     2     5   ar
     7     2     1   ar
     8    18    19   ar
     9     5     3   ar
    10    16    15   ar
    11    12    11   ar
    12    12     8   ar
    13     7     1    1
    14    15    11    1
    15    15    19   ar
    16     1     4   ar
    17     3     8    1
    18     3     6   ar
    19    11    10   ar
    20     8     9   ar
    21     4     6   ar
    22    10     9   ar
    23    10    14    1
    24     9    13    1
