@<TRIPOS>MOLECULE
mol_data/opt/cam/geoms/mol2/85-5-4.out
 32 35 0 0 0
SMALL
GASTEIGER

@<TRIPOS>ATOM
      1 C          -0.2806   -0.0017   -0.4706 C.ar    1  LIG1        0.1605
      2 N           1.0093    0.0516   -0.7971 N.ar    1  LIG1       -0.1339
      3 C           0.9068    2.2251   -0.1472 C.ar    1  LIG1        0.2098
      4 N          -1.0032    1.0116    0.0095 N.ar    1  LIG1       -0.1339
      5 N           1.6224    1.1966   -0.6316 N.ar    1  LIG1       -0.1253
      6 N          -0.3972    2.1588    0.1773 N.ar    1  LIG1       -0.1253
      7 H          -0.7878   -0.9496   -0.6069 H       1  LIG1        0.1085
      8 C           1.5853    3.4917    0.0370 C.ar    1  LIG1        0.0604
      9 C           1.0500    4.6572    0.5199 C.ar    1  LIG1       -0.0432
     10 C           1.9930    5.7052    0.5867 C.ar    1  LIG1       -0.0457
     11 C           3.2414    5.3345    0.1450 C.ar    1  LIG1        0.0266
     12 S           3.2626    3.6759   -0.3630 S.2     1  LIG1       -0.0845
     13 H           0.0143    4.7338    0.8242 H       1  LIG1        0.0630
     14 H           1.7743    6.6933    0.9706 H       1  LIG1        0.0629
     15 C           4.4221    6.1770    0.0685 C.ar    1  LIG1        0.0265
     16 C           4.4589    7.5402   -0.0604 C.ar    1  LIG1       -0.0458
     17 C           5.7748    8.0647   -0.0886 C.ar    1  LIG1       -0.0463
     18 C           6.7482    7.1072    0.0102 C.ar    1  LIG1        0.0199
     19 S           6.0335    5.5290    0.1480 S.2     1  LIG1       -0.0877
     20 H           3.5654    8.1460   -0.1475 H       1  LIG1        0.0629
     21 H           5.9967    9.1220   -0.1617 H       1  LIG1        0.0629
     22 C           9.0532    6.4086    0.6852 C.ar    1  LIG1       -0.0535
     23 C          10.4277    6.6009    0.6777 C.ar    1  LIG1       -0.0612
     24 C           8.2055    7.2899    0.0064 C.ar    1  LIG1       -0.0113
     25 C          10.9805    7.6809   -0.0005 C.ar    1  LIG1       -0.0617
     26 H          11.0686    5.9073    1.2120 H       1  LIG1        0.0618
     27 C           8.7740    8.3677   -0.6816 C.ar    1  LIG1       -0.0535
     28 C          10.1473    8.5640   -0.6785 C.ar    1  LIG1       -0.0612
     29 H           8.1333    9.0426   -1.2388 H       1  LIG1        0.0624
     30 H          12.0548    7.8321   -0.0036 H       1  LIG1        0.0618
     31 H           8.6310    5.5761    1.2391 H       1  LIG1        0.0624
     32 H          10.5699    9.4048   -1.2189 H       1  LIG1        0.0618
@<TRIPOS>BOND
     1    29    27    1
     2    32    28    1
     3     2     5   ar
     4     2     1   ar
     5    27    28   ar
     6    27    24   ar
     7    28    25   ar
     8     5     3   ar
     9     7     1    1
    10     1     4   ar
    11    12     8   ar
    12    12    11   ar
    13    21    17    1
    14    20    16    1
    15     3     8    1
    16     3     6   ar
    17    17    16   ar
    18    17    18   ar
    19    16    15   ar
    20    30    25    1
    21    25    23   ar
    22    24    18    1
    23    24    22   ar
    24     4     6   ar
    25    18    19   ar
    26     8     9   ar
    27    15    11    1
    28    15    19   ar
    29    11    10   ar
    30     9    10   ar
    31     9    13    1
    32    10    14    1
    33    23    22   ar
    34    23    26    1
    35    22    31    1
