@<TRIPOS>MOLECULE
mol_data/opt/cam/geoms/mol2/85.out
 15 16 0 0 0
SMALL
GASTEIGER

@<TRIPOS>ATOM
      1 C          -0.0024   -0.0011    0.0001 C.ar    1  LIG1        0.1605
      2 N           1.3311   -0.0015   -0.0002 N.ar    1  LIG1       -0.1339
      3 C           1.1625    2.2602   -0.0001 C.ar    1  LIG1        0.2098
      4 N          -0.7780    1.0813    0.0003 N.ar    1  LIG1       -0.1339
      5 N           1.9346    1.1597   -0.0003 N.ar    1  LIG1       -0.1253
      6 N          -0.1799    2.2462    0.0002 N.ar    1  LIG1       -0.1253
      7 H          -0.4971   -0.9654    0.0002 H       1  LIG1        0.1085
      8 C           1.8250    3.5520   -0.0003 C.ar    1  LIG1        0.0598
      9 C           3.1737    3.7903   -0.0006 C.ar    1  LIG1       -0.0438
     10 C           3.4815    5.1743   -0.0007 C.ar    1  LIG1       -0.0540
     11 C           2.3609    5.9535   -0.0004 C.ar    1  LIG1       -0.0236
     12 S           0.9142    5.0274    0.0001 S.2     1  LIG1       -0.0934
     13 H           2.3075    7.0331   -0.0004 H       1  LIG1        0.0693
     14 H           3.9020    2.9899   -0.0008 H       1  LIG1        0.0630
     15 H           4.4885    5.5713   -0.0010 H       1  LIG1        0.0623
@<TRIPOS>BOND
     1    15    10    1
     2    14     9    1
     3    10     9   ar
     4    10    11   ar
     5     9     8   ar
     6    13    11    1
     7    11    12   ar
     8     5     2   ar
     9     5     3   ar
    10     8     3    1
    11     8    12   ar
    12     2     1   ar
    13     3     6   ar
    14     1     7    1
    15     1     4   ar
    16     6     4   ar
