@<TRIPOS>MOLECULE
mol_data/opt/cam/geoms/mol2/85125.out
 29 32 0 0 0
SMALL
GASTEIGER

@<TRIPOS>ATOM
      1 C           0.0769   -0.1421    0.0001 C.ar    1  LIG1        0.1605
      2 N           1.4107   -0.1180   -0.0002 N.ar    1  LIG1       -0.1339
      3 C           1.2009    2.1411   -0.0001 C.ar    1  LIG1        0.2099
      4 N          -0.7182    0.9262    0.0003 N.ar    1  LIG1       -0.1339
      5 N           1.9934    1.0532   -0.0003 N.ar    1  LIG1       -0.1253
      6 N          -0.1423    2.1020    0.0002 N.ar    1  LIG1       -0.1253
      7 H          -0.4000   -1.1152    0.0002 H       1  LIG1        0.1085
      8 C           1.8376    3.4415   -0.0003 C.ar    1  LIG1        0.0605
      9 C           3.1837    3.7047   -0.0006 C.ar    1  LIG1       -0.0431
     10 C           3.4693    5.0852   -0.0006 C.ar    1  LIG1       -0.0433
     11 C           2.3335    5.8626   -0.0003 C.ar    1  LIG1        0.0551
     12 S           0.8950    4.8978   -0.0001 S.2     1  LIG1       -0.0820
     13 H           3.9263    2.9177   -0.0008 H       1  LIG1        0.0630
     14 H           4.4708    5.4961   -0.0008 H       1  LIG1        0.0630
     15 C           2.2589    7.3009   -0.0001 C.ar    1  LIG1        0.1423
     16 C           3.1995    8.2909    0.0000 C.ar    1  LIG1       -0.0147
     17 C           2.4935    9.5227    0.0001 C.ar    1  LIG1       -0.0147
     18 C           1.1635    9.2102    0.0001 C.ar    1  LIG1        0.1422
     19 O           1.0154    7.8584   -0.0000 O.2     1  LIG1       -0.4538
     20 H           4.2703    8.1536    0.0001 H       1  LIG1        0.0656
     21 H           2.9155   10.5160    0.0002 H       1  LIG1        0.0656
     22 C          -0.0424   10.0034    0.0003 C.ar    1  LIG1        0.0544
     23 C          -0.1484   11.3693    0.0002 C.ar    1  LIG1       -0.0440
     24 C          -1.4960   11.8190    0.0002 C.ar    1  LIG1       -0.0540
     25 C          -2.3904   10.7923    0.0001 C.ar    1  LIG1       -0.0236
     26 S          -1.6102    9.2568    0.0008 S.2     1  LIG1       -0.0936
     27 H          -3.4694   10.8479   -0.0001 H       1  LIG1        0.0693
     28 H           0.7096   12.0301    0.0001 H       1  LIG1        0.0630
     29 H          -1.7832   12.8629    0.0000 H       1  LIG1        0.0623
@<TRIPOS>BOND
     1    14    10    1
     2    13     9    1
     3    10     9   ar
     4    10    11   ar
     5     9     8   ar
     6    11    12   ar
     7    11    15    1
     8     5     2   ar
     9     5     3   ar
    10     8    12   ar
    11     8     3    1
    12     2     1   ar
    13    15    19   ar
    14    15    16   ar
    15    27    25    1
    16     3     6   ar
    17    19    18   ar
    18    29    24    1
    19    16    20    1
    20    16    17   ar
    21    25    24   ar
    22    25    26   ar
    23    28    23    1
    24    17    18   ar
    25    17    21    1
    26     1     7    1
    27     1     4   ar
    28    18    22    1
    29    24    23   ar
    30     6     4   ar
    31    23    22   ar
    32    22    26   ar
