@<TRIPOS>MOLECULE
mol_data/opt/cam/geoms/mol2/85124.out
 32 35 0 0 0
SMALL
GASTEIGER

@<TRIPOS>ATOM
      1 C           0.1358   -0.1959   -0.0002 C.ar    1  LIG1        0.1605
      2 N           1.4694   -0.1605   -0.0009 N.ar    1  LIG1       -0.1339
      3 C           1.2406    2.0966   -0.0003 C.ar    1  LIG1        0.2099
      4 N          -0.6682    0.8657    0.0005 N.ar    1  LIG1       -0.1339
      5 N           2.0422    1.0155   -0.0009 N.ar    1  LIG1       -0.1253
      6 N          -0.1023    2.0462    0.0004 N.ar    1  LIG1       -0.1253
      7 H          -0.3328   -1.1730   -0.0001 H       1  LIG1        0.1085
      8 C           1.8661    3.4023   -0.0003 C.ar    1  LIG1        0.0605
      9 C           3.2096    3.6781   -0.0009 C.ar    1  LIG1       -0.0431
     10 C           3.4827    5.0614   -0.0008 C.ar    1  LIG1       -0.0433
     11 C           2.3403    5.8286   -0.0001 C.ar    1  LIG1        0.0551
     12 S           0.9108    4.8505    0.0006 S.2     1  LIG1       -0.0820
     13 H           3.9594    2.8979   -0.0015 H       1  LIG1        0.0630
     14 H           4.4804    5.4814   -0.0013 H       1  LIG1        0.0630
     15 C           2.2499    7.2665    0.0002 C.ar    1  LIG1        0.1422
     16 C           3.1801    8.2657    0.0001 C.ar    1  LIG1       -0.0147
     17 C           2.4571    9.4878    0.0007 C.ar    1  LIG1       -0.0152
     18 C           1.1300    9.1640    0.0009 C.ar    1  LIG1        0.1357
     19 O           1.0017    7.8088    0.0007 O.2     1  LIG1       -0.4543
     20 H           4.2523    8.1410   -0.0002 H       1  LIG1        0.0656
     21 H           2.8736   10.4833    0.0008 H       1  LIG1        0.0656
     22 C          -0.0396   11.3483    0.0017 C.ar    1  LIG1       -0.0511
     23 C          -1.2043   12.0998    0.0022 C.ar    1  LIG1       -0.0611
     24 C          -0.0974    9.9505    0.0014 C.ar    1  LIG1        0.0173
     25 C          -2.4451   11.4703    0.0024 C.ar    1  LIG1       -0.0617
     26 H          -1.1435   13.1832    0.0023 H       1  LIG1        0.0618
     27 C          -1.3474    9.3243    0.0017 C.ar    1  LIG1       -0.0511
     28 C          -2.5102   10.0818    0.0022 C.ar    1  LIG1       -0.0611
     29 H          -1.4007    8.2420    0.0016 H       1  LIG1        0.0625
     30 H          -3.3558   12.0599    0.0028 H       1  LIG1        0.0618
     31 H           0.9226   11.8496    0.0014 H       1  LIG1        0.0625
     32 H          -3.4735    9.5825    0.0025 H       1  LIG1        0.0618
@<TRIPOS>BOND
     1    13     9    1
     2    14    10    1
     3     9    10   ar
     4     9     8   ar
     5     5     2   ar
     6     5     3   ar
     7     2     1   ar
     8    10    11   ar
     9     8     3    1
    10     8    12   ar
    11     3     6   ar
    12    20    16    1
    13     1     7    1
    14     1     4   ar
    15    11    15    1
    16    11    12   ar
    17    16    15   ar
    18    16    17   ar
    19    15    19   ar
    20     6     4   ar
    21    17    21    1
    22    17    18   ar
    23    19    18   ar
    24    18    24    1
    25    31    22    1
    26    24    22   ar
    27    24    27   ar
    28    29    27    1
    29    22    23   ar
    30    27    28   ar
    31    23    26    1
    32    23    25   ar
    33    28    25   ar
    34    28    32    1
    35    25    30    1
