@<TRIPOS>MOLECULE
mol_data/opt/cam/geoms/mol2/8512.out
 22 24 0 0 0
SMALL
GASTEIGER

@<TRIPOS>ATOM
      1 C           0.0129   -0.0637    0.0000 C.ar    1  LIG1        0.1605
      2 N           1.3468   -0.0527   -0.0003 N.ar    1  LIG1       -0.1339
      3 C           1.1590    2.2079   -0.0001 C.ar    1  LIG1        0.2099
      4 N          -0.7717    1.0123    0.0003 N.ar    1  LIG1       -0.1339
      5 N           1.9407    1.1127   -0.0004 N.ar    1  LIG1       -0.1253
      6 N          -0.1843    2.1822    0.0003 N.ar    1  LIG1       -0.1253
      7 H          -0.4735   -1.0321    0.0001 H       1  LIG1        0.1085
      8 C           1.8087    3.5024   -0.0002 C.ar    1  LIG1        0.0605
      9 C           3.1568    3.7527   -0.0006 C.ar    1  LIG1       -0.0431
     10 C           3.4548    5.1315   -0.0006 C.ar    1  LIG1       -0.0433
     11 C           2.3270    5.9182   -0.0002 C.ar    1  LIG1        0.0551
     12 S           0.8799    4.9676    0.0001 S.2     1  LIG1       -0.0820
     13 H           3.8922    2.9589   -0.0009 H       1  LIG1        0.0630
     14 H           4.4598    5.5338   -0.0009 H       1  LIG1        0.0630
     15 C           2.2621    7.3604    0.0000 C.ar    1  LIG1        0.1413
     16 C           3.2097    8.3417    0.0002 C.ar    1  LIG1       -0.0154
     17 C           2.5047    9.5814    0.0003 C.ar    1  LIG1       -0.0233
     18 C           1.1862    9.2658    0.0003 C.ar    1  LIG1        0.0926
     19 O           1.0215    7.9211    0.0001 O.2     1  LIG1       -0.4624
     20 H           0.2812    9.8515    0.0004 H       1  LIG1        0.1029
     21 H           4.2795    8.1976    0.0002 H       1  LIG1        0.0655
     22 H           2.9274   10.5745    0.0003 H       1  LIG1        0.0649
@<TRIPOS>BOND
     1    13     9    1
     2    14    10    1
     3     9    10   ar
     4     9     8   ar
     5    10    11   ar
     6     5     2   ar
     7     5     3   ar
     8     2     1   ar
     9     8     3    1
    10     8    12   ar
    11    11    15    1
    12    11    12   ar
    13     3     6   ar
    14    15    19   ar
    15    15    16   ar
    16     1     7    1
    17     1     4   ar
    18    19    18   ar
    19    21    16    1
    20    16    17   ar
    21     6     4   ar
    22    17    18   ar
    23    17    22    1
    24    18    20    1
