@<TRIPOS>MOLECULE
mol_data/opt/cam/geoms/mol2/8513.out
 23 25 0 0 0
SMALL
GASTEIGER

@<TRIPOS>ATOM
      1 C           0.0022   -0.0832    0.0000 C.ar    1  LIG1        0.1605
      2 N           1.3366   -0.0778   -0.0007 N.ar    1  LIG1       -0.1339
      3 C           1.1594    2.1842   -0.0001 C.ar    1  LIG1        0.2098
      4 N          -0.7772    0.9962    0.0007 N.ar    1  LIG1       -0.1339
      5 N           1.9365    1.0841   -0.0008 N.ar    1  LIG1       -0.1253
      6 N          -0.1848    2.1639    0.0006 N.ar    1  LIG1       -0.1253
      7 H          -0.4882   -1.0495    0.0001 H       1  LIG1        0.1085
      8 C           1.8130    3.4729   -0.0002 C.ar    1  LIG1        0.0604
      9 C           3.1587    3.7321   -0.0009 C.ar    1  LIG1       -0.0432
     10 C           3.4572    5.1106   -0.0008 C.ar    1  LIG1       -0.0448
     11 C           2.3344    5.9064    0.0000 C.ar    1  LIG1        0.0361
     12 S           0.8889    4.9442    0.0007 S.2     1  LIG1       -0.0836
     13 H           3.8955    2.9394   -0.0015 H       1  LIG1        0.0630
     14 H           4.4630    5.5097   -0.0014 H       1  LIG1        0.0630
     15 C           2.2819    7.3513    0.0004 C.ar    1  LIG1        0.0531
     16 C           3.3070    8.2795    0.0010 C.ar    1  LIG1       -0.0359
     17 C           2.7246    9.5666    0.0011 C.ar    1  LIG1       -0.0438
     18 C           1.3608    9.3983    0.0006 C.ar    1  LIG1        0.0022
     19 N           1.1012    8.0589    0.0002 N.ar    1  LIG1       -0.3603
     20 H           0.1798    7.6521   -0.0004 H       1  LIG1        0.1653
     21 H           0.5598   10.1214    0.0005 H       1  LIG1        0.0807
     22 H           4.3617    8.0476    0.0013 H       1  LIG1        0.0639
     23 H           3.2457   10.5123    0.0015 H       1  LIG1        0.0633
@<TRIPOS>BOND
     1    13     9    1
     2    14    10    1
     3     9    10   ar
     4     9     8   ar
     5    10    11   ar
     6     5     2   ar
     7     5     3   ar
     8     2     1   ar
     9    20    19    1
    10     8     3    1
    11     8    12   ar
    12     3     6   ar
    13    11    15    1
    14    11    12   ar
    15     1     7    1
    16     1     4   ar
    17    19    15   ar
    18    19    18   ar
    19    15    16   ar
    20    21    18    1
    21    18    17   ar
    22     6     4   ar
    23    16    17   ar
    24    16    22    1
    25    17    23    1
