@<TRIPOS>MOLECULE
mol_data/opt/cam/geoms/mol2/8513-.out
 23 25 0 0 0
SMALL
GASTEIGER

@<TRIPOS>ATOM
      1 C          -0.0157   -0.0676    0.0004 C.ar    1  LIG1        0.1605
      2 N           1.3185   -0.0701   -0.0002 N.ar    1  LIG1       -0.1339
      3 C           1.1542    2.1930   -0.0000 C.ar    1  LIG1        0.2098
      4 N          -0.7890    1.0163    0.0008 N.ar    1  LIG1       -0.1339
      5 N           1.9246    1.0888   -0.0004 N.ar    1  LIG1       -0.1253
      6 N          -0.1899    2.1805    0.0006 N.ar    1  LIG1       -0.1253
      7 H          -0.5119   -1.0311    0.0006 H       1  LIG1        0.1085
      8 C           1.8159    3.4792   -0.0003 C.ar    1  LIG1        0.0604
      9 C           3.1641    3.7208   -0.0009 C.ar    1  LIG1       -0.0432
     10 C           3.4734    5.0980   -0.0010 C.ar    1  LIG1       -0.0448
     11 C           2.3568    5.9036   -0.0004 C.ar    1  LIG1        0.0361
     12 S           0.9038    4.9576    0.0002 S.2     1  LIG1       -0.0836
     13 H           3.8938    2.9217   -0.0013 H       1  LIG1        0.0630
     14 H           4.4893    5.4742   -0.0016 H       1  LIG1        0.0630
     15 C           2.2892    7.3480   -0.0003 C.ar    1  LIG1        0.0531
     16 C           1.2057    8.2061   -0.0006 C.ar    1  LIG1       -0.0359
     17 C           1.7015    9.5295   -0.0003 C.ar    1  LIG1       -0.0438
     18 C           3.0732    9.4511    0.0002 C.ar    1  LIG1        0.0022
     19 N           3.4207    8.1315    0.0001 N.ar    1  LIG1       -0.3603
     20 H           4.3644    7.7834    0.0006 H       1  LIG1        0.1653
     21 H           3.8247   10.2256    0.0005 H       1  LIG1        0.0807
     22 H           0.1678    7.9054   -0.0010 H       1  LIG1        0.0639
     23 H           1.1190   10.4385   -0.0004 H       1  LIG1        0.0633
@<TRIPOS>BOND
     1    14    10    1
     2    13     9    1
     3    10     9   ar
     4    10    11   ar
     5    22    16    1
     6     9     8   ar
     7    16    15   ar
     8    16    17   ar
     9     5     2   ar
    10     5     3   ar
    11    11    15    1
    12    11    12   ar
    13    23    17    1
    14     8     3    1
    15     8    12   ar
    16    15    19   ar
    17    17    18   ar
    18     2     1   ar
    19     3     6   ar
    20    19    18   ar
    21    19    20    1
    22    18    21    1
    23     1     7    1
    24     1     4   ar
    25     6     4   ar
