@<TRIPOS>MOLECULE
mol_data/opt/cam/geoms/mol2/854-.out
 25 27 0 0 0
SMALL
GASTEIGER

@<TRIPOS>ATOM
      1 C          -0.0196   -0.0971    0.0014 C.ar    1  LIG1        0.1605
      2 N           1.3143   -0.0979   -0.0000 N.ar    1  LIG1       -0.1339
      3 C           1.1464    2.1642    0.0002 C.ar    1  LIG1        0.2098
      4 N          -0.7946    0.9857    0.0022 N.ar    1  LIG1       -0.1339
      5 N           1.9184    1.0623   -0.0007 N.ar    1  LIG1       -0.1253
      6 N          -0.1967    2.1505    0.0016 N.ar    1  LIG1       -0.1253
      7 H          -0.5145   -1.0612    0.0019 H       1  LIG1        0.1085
      8 C           1.8092    3.4529   -0.0006 C.ar    1  LIG1        0.0604
      9 C           3.1574    3.6928   -0.0021 C.ar    1  LIG1       -0.0432
     10 C           3.4648    5.0709   -0.0024 C.ar    1  LIG1       -0.0462
     11 C           2.3536    5.8801   -0.0011 C.ar    1  LIG1        0.0200
     12 S           0.9011    4.9280    0.0005 S.2     1  LIG1       -0.0850
     13 H           3.8877    2.8943   -0.0029 H       1  LIG1        0.0630
     14 H           4.4789    5.4477   -0.0037 H       1  LIG1        0.0629
     15 C           1.0822    8.0363   -0.0028 C.ar    1  LIG1       -0.0535
     16 C           1.0440    9.4230   -0.0026 C.ar    1  LIG1       -0.0612
     17 C           2.3016    7.3498   -0.0010 C.ar    1  LIG1       -0.0113
     18 C           2.2240   10.1567   -0.0008 C.ar    1  LIG1       -0.0617
     19 H           0.0855    9.9314   -0.0040 H       1  LIG1        0.0618
     20 C           3.4825    8.1022    0.0009 C.ar    1  LIG1       -0.0535
     21 C           3.4432    9.4883    0.0009 C.ar    1  LIG1       -0.0612
     22 H           4.4438    7.6017    0.0025 H       1  LIG1        0.0624
     23 H           2.1944   11.2412   -0.0007 H       1  LIG1        0.0618
     24 H           0.1479    7.4840   -0.0044 H       1  LIG1        0.0624
     25 H           4.3720   10.0493    0.0024 H       1  LIG1        0.0618
@<TRIPOS>BOND
     1    24    15    1
     2    19    16    1
     3    14    10    1
     4    13     9    1
     5    15    16   ar
     6    15    17   ar
     7    16    18   ar
     8    10     9   ar
     9    10    11   ar
    10     9     8   ar
    11    11    17    1
    12    11    12   ar
    13    17    20   ar
    14    18    23    1
    15    18    21   ar
    16     5     2   ar
    17     5     3   ar
    18     8     3    1
    19     8    12   ar
    20     2     1   ar
    21     3     6   ar
    22    20    21   ar
    23    20    22    1
    24    21    25    1
    25     1     7    1
    26     1     4   ar
    27     6     4   ar
