@<TRIPOS>MOLECULE
mol_data/opt/cam/geoms/mol2/854-4.out
 35 38 0 0 0
SMALL
GASTEIGER

@<TRIPOS>ATOM
      1 C           0.0051   -0.2084    0.1287 C.ar    1  LIG1        0.1605
      2 N           1.3330   -0.2006    0.0024 N.ar    1  LIG1       -0.1339
      3 C           1.1530    2.0606    0.0353 C.ar    1  LIG1        0.2098
      4 N          -0.7727    0.8693    0.2101 N.ar    1  LIG1       -0.1339
      5 N           1.9278    0.9636   -0.0454 N.ar    1  LIG1       -0.1253
      6 N          -0.1842    2.0381    0.1617 N.ar    1  LIG1       -0.1253
      7 H          -0.4821   -1.1756    0.1682 H       1  LIG1        0.1085
      8 C           1.8053    3.3537   -0.0169 C.ar    1  LIG1        0.0604
      9 C           3.1469    3.6003   -0.1460 C.ar    1  LIG1       -0.0432
     10 C           3.4474    4.9804   -0.1657 C.ar    1  LIG1       -0.0462
     11 C           2.3356    5.7789   -0.0515 C.ar    1  LIG1        0.0200
     12 S           0.8947    4.8246    0.0916 S.2     1  LIG1       -0.0850
     13 H           3.8751    2.8045   -0.2322 H       1  LIG1        0.0630
     14 H           4.4474    5.3762   -0.2898 H       1  LIG1        0.0629
     15 C           1.1640    7.9448   -0.4977 C.ar    1  LIG1       -0.0530
     16 C           1.1345    9.3299   -0.4806 C.ar    1  LIG1       -0.0534
     17 C           2.2829    7.2455   -0.0350 C.ar    1  LIG1       -0.0113
     18 C           2.2204   10.0709   -0.0061 C.ar    1  LIG1       -0.0178
     19 H           0.2652    9.8475   -0.8719 H       1  LIG1        0.0624
     20 C           3.3684    7.9843    0.4473 C.ar    1  LIG1       -0.0530
     21 C           3.3376    9.3688    0.4566 C.ar    1  LIG1       -0.0534
     22 H           4.2330    7.4658    0.8474 H       1  LIG1        0.0624
     23 H           0.3172    7.3994   -0.9019 H       1  LIG1        0.0624
     24 H           4.1817    9.9166    0.8620 H       1  LIG1        0.0624
     25 C           3.3302   12.2970   -0.3016 C.ar    1  LIG1       -0.0540
     26 C           3.3009   13.6851   -0.2868 C.ar    1  LIG1       -0.0612
     27 C           2.1882   11.5530    0.0090 C.ar    1  LIG1       -0.0179
     28 C           2.1280   14.3565    0.0384 C.ar    1  LIG1       -0.0617
     29 H           4.1963   14.2443   -0.5385 H       1  LIG1        0.0618
     30 C           1.0152   12.2406    0.3343 C.ar    1  LIG1       -0.0540
     31 C           0.9851   13.6286    0.3487 C.ar    1  LIG1       -0.0612
     32 H           0.1252   11.6804    0.6022 H       1  LIG1        0.0624
     33 H           2.1047   15.4412    0.0498 H       1  LIG1        0.0618
     34 H           4.2434   11.7814   -0.5810 H       1  LIG1        0.0624
     35 H           0.0666   14.1435    0.6114 H       1  LIG1        0.0618
@<TRIPOS>BOND
     1    23    15    1
     2    19    16    1
     3    34    25    1
     4    29    26    1
     5    15    16   ar
     6    15    17   ar
     7    16    18   ar
     8    25    26   ar
     9    25    27   ar
    10    14    10    1
    11    26    28   ar
    12    13     9    1
    13    10     9   ar
    14    10    11   ar
    15     9     8   ar
    16    11    17    1
    17    11    12   ar
    18     5     2   ar
    19     5     3   ar
    20    17    20   ar
    21     8     3    1
    22     8    12   ar
    23    18    27    1
    24    18    21   ar
    25     2     1   ar
    26    27    30   ar
    27     3     6   ar
    28    28    33    1
    29    28    31   ar
    30     1     7    1
    31     1     4   ar
    32     6     4   ar
    33    30    31   ar
    34    30    32    1
    35    31    35    1
    36    20    21   ar
    37    20    22    1
    38    21    24    1
