@<TRIPOS>MOLECULE
mol_data/opt/cam/geoms/mol2/854-8-.out
 31 34 0 0 0
SMALL
GASTEIGER

@<TRIPOS>ATOM
      1 C          -0.0260   -0.1485    0.0019 C.ar    1  LIG1        0.1605
      2 N           1.3079   -0.1508    0.0009 N.ar    1  LIG1       -0.1339
      3 C           1.1416    2.1106    0.0005 C.ar    1  LIG1        0.2098
      4 N          -0.8002    0.9350    0.0022 N.ar    1  LIG1       -0.1339
      5 N           1.9128    1.0093    0.0002 N.ar    1  LIG1       -0.1253
      6 N          -0.2008    2.0991    0.0015 N.ar    1  LIG1       -0.1253
      7 H          -0.5219   -1.1121    0.0025 H       1  LIG1        0.1085
      8 C           1.8066    3.3999   -0.0004 C.ar    1  LIG1        0.0604
      9 C           3.1556    3.6364   -0.0015 C.ar    1  LIG1       -0.0432
     10 C           3.4650    5.0136   -0.0021 C.ar    1  LIG1       -0.0462
     11 C           2.3541    5.8237   -0.0014 C.ar    1  LIG1        0.0200
     12 S           0.8998    4.8741   -0.0001 S.2     1  LIG1       -0.0850
     13 H           3.8843    2.8366   -0.0019 H       1  LIG1        0.0630
     14 H           4.4796    5.3888   -0.0031 H       1  LIG1        0.0629
     15 C           1.0881    7.9827   -0.0034 C.ar    1  LIG1       -0.0529
     16 C           1.0495    9.3655   -0.0037 C.ar    1  LIG1       -0.0503
     17 C           2.3059    7.2912   -0.0017 C.ar    1  LIG1       -0.0113
     18 C           2.2348   10.1032   -0.0024 C.ar    1  LIG1        0.0227
     19 H           0.1005    9.8874   -0.0051 H       1  LIG1        0.0625
     20 C           3.4886    8.0430   -0.0003 C.ar    1  LIG1       -0.0529
     21 C           3.4562    9.4251   -0.0007 C.ar    1  LIG1       -0.0503
     22 H           4.4500    7.5433    0.0012 H       1  LIG1        0.0624
     23 H           0.1516    7.4350   -0.0046 H       1  LIG1        0.0624
     24 H           4.3771    9.9951    0.0004 H       1  LIG1        0.0625
     25 C           2.1986   11.5760   -0.0028 C.ar    1  LIG1        0.2033
     26 N           0.9987   12.1775   -0.0042 N.ar    1  LIG1       -0.1258
     27 C           2.1361   14.1246   -0.0030 C.ar    1  LIG1        0.1605
     28 N           3.3675   12.2355   -0.0014 N.ar    1  LIG1       -0.1258
     29 N           0.9668   13.4867   -0.0045 N.ar    1  LIG1       -0.1339
     30 N           3.3352   13.5449   -0.0016 N.ar    1  LIG1       -0.1339
     31 H           2.1095   15.2082   -0.0036 H       1  LIG1        0.1085
@<TRIPOS>BOND
     1    19    16    1
     2    23    15    1
     3    29    26   ar
     4    29    27   ar
     5    26    25   ar
     6    16    15   ar
     7    16    18   ar
     8    31    27    1
     9    15    17   ar
    10    14    10    1
    11    27    30   ar
    12    25    18    1
    13    25    28   ar
    14    18    21   ar
    15    10     9   ar
    16    10    11   ar
    17    13     9    1
    18    17    11    1
    19    17    20   ar
    20    30    28   ar
    21     9     8   ar
    22    11    12   ar
    23    21    20   ar
    24    21    24    1
    25     8    12   ar
    26     8     3    1
    27    20    22    1
    28     5     3   ar
    29     5     2   ar
    30     3     6   ar
    31     2     1   ar
    32     6     4   ar
    33     1     4   ar
    34     1     7    1
