@<TRIPOS>MOLECULE
mol_data/opt/cam/geoms/mol2/854.out
 25 27 0 0 0
SMALL
GASTEIGER

@<TRIPOS>ATOM
      1 C           0.0467   -0.1195    0.2276 C.ar    1  LIG1        0.1605
      2 N           1.3462   -0.0989   -0.0730 N.ar    1  LIG1       -0.1339
      3 C           1.1656    2.1590    0.0517 C.ar    1  LIG1        0.2098
      4 N          -0.7163    0.9499    0.4444 N.ar    1  LIG1       -0.1339
      5 N           1.9261    1.0702   -0.1638 N.ar    1  LIG1       -0.1253
      6 N          -0.1425    2.1237    0.3539 N.ar    1  LIG1       -0.1253
      7 H          -0.4282   -1.0908    0.3016 H       1  LIG1        0.1085
      8 C           1.8013    3.4578   -0.0478 C.ar    1  LIG1        0.0604
      9 C           3.1120    3.7183   -0.3495 C.ar    1  LIG1       -0.0432
     10 C           3.4020    5.1011   -0.3677 C.ar    1  LIG1       -0.0462
     11 C           2.3131    5.8867   -0.0802 C.ar    1  LIG1        0.0200
     12 S           0.9085    4.9177    0.2273 S.2     1  LIG1       -0.0850
     13 H           3.8247    2.9311   -0.5577 H       1  LIG1        0.0630
     14 H           4.3745    5.5083   -0.6134 H       1  LIG1        0.0629
     15 C           3.3927    8.0810    0.3582 C.ar    1  LIG1       -0.0535
     16 C           3.3578    9.4667    0.4123 C.ar    1  LIG1       -0.0612
     17 C           2.2567    7.3534   -0.0126 C.ar    1  LIG1       -0.0113
     18 C           2.1857   10.1505    0.1083 C.ar    1  LIG1       -0.0617
     19 H           4.2477   10.0148    0.7040 H       1  LIG1        0.0618
     20 C           1.0836    8.0514   -0.3169 C.ar    1  LIG1       -0.0535
     21 C           1.0487    9.4373   -0.2532 C.ar    1  LIG1       -0.0612
     22 H           0.1974    7.5053   -0.6241 H       1  LIG1        0.0624
     23 H           2.1582   11.2340    0.1553 H       1  LIG1        0.0618
     24 H           4.3014    7.5527    0.6259 H       1  LIG1        0.0624
     25 H           0.1305    9.9620   -0.4955 H       1  LIG1        0.0618
@<TRIPOS>BOND
     1    22    20    1
     2    14    10    1
     3    13     9    1
     4    25    21    1
     5    10     9   ar
     6    10    11   ar
     7     9     8   ar
     8    20    21   ar
     9    20    17   ar
    10    21    18   ar
    11     5     2   ar
    12     5     3   ar
    13    11    17    1
    14    11    12   ar
    15     2     1   ar
    16     8     3    1
    17     8    12   ar
    18    17    15   ar
    19     3     6   ar
    20    18    23    1
    21    18    16   ar
    22     1     7    1
    23     1     4   ar
    24     6     4   ar
    25    15    16   ar
    26    15    24    1
    27    16    19    1
