@<TRIPOS>MOLECULE
mol_data/opt/cam/geoms/mol2/85513.out
 30 33 0 0 0
SMALL
GASTEIGER

@<TRIPOS>ATOM
      1 C           0.0388   -0.1767    0.0005 C.ar    1  LIG1        0.1605
      2 N           1.3730   -0.1680   -0.0007 N.ar    1  LIG1       -0.1339
      3 C           1.1896    2.0932   -0.0001 C.ar    1  LIG1        0.2098
      4 N          -0.7437    0.9008    0.0014 N.ar    1  LIG1       -0.1339
      5 N           1.9695    0.9959   -0.0009 N.ar    1  LIG1       -0.1253
      6 N          -0.1541    2.0698    0.0011 N.ar    1  LIG1       -0.1253
      7 H          -0.4493   -1.1443    0.0007 H       1  LIG1        0.1085
      8 C           1.8410    3.3849   -0.0004 C.ar    1  LIG1        0.0604
      9 C           3.1879    3.6398   -0.0015 C.ar    1  LIG1       -0.0432
     10 C           3.4860    5.0174   -0.0015 C.ar    1  LIG1       -0.0457
     11 C           2.3621    5.8143   -0.0004 C.ar    1  LIG1        0.0266
     12 S           0.9170    4.8531    0.0007 S.2     1  LIG1       -0.0845
     13 H           3.9243    2.8468   -0.0023 H       1  LIG1        0.0630
     14 H           4.4934    5.4127   -0.0023 H       1  LIG1        0.0629
     15 C           2.3199    7.2629   -0.0000 C.ar    1  LIG1        0.0265
     16 C           3.3788    8.1336   -0.0003 C.ar    1  LIG1       -0.0458
     17 C           2.9990    9.4958    0.0001 C.ar    1  LIG1       -0.0449
     18 C           1.6406    9.6837    0.0007 C.ar    1  LIG1        0.0361
     19 S           0.8194    8.1505    0.0008 S.2     1  LIG1       -0.0863
     20 H           4.4104    7.8043   -0.0007 H       1  LIG1        0.0629
     21 H           3.7056   10.3157   -0.0001 H       1  LIG1        0.0630
     22 C           0.9137   10.9348    0.0011 C.ar    1  LIG1        0.0531
     23 C           1.3818   12.2354    0.0022 C.ar    1  LIG1       -0.0359
     24 C           0.2616   13.0979    0.0023 C.ar    1  LIG1       -0.0438
     25 C          -0.8626   12.3090    0.0012 C.ar    1  LIG1        0.0022
     26 N          -0.4605   11.0037    0.0006 N.ar    1  LIG1       -0.3603
     27 H          -1.0824   10.2116   -0.0004 H       1  LIG1        0.1653
     28 H          -1.9096   12.5697    0.0009 H       1  LIG1        0.0807
     29 H           2.4217   12.5268    0.0029 H       1  LIG1        0.0639
     30 H           0.2771   14.1776    0.0030 H       1  LIG1        0.0633
@<TRIPOS>BOND
     1    14    10    1
     2    13     9    1
     3    10     9   ar
     4    10    11   ar
     5     9     8   ar
     6     5     2   ar
     7     5     3   ar
     8    20    16    1
     9     2     1   ar
    10    27    26    1
    11     8     3    1
    12     8    12   ar
    13    11    15    1
    14    11    12   ar
    15    16    15   ar
    16    16    17   ar
    17    21    17    1
    18     3     6   ar
    19    15    19   ar
    20    17    18   ar
    21     1     7    1
    22     1     4   ar
    23    26    22   ar
    24    26    25   ar
    25    18    19   ar
    26    18    22    1
    27    28    25    1
    28     6     4   ar
    29    22    23   ar
    30    25    24   ar
    31    23    24   ar
    32    23    29    1
    33    24    30    1
