@<TRIPOS>MOLECULE
mol_data/opt/cam/geoms/mol2/858-.out
 21 23 0 0 0
SMALL
GASTEIGER

@<TRIPOS>ATOM
      1 C           0.0020   -0.0436   -0.0000 C.ar    1  LIG1        0.1605
      2 N           1.3356   -0.0383   -0.0004 N.ar    1  LIG1       -0.1339
      3 C           1.1547    2.2207   -0.0001 C.ar    1  LIG1        0.2099
      4 N          -0.7795    1.0351    0.0003 N.ar    1  LIG1       -0.1339
      5 N           1.9329    1.1266   -0.0004 N.ar    1  LIG1       -0.1253
      6 N          -0.1863    2.2024    0.0002 N.ar    1  LIG1       -0.1253
      7 H          -0.4882   -1.0102    0.0000 H       1  LIG1        0.1085
      8 C           1.8120    3.5189   -0.0002 C.ar    1  LIG1        0.0605
      9 C           3.1640    3.7534   -0.0006 C.ar    1  LIG1       -0.0431
     10 C           3.4685    5.1310   -0.0005 C.ar    1  LIG1       -0.0431
     11 C           2.3411    5.9133   -0.0001 C.ar    1  LIG1        0.0605
     12 S           0.8861    4.9792    0.0002 S.2     1  LIG1       -0.0818
     13 H           3.8929    2.9539   -0.0008 H       1  LIG1        0.0630
     14 H           4.4663    5.5489   -0.0008 H       1  LIG1        0.0630
     15 C           2.2921    7.3676    0.0000 C.ar    1  LIG1        0.2099
     16 N           1.0836    7.9494    0.0004 N.ar    1  LIG1       -0.1253
     17 C           2.2009    9.9069    0.0004 C.ar    1  LIG1        0.1605
     18 N           3.4588    8.0319   -0.0002 N.ar    1  LIG1       -0.1253
     19 N           1.0375    9.2579    0.0006 N.ar    1  LIG1       -0.1339
     20 N           3.4079    9.3401   -0.0000 N.ar    1  LIG1       -0.1339
     21 H           2.1635   10.9900    0.0004 H       1  LIG1        0.1085
@<TRIPOS>BOND
     1    13     9    1
     2    14    10    1
     3     9    10   ar
     4     9     8   ar
     5    10    11   ar
     6     5     2   ar
     7     5     3   ar
     8     2     1   ar
     9     8     3    1
    10     8    12   ar
    11    18    20   ar
    12    18    15   ar
    13     3     6   ar
    14    11    15    1
    15    11    12   ar
    16    20    17   ar
    17     1     7    1
    18     1     4   ar
    19    15    16   ar
    20     6     4   ar
    21    17    21    1
    22    17    19   ar
    23    16    19   ar
