@<TRIPOS>MOLECULE
mol_data/opt/cam/geoms/mol2/858-8-.out
 27 30 0 0 0
SMALL
GASTEIGER

@<TRIPOS>ATOM
      1 C           0.0057   -0.0758   -0.0002 C.ar    1  LIG1        0.1605
      2 N           1.3393   -0.0674   -0.0005 N.ar    1  LIG1       -0.1339
      3 C           1.1527    2.1906   -0.0002 C.ar    1  LIG1        0.2099
      4 N          -0.7785    1.0011    0.0002 N.ar    1  LIG1       -0.1339
      5 N           1.9337    1.0991   -0.0005 N.ar    1  LIG1       -0.1253
      6 N          -0.1879    2.1697    0.0002 N.ar    1  LIG1       -0.1253
      7 H          -0.4823   -1.0435   -0.0002 H       1  LIG1        0.1085
      8 C           1.8078    3.4908   -0.0002 C.ar    1  LIG1        0.0605
      9 C           3.1604    3.7259   -0.0005 C.ar    1  LIG1       -0.0431
     10 C           3.4635    5.1027   -0.0004 C.ar    1  LIG1       -0.0431
     11 C           2.3342    5.8845   -0.0000 C.ar    1  LIG1        0.0605
     12 S           0.8796    4.9484    0.0002 S.2     1  LIG1       -0.0818
     13 H           3.8896    2.9269   -0.0008 H       1  LIG1        0.0630
     14 H           4.4610    5.5216   -0.0006 H       1  LIG1        0.0630
     15 C           2.2869    7.3346    0.0002 C.ar    1  LIG1        0.2099
     16 N           1.0804    7.9229    0.0006 N.ar    1  LIG1       -0.1246
     17 C           2.2000    9.8833    0.0006 C.ar    1  LIG1        0.2435
     18 N           3.4538    8.0012    0.0000 N.ar    1  LIG1       -0.1246
     19 N           1.0364    9.2271    0.0008 N.ar    1  LIG1       -0.1218
     20 N           3.4060    9.3049    0.0002 N.ar    1  LIG1       -0.1218
     21 C           2.1516   11.3711    0.0007 C.ar    1  LIG1        0.2434
     22 N           0.9447   11.9450    0.0013 N.ar    1  LIG1       -0.1224
     23 C           2.0691   13.9011    0.0013 C.ar    1  LIG1        0.1605
     24 N           3.3185   12.0224    0.0005 N.ar    1  LIG1       -0.1224
     25 N           0.9033   13.2560    0.0015 N.ar    1  LIG1       -0.1338
     26 N           3.2743   13.3334    0.0007 N.ar    1  LIG1       -0.1338
     27 H           2.0337   14.9847    0.0013 H       1  LIG1        0.1085
@<TRIPOS>BOND
     1    13     9    1
     2    14    10    1
     3     9    10   ar
     4     9     8   ar
     5     5     2   ar
     6     5     3   ar
     7     2     1   ar
     8    10    11   ar
     9     8     3    1
    10     8    12   ar
    11     3     6   ar
    12     7     1    1
    13     1     4   ar
    14    11    15    1
    15    11    12   ar
    16    18    20   ar
    17    18    15   ar
    18     6     4   ar
    19    20    17   ar
    20    15    16   ar
    21    24    26   ar
    22    24    21   ar
    23    17    21    1
    24    17    19   ar
    25    16    19   ar
    26    26    23   ar
    27    21    22   ar
    28    27    23    1
    29    23    25   ar
    30    22    25   ar
