@<TRIPOS>MOLECULE
mol_data/opt/cam/geoms/mol2/88-.out
 14 15 0 0 0
SMALL
GASTEIGER

@<TRIPOS>ATOM
      1 C           0.0056    0.0111   -0.0000 C.ar    1  LIG1        0.1605
      2 N           1.3378    0.0228    0.0001 N.ar    1  LIG1       -0.1338
      3 C           1.1374    2.2741    0.0000 C.ar    1  LIG1        0.2434
      4 N          -0.7842    1.0841   -0.0001 N.ar    1  LIG1       -0.1338
      5 N           1.9255    1.1958    0.0001 N.ar    1  LIG1       -0.1224
      6 N          -0.1982    2.2580   -0.0001 N.ar    1  LIG1       -0.1224
      7 H          -0.4794   -0.9586   -0.0000 H       1  LIG1        0.1085
      8 C           1.8050    3.6090    0.0001 C.ar    1  LIG1        0.2434
      9 N           1.0168    4.6873    0.0001 N.ar    1  LIG1       -0.1224
     10 C           2.9368    5.8720   -0.0002 C.ar    1  LIG1        0.1605
     11 N           3.1405    3.6252   -0.0001 N.ar    1  LIG1       -0.1224
     12 N           1.6045    5.8603    0.0001 N.ar    1  LIG1       -0.1338
     13 N           3.7265    4.7990   -0.0001 N.ar    1  LIG1       -0.1338
     14 H           3.4218    6.8418    0.0001 H       1  LIG1        0.1085
@<TRIPOS>BOND
     1    10    13   ar
     2    10    12   ar
     3    10    14    1
     4     4     6   ar
     5     4     1   ar
     6     6     3   ar
     7    13    11   ar
     8    11     8   ar
     9     7     1    1
    10     1     2   ar
    11     3     8    1
    12     3     5   ar
    13    12     9   ar
    14     8     9   ar
    15     2     5   ar
