@<TRIPOS>MOLECULE
mol_data/opt/cam/geoms/mol2/88-13.out
 22 24 0 0 0
SMALL
GASTEIGER

@<TRIPOS>ATOM
      1 C          -0.0265    0.0063   -0.0002 C.ar    1  LIG1        0.1605
      2 N           1.3055    0.0062   -0.0000 N.ar    1  LIG1       -0.1338
      3 C           1.1283    2.2617   -0.0000 C.ar    1  LIG1        0.2434
      4 N          -0.8054    1.0869   -0.0003 N.ar    1  LIG1       -0.1338
      5 N           1.9051    1.1729    0.0001 N.ar    1  LIG1       -0.1224
      6 N          -0.2092    2.2553   -0.0002 N.ar    1  LIG1       -0.1224
      7 H          -0.5206   -0.9588   -0.0003 H       1  LIG1        0.1085
      8 C           1.8051    3.5854    0.0001 C.ar    1  LIG1        0.2435
      9 N           1.0328    4.6747    0.0002 N.ar    1  LIG1       -0.1218
     10 C           2.9749    5.8561    0.0003 C.ar    1  LIG1        0.2194
     11 N           3.1448    3.5962    0.0001 N.ar    1  LIG1       -0.1218
     12 N           1.6277    5.8358    0.0003 N.ar    1  LIG1       -0.1236
     13 N           3.7474    4.7503    0.0002 N.ar    1  LIG1       -0.1236
     14 C           3.6124    7.1416    0.0003 C.ar    1  LIG1        0.0875
     15 C           4.9490    7.5031    0.0001 C.ar    1  LIG1       -0.0333
     16 C           4.9982    8.9094    0.0007 C.ar    1  LIG1       -0.0437
     17 C           3.6940    9.3674    0.0002 C.ar    1  LIG1        0.0023
     18 N           2.8659    8.2952    0.0003 N.ar    1  LIG1       -0.3582
     19 H           1.8571    8.2961    0.0002 H       1  LIG1        0.1654
     20 H           3.3062   10.3749    0.0002 H       1  LIG1        0.0807
     21 H           5.7772    6.8110   -0.0000 H       1  LIG1        0.0640
     22 H           5.8835    9.5272    0.0011 H       1  LIG1        0.0633
@<TRIPOS>BOND
     1     4     6   ar
     2     4     1   ar
     3     7     1    1
     4     6     3   ar
     5     1     2   ar
     6    21    15    1
     7     3     8    1
     8     3     5   ar
     9     2     5   ar
    10    11     8   ar
    11    11    13   ar
    12     8     9   ar
    13    15    14   ar
    14    15    16   ar
    15    13    10   ar
    16    20    17    1
    17     9    12   ar
    18    17    18   ar
    19    17    16   ar
    20    19    18    1
    21    18    14   ar
    22    14    10    1
    23    12    10   ar
    24    16    22    1
