@<TRIPOS>MOLECULE
mol_data/opt/cam/geoms/mol2/88-1312-.out
 29 32 0 0 0
SMALL
GASTEIGER

@<TRIPOS>ATOM
      1 C          -0.0544    0.0035   -0.0003 C.ar    1  LIG1        0.1605
      2 N           1.2775   -0.0076   -0.0002 N.ar    1  LIG1       -0.1338
      3 C           1.1196    2.2494   -0.0002 C.ar    1  LIG1        0.2434
      4 N          -0.8240    1.0907   -0.0004 N.ar    1  LIG1       -0.1338
      5 N           1.8870    1.1537   -0.0001 N.ar    1  LIG1       -0.1224
      6 N          -0.2182    2.2539   -0.0003 N.ar    1  LIG1       -0.1224
      7 H          -0.5566   -0.9574   -0.0005 H       1  LIG1        0.1085
      8 C           1.8069    3.5668   -0.0000 C.ar    1  LIG1        0.2435
      9 N           1.0440    4.6629    0.0001 N.ar    1  LIG1       -0.1218
     10 C           2.9962    5.8275    0.0002 C.ar    1  LIG1        0.2194
     11 N           3.1475    3.5665   -0.0000 N.ar    1  LIG1       -0.1218
     12 N           1.6479    5.8185    0.0002 N.ar    1  LIG1       -0.1236
     13 N           3.7598    4.7142    0.0001 N.ar    1  LIG1       -0.1236
     14 C           3.6423    7.1053    0.0005 C.ar    1  LIG1        0.0880
     15 C           4.9829    7.4595    0.0007 C.ar    1  LIG1       -0.0325
     16 C           5.0441    8.8598    0.0005 C.ar    1  LIG1       -0.0327
     17 C           3.7369    9.3365    0.0008 C.ar    1  LIG1        0.0826
     18 N           2.9027    8.2636    0.0008 N.ar    1  LIG1       -0.3492
     19 H           1.8938    8.2682    0.0008 H       1  LIG1        0.1661
     20 H           5.8064    6.7619    0.0006 H       1  LIG1        0.0640
     21 H           5.9275    9.4792    0.0004 H       1  LIG1        0.0640
     22 C           3.2519   10.6945    0.0011 C.ar    1  LIG1        0.1509
     23 C           2.0086   11.2548    0.0016 C.ar    1  LIG1       -0.0144
     24 C           2.2060   12.6682    0.0016 C.ar    1  LIG1       -0.0233
     25 C           3.5473   12.8602    0.0012 C.ar    1  LIG1        0.0926
     26 O           4.1982   11.6710    0.0007 O.2     1  LIG1       -0.4615
     27 H           4.1721   13.7387    0.0011 H       1  LIG1        0.1029
     28 H           1.0631   10.7324    0.0020 H       1  LIG1        0.0656
     29 H           1.4462   13.4347    0.0019 H       1  LIG1        0.0649
@<TRIPOS>BOND
     1     7     1    1
     2     4     1   ar
     3     4     6   ar
     4     1     2   ar
     5     6     3   ar
     6     2     5   ar
     7     3     5   ar
     8     3     8    1
     9    11     8   ar
    10    11    13   ar
    11     8     9   ar
    12    13    10   ar
    13     9    12   ar
    14    10    12   ar
    15    10    14    1
    16    21    16    1
    17    14    15   ar
    18    14    18   ar
    19    16    15   ar
    20    16    17   ar
    21    20    15    1
    22    26    22   ar
    23    26    25   ar
    24    18    19    1
    25    18    17   ar
    26    17    22    1
    27    27    25    1
    28    22    23   ar
    29    25    24   ar
    30    24    23   ar
    31    24    29    1
    32    23    28    1
