@<TRIPOS>MOLECULE
mol_data/opt/cam/geoms/mol2/88-13-.out
 22 24 0 0 0
SMALL
GASTEIGER

@<TRIPOS>ATOM
      1 C           0.0209   -0.0175    0.0002 C.ar    1  LIG1        0.1605
      2 N           1.3528    0.0075    0.0002 N.ar    1  LIG1       -0.1338
      3 C           1.1329    2.2594    0.0000 C.ar    1  LIG1        0.2434
      4 N          -0.7781    1.0483    0.0001 N.ar    1  LIG1       -0.1338
      5 N           1.9300    1.1854    0.0001 N.ar    1  LIG1       -0.1224
      6 N          -0.2042    2.2279   -0.0000 N.ar    1  LIG1       -0.1224
      7 H          -0.4549   -0.9917    0.0003 H       1  LIG1        0.1085
      8 C           1.7860    3.5950   -0.0001 C.ar    1  LIG1        0.2435
      9 N           0.9911    4.6734    0.0000 N.ar    1  LIG1       -0.1218
     10 C           2.9012    5.8930   -0.0003 C.ar    1  LIG1        0.2194
     11 N           3.1209    3.6304   -0.0003 N.ar    1  LIG1       -0.1218
     12 N           1.5531    5.8477   -0.0001 N.ar    1  LIG1       -0.1236
     13 N           3.6930    4.8029   -0.0004 N.ar    1  LIG1       -0.1236
     14 C           3.5474    7.1741   -0.0003 C.ar    1  LIG1        0.0875
     15 C           3.0349    8.4604   -0.0000 C.ar    1  LIG1       -0.0333
     16 C           4.1306    9.3433   -0.0007 C.ar    1  LIG1       -0.0437
     17 C           5.2794    8.5745   -0.0003 C.ar    1  LIG1        0.0023
     18 N           4.9182    7.2688   -0.0004 N.ar    1  LIG1       -0.3582
     19 H           5.5240    6.4622   -0.0004 H       1  LIG1        0.1654
     20 H           6.3180    8.8686   -0.0003 H       1  LIG1        0.0807
     21 H           1.9844    8.7079    0.0002 H       1  LIG1        0.0640
     22 H           4.0939   10.4222   -0.0010 H       1  LIG1        0.0633
@<TRIPOS>BOND
     1    22    16    1
     2    16    17   ar
     3    16    15   ar
     4    13    10   ar
     5    13    11   ar
     6    19    18    1
     7    18    14   ar
     8    18    17   ar
     9    20    17    1
    10    10    14    1
    11    10    12   ar
    12    14    15   ar
    13    11     8   ar
    14     8     3    1
    15     8     9   ar
    16    12     9   ar
    17     6     3   ar
    18     6     4   ar
    19    15    21    1
    20     3     5   ar
    21     4     1   ar
    22     5     2   ar
    23     1     2   ar
    24     1     7    1
