@<TRIPOS>MOLECULE
mol_data/opt/cam/geoms/mol2/88-13-12.out
 29 32 0 0 0
SMALL
GASTEIGER

@<TRIPOS>ATOM
      1 C           0.0356   -0.0415    0.0004 C.ar    1  LIG1        0.1605
      2 N           1.3672   -0.0052    0.0001 N.ar    1  LIG1       -0.1338
      3 C           1.1284    2.2451    0.0001 C.ar    1  LIG1        0.2434
      4 N          -0.7723    1.0176    0.0006 N.ar    1  LIG1       -0.1338
      5 N           1.9345    1.1774   -0.0001 N.ar    1  LIG1       -0.1224
      6 N          -0.2086    2.2020    0.0004 N.ar    1  LIG1       -0.1224
      7 H          -0.4321   -1.0196    0.0006 H       1  LIG1        0.1085
      8 C           1.7702    3.5853   -0.0001 C.ar    1  LIG1        0.2435
      9 N           0.9658    4.6577    0.0002 N.ar    1  LIG1       -0.1218
     10 C           2.8657    5.8930   -0.0005 C.ar    1  LIG1        0.2194
     11 N           3.1049    3.6322   -0.0006 N.ar    1  LIG1       -0.1218
     12 N           1.5168    5.8362   -0.0000 N.ar    1  LIG1       -0.1236
     13 N           3.6674    4.8089   -0.0008 N.ar    1  LIG1       -0.1236
     14 C           3.5004    7.1765   -0.0005 C.ar    1  LIG1        0.0880
     15 C           2.9795    8.4612   -0.0000 C.ar    1  LIG1       -0.0325
     16 C           4.0632    9.3504   -0.0009 C.ar    1  LIG1       -0.0327
     17 C           5.2287    8.5908   -0.0009 C.ar    1  LIG1        0.0826
     18 N           4.8708    7.2796   -0.0008 N.ar    1  LIG1       -0.3492
     19 H           5.4798    6.4752   -0.0008 H       1  LIG1        0.1661
     20 H           1.9274    8.7018    0.0004 H       1  LIG1        0.0640
     21 H           4.0284   10.4288   -0.0011 H       1  LIG1        0.0640
     22 C           6.6061    9.0172   -0.0013 C.ar    1  LIG1        0.1509
     23 C           7.7999    8.3579   -0.0017 C.ar    1  LIG1       -0.0144
     24 C           8.8127    9.3634   -0.0020 C.ar    1  LIG1       -0.0233
     25 C           8.1623   10.5520   -0.0016 C.ar    1  LIG1        0.0926
     26 O           6.8203   10.3598   -0.0014 O.2     1  LIG1       -0.4615
     27 H           8.4909   11.5787   -0.0016 H       1  LIG1        0.1029
     28 H           7.9488    7.2881   -0.0018 H       1  LIG1        0.0656
     29 H           9.8817    9.2147   -0.0024 H       1  LIG1        0.0649
@<TRIPOS>BOND
     1    29    24    1
     2    24    23   ar
     3    24    25   ar
     4    28    23    1
     5    23    22   ar
     6    25    27    1
     7    25    26   ar
     8    26    22   ar
     9    22    17    1
    10    21    16    1
    11    17    16   ar
    12    17    18   ar
    13    16    15   ar
    14    19    18    1
    15    13    11   ar
    16    13    10   ar
    17    18    14   ar
    18    11     8   ar
    19    10    14    1
    20    10    12   ar
    21    14    15   ar
    22     8     3    1
    23     8     9   ar
    24     5     3   ar
    25     5     2   ar
    26    15    20    1
    27    12     9   ar
    28     3     6   ar
    29     2     1   ar
    30     6     4   ar
    31     1     4   ar
    32     1     7    1
