@<TRIPOS>MOLECULE
mol_data/opt/cam/geoms/mol2/88-4-8.out
 30 33 0 0 0
SMALL
GASTEIGER

@<TRIPOS>ATOM
      1 C          -0.0555   -0.0553    0.0014 C.ar    1  LIG1        0.1605
      2 N           1.2767   -0.0516    0.0015 N.ar    1  LIG1       -0.1338
      3 C           1.0909    2.2017    0.0004 C.ar    1  LIG1        0.2434
      4 N          -0.8383    1.0227    0.0008 N.ar    1  LIG1       -0.1338
      5 N           1.8721    1.1174    0.0010 N.ar    1  LIG1       -0.1224
      6 N          -0.2454    2.1930    0.0003 N.ar    1  LIG1       -0.1224
      7 H          -0.5465   -1.0220    0.0018 H       1  LIG1        0.1085
      8 C           1.7654    3.5294   -0.0002 C.ar    1  LIG1        0.2435
      9 N           0.9895    4.6166   -0.0006 N.ar    1  LIG1       -0.1218
     10 C           2.9236    5.8095   -0.0011 C.ar    1  LIG1        0.2034
     11 N           3.1009    3.5440   -0.0002 N.ar    1  LIG1       -0.1218
     12 N           1.5816    5.7803   -0.0011 N.ar    1  LIG1       -0.1251
     13 N           3.6914    4.7086   -0.0007 N.ar    1  LIG1       -0.1251
     14 C           2.8311    8.2961   -0.0023 C.ar    1  LIG1       -0.0503
     15 C           3.4583    9.5297   -0.0028 C.ar    1  LIG1       -0.0503
     16 C           3.5907    7.1229   -0.0017 C.ar    1  LIG1        0.0227
     17 C           4.8532    9.6083   -0.0029 C.ar    1  LIG1        0.0227
     18 H           2.8763   10.4429   -0.0032 H       1  LIG1        0.0625
     19 C           4.9861    7.2015   -0.0018 C.ar    1  LIG1       -0.0503
     20 C           5.6124    8.4355   -0.0024 C.ar    1  LIG1       -0.0503
     21 H           5.5688    6.2887   -0.0014 H       1  LIG1        0.0625
     22 H           1.7504    8.2283   -0.0022 H       1  LIG1        0.0625
     23 H           6.6931    8.5041   -0.0024 H       1  LIG1        0.0625
     24 C           5.5222   10.9254   -0.0035 C.ar    1  LIG1        0.2033
     25 N           6.8630   10.9499   -0.0037 N.ar    1  LIG1       -0.1258
     26 C           6.6760   13.1969   -0.0048 C.ar    1  LIG1        0.1605
     27 N           4.7512   12.0226   -0.0039 N.ar    1  LIG1       -0.1258
     28 N           7.4567   12.1177   -0.0043 N.ar    1  LIG1       -0.1339
     29 N           5.3441   13.1908   -0.0045 N.ar    1  LIG1       -0.1339
     30 H           7.1670   14.1634   -0.0050 H       1  LIG1        0.1085
@<TRIPOS>BOND
     1    30    26    1
     2    26    29   ar
     3    26    28   ar
     4    29    27   ar
     5    28    25   ar
     6    27    24   ar
     7    25    24   ar
     8    24    17    1
     9    18    15    1
    10    17    15   ar
    11    17    20   ar
    12    15    14   ar
    13    23    20    1
    14    20    19   ar
    15    14    22    1
    16    14    16   ar
    17    19    16   ar
    18    19    21    1
    19    16    10    1
    20    10    12   ar
    21    10    13   ar
    22    12     9   ar
    23    13    11   ar
    24     9     8   ar
    25    11     8   ar
    26     8     3    1
    27     6     3   ar
    28     6     4   ar
    29     3     5   ar
    30     4     1   ar
    31     5     2   ar
    32     1     2   ar
    33     1     7    1
