@<TRIPOS>MOLECULE
mol_data/opt/cam/geoms/mol2/88-4.out
 24 26 0 0 0
SMALL
GASTEIGER

@<TRIPOS>ATOM
      1 C          -0.0005   -0.0373   -0.0006 C.ar    1  LIG1        0.1605
      2 N           1.3315   -0.0196   -0.0001 N.ar    1  LIG1       -0.1338
      3 C           1.1227    2.2323   -0.0001 C.ar    1  LIG1        0.2434
      4 N          -0.7943    1.0325   -0.0008 N.ar    1  LIG1       -0.1338
      5 N           1.9147    1.1555    0.0002 N.ar    1  LIG1       -0.1224
      6 N          -0.2138    2.2089   -0.0006 N.ar    1  LIG1       -0.1224
      7 H          -0.4814   -1.0090   -0.0008 H       1  LIG1        0.1085
      8 C           1.7831    3.5667    0.0002 C.ar    1  LIG1        0.2435
      9 N           0.9964    4.6457    0.0002 N.ar    1  LIG1       -0.1218
     10 C           2.9185    5.8609    0.0007 C.ar    1  LIG1        0.2034
     11 N           3.1182    3.5956    0.0006 N.ar    1  LIG1       -0.1218
     12 N           1.5758    5.8156    0.0004 N.ar    1  LIG1       -0.1251
     13 N           3.6969    4.7659    0.0008 N.ar    1  LIG1       -0.1251
     14 C           4.9661    7.2715    0.0014 C.ar    1  LIG1       -0.0509
     15 C           5.5773    8.5161    0.0017 C.ar    1  LIG1       -0.0611
     16 C           3.5712    7.1796    0.0010 C.ar    1  LIG1        0.0226
     17 C           4.8055    9.6737    0.0016 C.ar    1  LIG1       -0.0617
     18 H           6.6599    8.5835    0.0020 H       1  LIG1        0.0618
     19 C           2.7982    8.3444    0.0009 C.ar    1  LIG1       -0.0509
     20 C           3.4171    9.5852    0.0012 C.ar    1  LIG1       -0.0611
     21 H           1.7182    8.2623    0.0006 H       1  LIG1        0.0625
     22 H           5.2869   10.6462    0.0018 H       1  LIG1        0.0618
     23 H           5.5558    6.3630    0.0015 H       1  LIG1        0.0625
     24 H           2.8141   10.4869    0.0011 H       1  LIG1        0.0618
@<TRIPOS>BOND
     1     4     1   ar
     2     4     6   ar
     3     7     1    1
     4     1     2   ar
     5     6     3   ar
     6     2     5   ar
     7     3     5   ar
     8     3     8    1
     9     9     8   ar
    10     9    12   ar
    11     8    11   ar
    12    12    10   ar
    13    11    13   ar
    14    21    19    1
    15    10    13   ar
    16    10    16    1
    17    19    16   ar
    18    19    20   ar
    19    16    14   ar
    20    24    20    1
    21    20    17   ar
    22    14    23    1
    23    14    15   ar
    24    17    15   ar
    25    17    22    1
    26    15    18    1
