@<TRIPOS>MOLECULE
mol_data/opt/cam/geoms/mol2/88-48-.out
 30 33 0 0 0
SMALL
GASTEIGER

@<TRIPOS>ATOM
      1 C          -0.0109   -0.0776   -0.0014 C.ar    1  LIG1        0.1605
      2 N           1.3212   -0.0573   -0.0008 N.ar    1  LIG1       -0.1338
      3 C           1.1072    2.1935   -0.0005 C.ar    1  LIG1        0.2434
      4 N          -0.8071    0.9906   -0.0016 N.ar    1  LIG1       -0.1338
      5 N           1.9019    1.1190   -0.0003 N.ar    1  LIG1       -0.1224
      6 N          -0.2289    2.1681   -0.0011 N.ar    1  LIG1       -0.1224
      7 H          -0.4899   -1.0503   -0.0018 H       1  LIG1        0.1085
      8 C           1.7651    3.5296    0.0001 C.ar    1  LIG1        0.2435
      9 N           0.9757    4.6070    0.0002 N.ar    1  LIG1       -0.1218
     10 C           2.8947    5.8240    0.0012 C.ar    1  LIG1        0.2034
     11 N           3.1003    3.5609    0.0006 N.ar    1  LIG1       -0.1218
     12 N           1.5533    5.7780    0.0007 N.ar    1  LIG1       -0.1251
     13 N           3.6763    4.7327    0.0011 N.ar    1  LIG1       -0.1251
     14 C           4.9398    7.2415    0.0023 C.ar    1  LIG1       -0.0503
     15 C           5.5506    8.4833    0.0028 C.ar    1  LIG1       -0.0503
     16 C           3.5454    7.1456    0.0017 C.ar    1  LIG1        0.0227
     17 C           4.7768    9.6465    0.0029 C.ar    1  LIG1        0.0227
     18 H           6.6304    8.5653    0.0032 H       1  LIG1        0.0625
     19 C           2.7713    8.3092    0.0018 C.ar    1  LIG1       -0.0503
     20 C           3.3830    9.5505    0.0024 C.ar    1  LIG1       -0.0503
     21 H           1.6914    8.2279    0.0014 H       1  LIG1        0.0625
     22 H           5.5337    6.3361    0.0022 H       1  LIG1        0.0625
     23 H           2.7896   10.4563    0.0024 H       1  LIG1        0.0625
     24 C           5.4293   10.9718    0.0035 C.ar    1  LIG1        0.2033
     25 N           4.6447   12.0593    0.0037 N.ar    1  LIG1       -0.1258
     26 C           6.5547   13.2576    0.0048 C.ar    1  LIG1        0.1605
     27 N           6.7697   11.0131    0.0039 N.ar    1  LIG1       -0.1258
     28 N           5.2230   13.2349    0.0043 N.ar    1  LIG1       -0.1339
     29 N           7.3488   12.1882    0.0045 N.ar    1  LIG1       -0.1339
     30 H           7.0336   14.2301    0.0050 H       1  LIG1        0.1085
@<TRIPOS>BOND
     1     7     1    1
     2     4     1   ar
     3     4     6   ar
     4     1     2   ar
     5     6     3   ar
     6     2     5   ar
     7     3     5   ar
     8     3     8    1
     9     8     9   ar
    10     8    11   ar
    11     9    12   ar
    12    11    13   ar
    13    12    10   ar
    14    13    10   ar
    15    10    16    1
    16    21    19    1
    17    16    19   ar
    18    16    14   ar
    19    19    20   ar
    20    22    14    1
    21    14    15   ar
    22    20    23    1
    23    20    17   ar
    24    15    17   ar
    25    15    18    1
    26    17    24    1
    27    24    25   ar
    28    24    27   ar
    29    25    28   ar
    30    27    29   ar
    31    28    26   ar
    32    29    26   ar
    33    26    30    1
