@<TRIPOS>MOLECULE
mol_data/opt/cam/geoms/mol2/88-5-12-.out
 28 31 0 0 0
SMALL
GASTEIGER

@<TRIPOS>ATOM
      1 C          -0.0428   -0.0441   -0.0001 C.ar    1  LIG1        0.1605
      2 N           1.2892   -0.0291   -0.0001 N.ar    1  LIG1       -0.1338
      3 C           1.0856    2.2236   -0.0000 C.ar    1  LIG1        0.2434
      4 N          -0.8341    1.0273   -0.0001 N.ar    1  LIG1       -0.1338
      5 N           1.8750    1.1443   -0.0000 N.ar    1  LIG1       -0.1224
      6 N          -0.2513    2.2025   -0.0001 N.ar    1  LIG1       -0.1224
      7 H          -0.5258   -1.0149   -0.0002 H       1  LIG1        0.1085
      8 C           1.7484    3.5551    0.0001 C.ar    1  LIG1        0.2435
      9 N           0.9614    4.6372    0.0002 N.ar    1  LIG1       -0.1218
     10 C           2.8824    5.8432    0.0002 C.ar    1  LIG1        0.2099
     11 N           3.0839    3.5815   -0.0001 N.ar    1  LIG1       -0.1218
     12 N           1.5355    5.8069    0.0003 N.ar    1  LIG1       -0.1246
     13 N           3.6651    4.7488    0.0000 N.ar    1  LIG1       -0.1246
     14 C           3.5254    7.1347    0.0003 C.ar    1  LIG1        0.0605
     15 C           2.9132    8.3640    0.0005 C.ar    1  LIG1       -0.0431
     16 C           3.8336    9.4299    0.0005 C.ar    1  LIG1       -0.0433
     17 C           5.1421    9.0016    0.0003 C.ar    1  LIG1        0.0551
     18 S           5.2553    7.2751    0.0002 S.2     1  LIG1       -0.0820
     19 H           1.8366    8.4733    0.0006 H       1  LIG1        0.0630
     20 H           3.5507   10.4747    0.0006 H       1  LIG1        0.0630
     21 C           6.3312    9.8186    0.0002 C.ar    1  LIG1        0.1413
     22 C           6.5426   11.1666    0.0001 C.ar    1  LIG1       -0.0154
     23 C           7.9560   11.3516    0.0001 C.ar    1  LIG1       -0.0233
     24 C           8.4993   10.1092    0.0002 C.ar    1  LIG1        0.0926
     25 O           7.5266    9.1671    0.0002 O.2     1  LIG1       -0.4624
     26 H           9.5125    9.7408    0.0002 H       1  LIG1        0.1029
     27 H           5.7826   11.9332    0.0000 H       1  LIG1        0.0655
     28 H           8.4935   12.2876    0.0001 H       1  LIG1        0.0649
@<TRIPOS>BOND
     1     7     1    1
     2     1     4   ar
     3     1     2   ar
     4     4     6   ar
     5     2     5   ar
     6    11    13   ar
     7    11     8   ar
     8     6     3   ar
     9     5     3   ar
    10     3     8    1
    11    13    10   ar
    12    27    22    1
    13     8     9   ar
    14    22    23   ar
    15    22    21   ar
    16    28    23    1
    17    23    24   ar
    18    18    14   ar
    19    18    17   ar
    20    10    14    1
    21    10    12   ar
    22    24    26    1
    23    24    25   ar
    24    25    21   ar
    25     9    12   ar
    26    21    17    1
    27    14    15   ar
    28    17    16   ar
    29    15    16   ar
    30    15    19    1
    31    16    20    1
