@<TRIPOS>MOLECULE
mol_data/opt/cam/geoms/mol2/88-5-.out
 21 23 0 0 0
SMALL
GASTEIGER

@<TRIPOS>ATOM
      1 C           0.0048   -0.0199   -0.0001 C.ar    1  LIG1        0.1605
      2 N           1.3368    0.0015   -0.0001 N.ar    1  LIG1       -0.1338
      3 C           1.1220    2.2528   -0.0000 C.ar    1  LIG1        0.2434
      4 N          -0.7918    1.0477   -0.0002 N.ar    1  LIG1       -0.1338
      5 N           1.9169    1.1779   -0.0000 N.ar    1  LIG1       -0.1224
      6 N          -0.2145    2.2257   -0.0001 N.ar    1  LIG1       -0.1224
      7 H          -0.4735   -0.9930   -0.0002 H       1  LIG1        0.1085
      8 C           1.7788    3.5882    0.0001 C.ar    1  LIG1        0.2435
      9 N           0.9873    4.6663    0.0002 N.ar    1  LIG1       -0.1218
     10 C           2.9026    5.8805    0.0002 C.ar    1  LIG1        0.2099
     11 N           3.1140    3.6203   -0.0000 N.ar    1  LIG1       -0.1218
     12 N           1.5574    5.8390    0.0003 N.ar    1  LIG1       -0.1246
     13 N           3.6896    4.7911    0.0000 N.ar    1  LIG1       -0.1246
     14 C           3.5417    7.1786    0.0003 C.ar    1  LIG1        0.0598
     15 C           2.9257    8.4038    0.0004 C.ar    1  LIG1       -0.0438
     16 C           3.8506    9.4762    0.0005 C.ar    1  LIG1       -0.0540
     17 C           5.1457    9.0422    0.0004 C.ar    1  LIG1       -0.0236
     18 S           5.2695    7.3303    0.0001 S.2     1  LIG1       -0.0934
     19 H           6.0430    9.6451    0.0004 H       1  LIG1        0.0693
     20 H           1.8486    8.5090    0.0005 H       1  LIG1        0.0630
     21 H           3.5680   10.5210    0.0006 H       1  LIG1        0.0623
@<TRIPOS>BOND
     1     7     1    1
     2     4     1   ar
     3     4     6   ar
     4     1     2   ar
     5     6     3   ar
     6     2     5   ar
     7    11    13   ar
     8    11     8   ar
     9     3     5   ar
    10     3     8    1
    11    13    10   ar
    12     8     9   ar
    13    18    14   ar
    14    18    17   ar
    15    10    14    1
    16    10    12   ar
    17     9    12   ar
    18    14    15   ar
    19    17    19    1
    20    17    16   ar
    21    15    16   ar
    22    15    20    1
    23    16    21    1
