@<TRIPOS>MOLECULE
mol_data/opt/cam/geoms/mol2/88-5-5-.out
 28 31 0 0 0
SMALL
GASTEIGER

@<TRIPOS>ATOM
      1 C          -0.0324   -0.0634   -0.0004 C.ar    1  LIG1        0.1605
      2 N           1.2996   -0.0409   -0.0004 N.ar    1  LIG1       -0.1338
      3 C           1.0834    2.2107   -0.0001 C.ar    1  LIG1        0.2434
      4 N          -0.8297    1.0037   -0.0003 N.ar    1  LIG1       -0.1338
      5 N           1.8789    1.1358   -0.0002 N.ar    1  LIG1       -0.1224
      6 N          -0.2534    2.1822   -0.0001 N.ar    1  LIG1       -0.1224
      7 H          -0.5099   -1.0368   -0.0005 H       1  LIG1        0.1085
      8 C           1.7389    3.5458    0.0001 C.ar    1  LIG1        0.2435
      9 N           0.9460    4.6238    0.0003 N.ar    1  LIG1       -0.1218
     10 C           2.8603    5.8399    0.0003 C.ar    1  LIG1        0.2099
     11 N           3.0743    3.5795   -0.0001 N.ar    1  LIG1       -0.1218
     12 N           1.5137    5.7968    0.0005 N.ar    1  LIG1       -0.1246
     13 N           3.6491    4.7502    0.0001 N.ar    1  LIG1       -0.1246
     14 C           3.4962    7.1347    0.0005 C.ar    1  LIG1        0.0604
     15 C           2.8827    8.3623    0.0007 C.ar    1  LIG1       -0.0432
     16 C           3.8000    9.4309    0.0008 C.ar    1  LIG1       -0.0457
     17 C           5.1139    9.0162    0.0006 C.ar    1  LIG1        0.0266
     18 S           5.2239    7.2860    0.0003 S.2     1  LIG1       -0.0845
     19 H           1.8058    8.4691    0.0009 H       1  LIG1        0.0630
     20 H           3.5067   10.4725    0.0011 H       1  LIG1        0.0629
     21 C           6.2951    9.8623    0.0006 C.ar    1  LIG1        0.0259
     22 C           6.3324   11.2332    0.0001 C.ar    1  LIG1       -0.0464
     23 C           7.6510   11.7591    0.0002 C.ar    1  LIG1       -0.0541
     24 C           8.6031   10.7859    0.0006 C.ar    1  LIG1       -0.0237
     25 S           7.9086    9.2119    0.0014 S.2     1  LIG1       -0.0961
     26 H           9.6773   10.9008    0.0007 H       1  LIG1        0.0693
     27 H           5.4421   11.8492   -0.0004 H       1  LIG1        0.0629
     28 H           7.8782   12.8176   -0.0002 H       1  LIG1        0.0623
@<TRIPOS>BOND
     1     7     1    1
     2     1     2   ar
     3     1     4   ar
     4    27    22    1
     5     2     5   ar
     6     4     6   ar
     7    28    23    1
     8     5     3   ar
     9     6     3   ar
    10     3     8    1
    11    11     8   ar
    12    11    13   ar
    13     8     9   ar
    14    13    10   ar
    15    22    23   ar
    16    22    21   ar
    17    23    24   ar
    18    18    14   ar
    19    18    17   ar
    20     9    12   ar
    21    10    12   ar
    22    10    14    1
    23    14    15   ar
    24    21    17    1
    25    21    25   ar
    26    17    16   ar
    27    24    26    1
    28    24    25   ar
    29    15    16   ar
    30    15    19    1
    31    16    20    1
