@<TRIPOS>MOLECULE
mol_data/opt/cam/geoms/mol2/88-8-.out
 20 22 0 0 0
SMALL
GASTEIGER

@<TRIPOS>ATOM
      1 C          -0.0021   -0.0042   -0.0000 C.ar    1  LIG1        0.1605
      2 N           1.3303    0.0072    0.0002 N.ar    1  LIG1       -0.1338
      3 C           1.1292    2.2578    0.0000 C.ar    1  LIG1        0.2434
      4 N          -0.7922    1.0688   -0.0003 N.ar    1  LIG1       -0.1338
      5 N           1.9180    1.1801    0.0002 N.ar    1  LIG1       -0.1224
      6 N          -0.2062    2.2426   -0.0002 N.ar    1  LIG1       -0.1224
      7 H          -0.4871   -0.9740   -0.0001 H       1  LIG1        0.1085
      8 C           1.7961    3.5912    0.0000 C.ar    1  LIG1        0.2435
      9 N           1.0110    4.6720    0.0000 N.ar    1  LIG1       -0.1217
     10 C           2.9319    5.8623    0.0000 C.ar    1  LIG1        0.2435
     11 N           3.1318    3.6113    0.0001 N.ar    1  LIG1       -0.1217
     12 N           1.5963    5.8421    0.0000 N.ar    1  LIG1       -0.1217
     13 N           3.7170    4.7815    0.0001 N.ar    1  LIG1       -0.1217
     14 C           3.5988    7.1957    0.0001 C.ar    1  LIG1        0.2434
     15 N           2.8100    8.2733    0.0002 N.ar    1  LIG1       -0.1224
     16 C           4.7302    9.4577   -0.0002 C.ar    1  LIG1        0.1605
     17 N           4.9343    7.2109   -0.0002 N.ar    1  LIG1       -0.1224
     18 N           3.3977    9.4462    0.0002 N.ar    1  LIG1       -0.1338
     19 N           5.5202    8.3847   -0.0002 N.ar    1  LIG1       -0.1338
     20 H           5.2152   10.4274    0.0001 H       1  LIG1        0.1085
@<TRIPOS>BOND
     1     4     6   ar
     2     4     1   ar
     3     6     3   ar
     4    19    16   ar
     5    19    17   ar
     6    16    20    1
     7    16    18   ar
     8    17    14   ar
     9     7     1    1
    10     1     2   ar
    11     3     8    1
    12     3     5   ar
    13     9    12   ar
    14     9     8   ar
    15    12    10   ar
    16     8    11   ar
    17    10    13   ar
    18    10    14    1
    19    11    13   ar
    20    14    15   ar
    21    18    15   ar
    22     2     5   ar
