@<TRIPOS>MOLECULE
mol_data/opt/cam/geoms/mol2/88-84-.out
 30 33 0 0 0
SMALL
GASTEIGER

@<TRIPOS>ATOM
      1 C          -0.0322   -0.0352    0.0005 C.ar    1  LIG1        0.1605
      2 N           1.3001   -0.0269    0.0009 N.ar    1  LIG1       -0.1338
      3 C           1.1050    2.2247    0.0002 C.ar    1  LIG1        0.2434
      4 N          -0.8195    1.0397   -0.0000 N.ar    1  LIG1       -0.1338
      5 N           1.8909    1.1444    0.0008 N.ar    1  LIG1       -0.1224
      6 N          -0.2307    2.2121   -0.0002 N.ar    1  LIG1       -0.1224
      7 H          -0.5196   -1.0038    0.0006 H       1  LIG1        0.1085
      8 C           1.7751    3.5562    0.0000 C.ar    1  LIG1        0.2435
      9 N           0.9931    4.6390   -0.0003 N.ar    1  LIG1       -0.1217
     10 C           2.9175    5.8262   -0.0003 C.ar    1  LIG1        0.2435
     11 N           3.1106    3.5734    0.0002 N.ar    1  LIG1       -0.1217
     12 N           1.5805    5.8077   -0.0005 N.ar    1  LIG1       -0.1217
     13 N           3.6993    4.7415    0.0001 N.ar    1  LIG1       -0.1217
     14 C           3.5858    7.1543   -0.0005 C.ar    1  LIG1        0.2435
     15 N           4.9212    7.1735   -0.0005 N.ar    1  LIG1       -0.1218
     16 C           4.7361    9.4401   -0.0009 C.ar    1  LIG1        0.2034
     17 N           2.8056    8.2381   -0.0007 N.ar    1  LIG1       -0.1218
     18 N           5.5075    8.3395   -0.0006 N.ar    1  LIG1       -0.1251
     19 N           3.3926    9.4038   -0.0009 N.ar    1  LIG1       -0.1251
     20 C           4.6317   11.9237   -0.0013 C.ar    1  LIG1       -0.0509
     21 C           5.2589   13.1603   -0.0014 C.ar    1  LIG1       -0.0611
     22 C           5.3972   10.7538   -0.0010 C.ar    1  LIG1        0.0226
     23 C           6.6480   13.2392   -0.0013 C.ar    1  LIG1       -0.0617
     24 H           4.6621   14.0660   -0.0016 H       1  LIG1        0.0618
     25 C           6.7929   10.8362   -0.0009 C.ar    1  LIG1       -0.0509
     26 C           7.4123   12.0766   -0.0011 C.ar    1  LIG1       -0.0611
     27 H           7.3767    9.9239   -0.0007 H       1  LIG1        0.0625
     28 H           7.1358   14.2085   -0.0015 H       1  LIG1        0.0618
     29 H           3.5512   11.8490   -0.0013 H       1  LIG1        0.0625
     30 H           8.4953   12.1370   -0.0010 H       1  LIG1        0.0618
@<TRIPOS>BOND
     1    24    21    1
     2    28    23    1
     3    21    23   ar
     4    21    20   ar
     5    23    26   ar
     6    29    20    1
     7    20    22   ar
     8    26    30    1
     9    26    25   ar
    10    22    25   ar
    11    22    16    1
    12    25    27    1
    13    19    16   ar
    14    19    17   ar
    15    16    18   ar
    16    17    14   ar
    17    18    15   ar
    18    14    15   ar
    19    14    10    1
    20    12     9   ar
    21    12    10   ar
    22     9     8   ar
    23    10    13   ar
    24     6     4   ar
    25     6     3   ar
    26     4     1   ar
    27     8     3    1
    28     8    11   ar
    29    13    11   ar
    30     3     5   ar
    31     1     7    1
    32     1     2   ar
    33     5     2   ar
