@<TRIPOS>MOLECULE
mol_data/opt/cam/geoms/mol2/88-8.out
 20 22 0 0 0
SMALL
GASTEIGER

@<TRIPOS>ATOM
      1 C          -0.0021   -0.0042   -0.0000 C.ar    1  LIG1        0.1605
      2 N           1.3304    0.0072    0.0002 N.ar    1  LIG1       -0.1338
      3 C           1.1292    2.2578   -0.0000 C.ar    1  LIG1        0.2434
      4 N          -0.7922    1.0688   -0.0002 N.ar    1  LIG1       -0.1338
      5 N           1.9180    1.1801    0.0002 N.ar    1  LIG1       -0.1224
      6 N          -0.2063    2.2425   -0.0002 N.ar    1  LIG1       -0.1224
      7 H          -0.4871   -0.9740    0.0000 H       1  LIG1        0.1085
      8 C           1.7961    3.5912   -0.0000 C.ar    1  LIG1        0.2435
      9 N           1.0110    4.6720   -0.0000 N.ar    1  LIG1       -0.1217
     10 C           2.9319    5.8623   -0.0000 C.ar    1  LIG1        0.2435
     11 N           3.1317    3.6113    0.0000 N.ar    1  LIG1       -0.1217
     12 N           1.5962    5.8421   -0.0000 N.ar    1  LIG1       -0.1217
     13 N           3.7170    4.7815    0.0000 N.ar    1  LIG1       -0.1217
     14 C           3.5988    7.1957   -0.0001 C.ar    1  LIG1        0.2434
     15 N           4.9342    7.2109   -0.0002 N.ar    1  LIG1       -0.1224
     16 C           4.7301    9.4577    0.0001 C.ar    1  LIG1        0.1605
     17 N           2.8099    8.2734    0.0002 N.ar    1  LIG1       -0.1224
     18 N           5.5202    8.3847   -0.0002 N.ar    1  LIG1       -0.1338
     19 N           3.3976    9.4462    0.0002 N.ar    1  LIG1       -0.1338
     20 H           5.2151   10.4275   -0.0001 H       1  LIG1        0.1085
@<TRIPOS>BOND
     1     6     4   ar
     2     6     3   ar
     3     4     1   ar
     4    15    18   ar
     5    15    14   ar
     6    18    16   ar
     7    20    16    1
     8    14    10    1
     9    14    17   ar
    10    12     9   ar
    11    12    10   ar
    12     9     8   ar
    13    10    13   ar
    14     1     7    1
    15     1     2   ar
    16     8     3    1
    17     8    11   ar
    18     3     5   ar
    19    13    11   ar
    20    16    19   ar
    21    17    19   ar
    22     2     5   ar
