@<TRIPOS>MOLECULE
mol_data/opt/cam/geoms/mol2/88.out
 14 15 0 0 0
SMALL
GASTEIGER

@<TRIPOS>ATOM
      1 C           0.0056    0.0111   -0.0000 C.ar    1  LIG1        0.1605
      2 N           1.3378    0.0228    0.0001 N.ar    1  LIG1       -0.1338
      3 C           1.1373    2.2741   -0.0000 C.ar    1  LIG1        0.2434
      4 N          -0.7842    1.0841   -0.0001 N.ar    1  LIG1       -0.1338
      5 N           1.9255    1.1959    0.0001 N.ar    1  LIG1       -0.1224
      6 N          -0.1982    2.2579   -0.0002 N.ar    1  LIG1       -0.1224
      7 H          -0.4794   -0.9587    0.0000 H       1  LIG1        0.1085
      8 C           1.8049    3.6090   -0.0001 C.ar    1  LIG1        0.2434
      9 N           3.1404    3.6252   -0.0001 N.ar    1  LIG1       -0.1224
     10 C           2.9367    5.8720    0.0002 C.ar    1  LIG1        0.1605
     11 N           1.0167    4.6873    0.0000 N.ar    1  LIG1       -0.1224
     12 N           3.7265    4.7991   -0.0001 N.ar    1  LIG1       -0.1338
     13 N           1.6044    5.8603    0.0001 N.ar    1  LIG1       -0.1338
     14 H           3.4216    6.8418   -0.0001 H       1  LIG1        0.1085
@<TRIPOS>BOND
     1     6     4   ar
     2     6     3   ar
     3     4     1   ar
     4    14    10    1
     5     9     8   ar
     6     9    12   ar
     7     8     3    1
     8     8    11   ar
     9    12    10   ar
    10     3     5   ar
    11     1     7    1
    12     1     2   ar
    13    11    13   ar
    14    13    10   ar
    15     5     2   ar
