@<TRIPOS>MOLECULE
mol_data/opt/cam/geoms/mol2/8813-5-.out
 29 32 0 0 0
SMALL
GASTEIGER

@<TRIPOS>ATOM
      1 C           0.0237   -0.0467    0.0005 C.ar    1  LIG1        0.1605
      2 N           1.3553   -0.0104    0.0004 N.ar    1  LIG1       -0.1338
      3 C           1.1166    2.2397    0.0002 C.ar    1  LIG1        0.2434
      4 N          -0.7841    1.0123    0.0003 N.ar    1  LIG1       -0.1338
      5 N           1.9226    1.1720    0.0003 N.ar    1  LIG1       -0.1224
      6 N          -0.2203    2.1966    0.0002 N.ar    1  LIG1       -0.1224
      7 H          -0.4439   -1.0249    0.0006 H       1  LIG1        0.1085
      8 C           1.7582    3.5801   -0.0000 C.ar    1  LIG1        0.2435
      9 N           3.0929    3.6274   -0.0002 N.ar    1  LIG1       -0.1218
     10 C           2.8530    5.8876   -0.0003 C.ar    1  LIG1        0.2194
     11 N           0.9535    4.6520   -0.0000 N.ar    1  LIG1       -0.1218
     12 N           3.6550    4.8039   -0.0004 N.ar    1  LIG1       -0.1236
     13 N           1.5044    5.8305   -0.0002 N.ar    1  LIG1       -0.1236
     14 C           3.4862    7.1718   -0.0006 C.ar    1  LIG1        0.0880
     15 C           2.9618    8.4551   -0.0008 C.ar    1  LIG1       -0.0326
     16 C           4.0429    9.3451   -0.0007 C.ar    1  LIG1       -0.0352
     17 C           5.2161    8.5921   -0.0010 C.ar    1  LIG1        0.0536
     18 N           4.8557    7.2803   -0.0010 N.ar    1  LIG1       -0.3512
     19 H           5.4640    6.4740   -0.0010 H       1  LIG1        0.1660
     20 H           1.9090    8.6931   -0.0007 H       1  LIG1        0.0640
     21 H           3.9925   10.4233   -0.0007 H       1  LIG1        0.0639
     22 C           6.5961    9.0352   -0.0013 C.ar    1  LIG1        0.0355
     23 C           7.0573   10.3244   -0.0004 C.ar    1  LIG1       -0.0455
     24 C           8.4761   10.4117   -0.0009 C.ar    1  LIG1       -0.0541
     25 C           9.0794    9.1924   -0.0021 C.ar    1  LIG1       -0.0237
     26 S           7.9251    7.9124   -0.0029 S.2     1  LIG1       -0.0952
     27 H          10.1353    8.9648   -0.0026 H       1  LIG1        0.0693
     28 H           6.4007   11.1852    0.0007 H       1  LIG1        0.0629
     29 H           9.0224   11.3465   -0.0003 H       1  LIG1        0.0623
@<TRIPOS>BOND
     1    26    25   ar
     2    26    22   ar
     3    27    25    1
     4    25    24   ar
     5    22    17    1
     6    22    23   ar
     7    17    18   ar
     8    17    16   ar
     9    18    19    1
    10    18    14   ar
    11    24    23   ar
    12    24    29    1
    13    15    20    1
    14    15    16   ar
    15    15    14   ar
    16    16    21    1
    17    14    10    1
    18    23    28    1
    19    12    10   ar
    20    12     9   ar
    21    10    13   ar
    22     9     8   ar
    23    13    11   ar
    24     8    11   ar
    25     8     3    1
    26     3     6   ar
    27     3     5   ar
    28     6     4   ar
    29     5     2   ar
    30     4     1   ar
    31     2     1   ar
    32     1     7    1
