@<TRIPOS>MOLECULE
mol_data/opt/b3lyp/geoms/mol2/111111-11-.out
 10 9 0 0 0
SMALL
GASTEIGER

@<TRIPOS>ATOM
      1 O           1.5622    2.8304    0.0155 O.2     1  LIG1       -0.2922
      2 C           0.3560    2.8126   -0.0168 C.2     1  LIG1        0.1935
      3 H          -0.2649    3.7252   -0.0197 H       1  LIG1        0.1117
      4 O           0.1948    0.4025   -0.0606 O.2     1  LIG1       -0.2803
      5 C          -0.3968    1.4607   -0.0557 C.2     1  LIG1        0.2673
      6 O          -2.5206    2.5649   -0.1079 O.2     1  LIG1       -0.2803
      7 C          -1.9294    1.5066   -0.0904 C.2     1  LIG1        0.2673
      8 O          -3.8891    0.1366   -0.1310 O.2     1  LIG1       -0.2922
      9 C          -2.6828    0.1545   -0.1045 C.2     1  LIG1        0.1935
     10 H          -2.0622   -0.7581   -0.0883 H       1  LIG1        0.1117
@<TRIPOS>BOND
     1     8     9    2
     2     6     7    2
     3     9     7    1
     4     9    10    1
     5     7     5    1
     6     4     5    2
     7     5     2    1
     8     3     2    1
     9     2     1    2
