@<TRIPOS>MOLECULE
mol_data/opt/b3lyp/geoms/mol2/1111.out
 6 5 0 0 0
SMALL
GASTEIGER

@<TRIPOS>ATOM
      1 O           1.3924    2.7597    0.0018 O.2     1  LIG1       -0.2930
      2 C           0.1873    2.7136   -0.0165 C.2     1  LIG1        0.1821
      3 H          -0.4493    3.6260   -0.0028 H       1  LIG1        0.1109
      4 O          -0.0311    0.3127   -0.0791 O.2     1  LIG1       -0.2930
      5 C          -0.5867    1.3830   -0.0608 C.2     1  LIG1        0.1821
      6 H          -1.6946    1.4854   -0.0744 H       1  LIG1        0.1109
@<TRIPOS>BOND
     1     4     5    2
     2     6     5    1
     3     5     2    1
     4     2     3    1
     5     2     1    2
