@<TRIPOS>MOLECULE
mol_data/opt/b3lyp/geoms/mol2/1111-11-11-.out
 10 9 0 0 0
SMALL
GASTEIGER

@<TRIPOS>ATOM
      1 O           1.2706    3.1045    0.0404 O.2     1  LIG1       -0.2922
      2 C           0.0735    2.9410   -0.0095 C.2     1  LIG1        0.1935
      3 H          -0.6548    3.7756   -0.0225 H       1  LIG1        0.1117
      4 O          -1.8396    1.5778   -0.0938 O.2     1  LIG1       -0.2803
      5 C          -0.6294    1.5752   -0.0570 C.2     1  LIG1        0.2673
      6 O          -0.5346   -0.8005   -0.0651 O.2     1  LIG1       -0.2803
      7 C           0.1321    0.2050   -0.0562 C.2     1  LIG1        0.2673
      8 O           2.2117   -0.9688   -0.0472 O.2     1  LIG1       -0.2922
      9 C           1.6828    0.1159   -0.0485 C.2     1  LIG1        0.1935
     10 H           2.2411    1.0662   -0.0438 H       1  LIG1        0.1117
@<TRIPOS>BOND
     1     4     5    2
     2     6     7    2
     3     5     7    1
     4     5     2    1
     5     7     9    1
     6     9     8    2
     7     9    10    1
     8     3     2    1
     9     2     1    2
