@<TRIPOS>MOLECULE
mol_data/opt/b3lyp/geoms/mol2/11111111-.out
 10 9 0 0 0
SMALL
GASTEIGER

@<TRIPOS>ATOM
      1 O           1.5371    2.7973   -0.2160 O.2     1  LIG1       -0.2922
      2 C           0.4081    2.6738    0.1858 C.2     1  LIG1        0.1935
      3 H          -0.0852    3.4230    0.8348 H       1  LIG1        0.1117
      4 O           0.0918    0.4369   -0.6536 O.2     1  LIG1       -0.2803
      5 C          -0.4255    1.4234   -0.1879 C.2     1  LIG1        0.2673
      6 O          -2.5292    0.4811    0.5501 O.2     1  LIG1       -0.2803
      7 C          -1.9541    1.4323    0.0711 C.2     1  LIG1        0.2673
      8 O          -2.1451    3.6526   -0.7904 O.2     1  LIG1       -0.2922
      9 C          -2.7228    2.6837   -0.3484 C.2     1  LIG1        0.1935
     10 H          -3.8213    2.6222   -0.2238 H       1  LIG1        0.1117
@<TRIPOS>BOND
     1     8     9    2
     2     4     5    2
     3     9    10    1
     4     9     7    1
     5     1     2    2
     6     5     7    1
     7     5     2    1
     8     7     6    2
     9     2     3    1
