@<TRIPOS>MOLECULE
mol_data/opt/b3lyp/geoms/mol2/1111-.out
 6 5 0 0 0
SMALL
GASTEIGER

@<TRIPOS>ATOM
      1 O           1.4203    2.6918   -0.0016 O.2     1  LIG1       -0.2930
      2 C           0.2108    2.6910   -0.0151 C.2     1  LIG1        0.1821
      3 H          -0.4088    3.6111    0.0036 H       1  LIG1        0.1109
      4 O          -1.7935    1.3897   -0.0846 O.2     1  LIG1       -0.2930
      5 C          -0.5841    1.3903   -0.0612 C.2     1  LIG1        0.1821
      6 H           0.0354    0.4700   -0.0718 H       1  LIG1        0.1109
@<TRIPOS>BOND
     1     4     5    2
     2     6     5    1
     3     5     2    1
     4     2     1    2
     5     2     3    1
