@<TRIPOS>MOLECULE
mol_data/opt/b3lyp/geoms/mol2/111111.out
 8 7 0 0 0
SMALL
GASTEIGER

@<TRIPOS>ATOM
      1 O           1.4824    2.8056    0.0124 O.2     1  LIG1       -0.2922
      2 C           0.2779    2.7506   -0.0189 C.2     1  LIG1        0.1927
      3 H          -0.3535    3.6648   -0.0210 H       1  LIG1        0.1117
      4 O           0.1324    0.3501   -0.0583 O.2     1  LIG1       -0.2811
      5 C          -0.4668    1.3987   -0.0583 C.2     1  LIG1        0.2566
      6 O          -2.6685    0.4337   -0.1291 O.2     1  LIG1       -0.2922
      7 C          -2.0097    1.4435   -0.0976 C.2     1  LIG1        0.1927
      8 H          -2.4767    2.4516   -0.0955 H       1  LIG1        0.1117
@<TRIPOS>BOND
     1     6     7    2
     2     7     8    1
     3     7     5    1
     4     4     5    2
     5     5     2    1
     6     3     2    1
     7     2     1    2
