@<TRIPOS>MOLECULE
mol_data/opt/b3lyp/geoms/mol2/1111-11-.out
 8 7 0 0 0
SMALL
GASTEIGER

@<TRIPOS>ATOM
      1 O           1.4075    2.8093    0.0079 O.2     1  LIG1       -0.2922
      2 C           0.1972    2.7944   -0.0154 C.2     1  LIG1        0.1927
      3 H          -0.4294    3.7094   -0.0106 H       1  LIG1        0.1117
      4 O          -1.8165    1.5301   -0.0760 O.2     1  LIG1       -0.2811
      5 C          -0.6061    1.4942   -0.0540 C.2     1  LIG1        0.2566
      6 O          -0.4027   -0.8920   -0.0883 O.2     1  LIG1       -0.2922
      7 C           0.1805    0.1647   -0.0635 C.2     1  LIG1        0.1927
      8 H           1.2820    0.2474   -0.0463 H       1  LIG1        0.1117
@<TRIPOS>BOND
     1     6     7    2
     2     4     5    2
     3     7     5    1
     4     7     8    1
     5     5     2    1
     6     2     3    1
     7     2     1    2
