@<TRIPOS>MOLECULE
mol_data/opt/b3lyp/geoms/mol2/11111111.out
 10 9 0 0 0
SMALL
GASTEIGER

@<TRIPOS>ATOM
      1 O           1.5906    2.7695   -0.0091 O.2     1  LIG1       -0.2922
      2 C           0.4159    2.6701    0.2382 C.2     1  LIG1        0.1935
      3 H          -0.1434    3.4536    0.7955 H       1  LIG1        0.1117
      4 O           0.1428    0.4683   -0.6964 O.2     1  LIG1       -0.2803
      5 C          -0.3978    1.4270   -0.2002 C.2     1  LIG1        0.2673
      6 O          -2.4788    0.4832    0.5404 O.2     1  LIG1       -0.2803
      7 C          -1.9273    1.4357    0.0443 C.2     1  LIG1        0.2673
      8 O          -3.9002    2.8009   -0.1467 O.2     1  LIG1       -0.2922
      9 C          -2.7268    2.6881   -0.3941 C.2     1  LIG1        0.1935
     10 H          -2.1585    3.4652   -0.9513 H       1  LIG1        0.1117
@<TRIPOS>BOND
     1    10     9    1
     2     4     5    2
     3     9     8    2
     4     9     7    1
     5     5     7    1
     6     5     2    1
     7     1     2    2
     8     7     6    2
     9     2     3    1
