@<TRIPOS>MOLECULE
mol_data/opt/b3lyp/geoms/mol2/111111-.out
 8 7 0 0 0
SMALL
GASTEIGER

@<TRIPOS>ATOM
      1 O           1.4860    2.7586    0.0122 O.2     1  LIG1       -0.2922
      2 C           0.2793    2.7370   -0.0178 C.2     1  LIG1        0.1927
      3 H          -0.3420    3.6504   -0.0196 H       1  LIG1        0.1117
      4 O           0.0931    0.3253   -0.0533 O.2     1  LIG1       -0.2811
      5 C          -0.4800    1.3923   -0.0565 C.2     1  LIG1        0.2566
      6 O          -2.6245    2.4818   -0.1017 O.2     1  LIG1       -0.2922
      7 C          -2.0075    1.4402   -0.0998 C.2     1  LIG1        0.1927
      8 H          -2.4875    0.4409   -0.1286 H       1  LIG1        0.1117
@<TRIPOS>BOND
     1     8     7    1
     2     6     7    2
     3     7     5    1
     4     5     4    2
     5     5     2    1
     6     3     2    1
     7     2     1    2
