@<TRIPOS>MOLECULE
mol_data/opt/b3lyp/geoms/mol2/111111-11.out
 10 9 0 0 0
SMALL
GASTEIGER

@<TRIPOS>ATOM
      1 O           1.5212    2.8389    0.1780 O.2     1  LIG1       -0.2922
      2 C           0.3180    2.7657    0.1647 C.2     1  LIG1        0.1935
      3 H          -0.3428    3.5891    0.4955 H       1  LIG1        0.1117
      4 O           0.2334    0.5287   -0.7515 O.2     1  LIG1       -0.2803
      5 C          -0.3824    1.4686   -0.3070 C.2     1  LIG1        0.2673
      6 O          -2.5178    2.4979   -0.5697 O.2     1  LIG1       -0.2803
      7 C          -1.9150    1.4785   -0.2968 C.2     1  LIG1        0.2673
      8 O          -2.1880   -0.7083    0.6709 O.2     1  LIG1       -0.2922
      9 C          -2.6810    0.1949    0.0411 C.2     1  LIG1        0.1935
     10 H          -3.7405    0.2185   -0.2861 H       1  LIG1        0.1117
@<TRIPOS>BOND
     1     4     5    2
     2     6     7    2
     3     5     7    1
     4     5     2    1
     5     7     9    1
     6    10     9    1
     7     9     8    2
     8     2     1    2
     9     2     3    1
