@<TRIPOS>MOLECULE
mol_data/opt/b3lyp/geoms/mol2/1111-11-11.out
 10 9 0 0 0
SMALL
GASTEIGER

@<TRIPOS>ATOM
      1 O           0.8637    2.9266   -1.1571 O.2     1  LIG1       -0.2922
      2 C          -0.0203    2.8943   -0.3318 C.2     1  LIG1        0.1935
      3 H          -0.5233    3.7912    0.0791 H       1  LIG1        0.1117
      4 O          -1.4786    1.4859    0.9543 O.2     1  LIG1       -0.2803
      5 C          -0.5317    1.5602    0.2061 C.2     1  LIG1        0.2673
      6 O          -0.3082   -0.4595   -1.1042 O.2     1  LIG1       -0.2803
      7 C           0.2035    0.3025   -0.3170 C.2     1  LIG1        0.2673
      8 O           2.0299    0.7819    1.1346 O.2     1  LIG1       -0.2922
      9 C           1.5904    0.0566    0.2717 C.2     1  LIG1        0.1935
     10 H           2.1278   -0.8197   -0.1401 H       1  LIG1        0.1117
@<TRIPOS>BOND
     1     1     2    2
     2     6     7    2
     3     2     3    1
     4     2     5    1
     5     7     5    1
     6     7     9    1
     7    10     9    1
     8     5     4    2
     9     9     8    2
