@<TRIPOS>MOLECULE
mol_data/opt/b3lyp/geoms/mol2/1111-1111-.out
 10 9 0 0 0
SMALL
GASTEIGER

@<TRIPOS>ATOM
      1 O           0.8189    2.2190    1.1955 O.2     1  LIG1       -0.2922
      2 C          -0.0452    2.5620    0.4214 C.2     1  LIG1        0.1935
      3 H          -0.5484    3.5481    0.4447 H       1  LIG1        0.1117
      4 O          -1.2911    1.9718   -1.5445 O.2     1  LIG1       -0.2803
      5 C          -0.5049    1.6256   -0.6935 C.2     1  LIG1        0.2673
      6 O           0.9653   -0.1015   -1.5301 O.2     1  LIG1       -0.2803
      7 C           0.1480    0.2225   -0.6999 C.2     1  LIG1        0.2673
      8 O          -1.2444   -0.4181    1.1228 O.2     1  LIG1       -0.2922
      9 C          -0.3523   -0.7421    0.3725 C.2     1  LIG1        0.1935
     10 H           0.1495   -1.7292    0.3892 H       1  LIG1        0.1117
@<TRIPOS>BOND
     1     4     5    2
     2     6     7    2
     3     7     5    1
     4     7     9    1
     5     5     2    1
     6     9    10    1
     7     9     8    2
     8     2     3    1
     9     2     1    2
