@<TRIPOS>MOLECULE
mol_data/opt/b3lyp/geoms/mol2/1111-1111.out
 10 9 0 0 0
SMALL
GASTEIGER

@<TRIPOS>ATOM
      1 O           1.2233    2.8831   -0.7807 O.2     1  LIG1       -0.2922
      2 C           0.1836    2.8709   -0.1687 C.2     1  LIG1        0.1935
      3 H          -0.3654    3.7832    0.1416 H       1  LIG1        0.1117
      4 O          -1.7490    1.5972    0.4192 O.2     1  LIG1       -0.2803
      5 C          -0.5603    1.5739    0.1669 C.2     1  LIG1        0.2673
      6 O           1.3180    0.1773    0.6642 O.2     1  LIG1       -0.2803
      7 C           0.2041    0.2459    0.2008 C.2     1  LIG1        0.2673
      8 O          -0.0420   -2.0899   -0.2690 O.2     1  LIG1       -0.2922
      9 C          -0.5714   -1.0069   -0.2739 C.2     1  LIG1        0.1935
     10 H          -1.6077   -0.8405   -0.6237 H       1  LIG1        0.1117
@<TRIPOS>BOND
     1     1     2    2
     2    10     9    1
     3     9     8    2
     4     9     7    1
     5     2     3    1
     6     2     5    1
     7     5     7    1
     8     5     4    2
     9     7     6    2
