@<TRIPOS>MOLECULE
mol_data/opt/b3lyp/geoms/mol2/1212128-.out
 29 32 0 0 0
SMALL
GASTEIGER

@<TRIPOS>ATOM
      1 C           0.7646    1.6455    0.0001 C.ar    1  LIG1        0.0927
      2 C           2.1133    1.8451   -0.0001 C.ar    1  LIG1       -0.0232
      3 C           2.3072    3.2588   -0.0000 C.ar    1  LIG1       -0.0128
      4 C           1.0529    3.8204   -0.0001 C.ar    1  LIG1        0.1697
      5 O           0.1046    2.8356   -0.0001 O.2     1  LIG1       -0.4598
      6 H           0.1416    0.7653    0.0001 H       1  LIG1        0.1029
      7 H           2.8767    1.0809   -0.0002 H       1  LIG1        0.0649
      8 H           3.2473    3.7908    0.0000 H       1  LIG1        0.0656
      9 C           0.6001    5.1845   -0.0001 C.ar    1  LIG1        0.1707
     10 C           1.2732    6.3869   -0.0001 C.ar    1  LIG1       -0.0121
     11 C           0.2840    7.4017   -0.0001 C.ar    1  LIG1       -0.0121
     12 C          -0.9354    6.7614   -0.0001 C.ar    1  LIG1        0.1707
     13 O          -0.7455    5.4070   -0.0001 O.2     1  LIG1       -0.4486
     14 H           2.3450    6.5196   -0.0000 H       1  LIG1        0.0657
     15 H           0.4453    8.4699   -0.0001 H       1  LIG1        0.0657
     16 C          -2.2818    7.2525   -0.0002 C.ar    1  LIG1        0.1707
     17 C          -2.7959    8.5368   -0.0002 C.ar    1  LIG1       -0.0121
     18 C          -4.2019    8.4008   -0.0002 C.ar    1  LIG1       -0.0119
     19 C          -4.4666    7.0492   -0.0003 C.ar    1  LIG1        0.1761
     20 O          -3.2929    6.3450   -0.0002 O.2     1  LIG1       -0.4485
     21 H          -2.2257    9.4539   -0.0002 H       1  LIG1        0.0657
     22 H          -4.9464    9.1824   -0.0003 H       1  LIG1        0.0657
     23 C          -5.7114    6.3213   -0.0003 C.ar    1  LIG1        0.2381
     24 N          -5.6811    4.9673   -0.0003 N.ar    1  LIG1       -0.1226
     25 C          -7.9508    5.0970   -0.0004 C.ar    1  LIG1        0.1605
     26 N          -6.8404    7.0749   -0.0004 N.ar    1  LIG1       -0.1226
     27 N          -6.8443    4.3436   -0.0003 N.ar    1  LIG1       -0.1338
     28 N          -7.9911    6.4389   -0.0004 N.ar    1  LIG1       -0.1338
     29 H          -8.9025    4.5767   -0.0002 H       1  LIG1        0.1085
@<TRIPOS>BOND
     1    25    28   ar
     2    25    27   ar
     3    25    29    1
     4    28    26   ar
     5    26    23   ar
     6    27    24   ar
     7    23    19    1
     8    23    24   ar
     9    22    18    1
    10    19    18   ar
    11    19    20   ar
    12    18    17   ar
    13    20    16   ar
    14    17    16   ar
    15    17    21    1
    16    16    12    1
    17     7     2    1
    18    13    12   ar
    19    13     9   ar
    20    12    11   ar
    21     2     3   ar
    22     2     1   ar
    23     5     4   ar
    24     5     1   ar
    25    11    15    1
    26    11    10   ar
    27     9     4    1
    28     9    10   ar
    29     4     3   ar
    30    10    14    1
    31     3     8    1
    32     1     6    1
