@<TRIPOS>MOLECULE
mol_data/opt/b3lyp/geoms/mol2/1212-1212-.out
 30 33 0 0 0
SMALL
GASTEIGER

@<TRIPOS>ATOM
      1 C           0.1694    1.7042   -0.0001 C.ar    1  LIG1        0.0927
      2 C           1.5311    1.6958    0.0001 C.ar    1  LIG1       -0.0232
      3 C           1.9429    3.0646    0.0000 C.ar    1  LIG1       -0.0128
      4 C           0.7920    3.8113   -0.0000 C.ar    1  LIG1        0.1697
      5 O          -0.3010    2.9858   -0.0001 O.2     1  LIG1       -0.4598
      6 H          -0.5816    0.9303   -0.0001 H       1  LIG1        0.1029
      7 H           2.1670    0.8226    0.0002 H       1  LIG1        0.0649
      8 H           2.9502    3.4523    0.0001 H       1  LIG1        0.0656
      9 C           0.5331    5.2224   -0.0001 C.ar    1  LIG1        0.1707
     10 C          -0.6196    5.9690   -0.0001 C.ar    1  LIG1       -0.0121
     11 C          -0.2190    7.3334   -0.0001 C.ar    1  LIG1       -0.0121
     12 C           1.1552    7.3379   -0.0001 C.ar    1  LIG1        0.1707
     13 O           1.6254    6.0500   -0.0001 O.2     1  LIG1       -0.4486
     14 H          -1.6254    5.5771   -0.0001 H       1  LIG1        0.0657
     15 H          -0.8534    8.2068   -0.0002 H       1  LIG1        0.0657
     16 C           2.1353    8.3813   -0.0001 C.ar    1  LIG1        0.1707
     17 C           3.5094    8.3858   -0.0001 C.ar    1  LIG1       -0.0121
     18 C           3.9101    9.7502   -0.0001 C.ar    1  LIG1       -0.0121
     19 C           2.7574   10.4968   -0.0001 C.ar    1  LIG1        0.1707
     20 O           1.6651    9.6693   -0.0001 O.2     1  LIG1       -0.4486
     21 H           4.1439    7.5125   -0.0001 H       1  LIG1        0.0657
     22 H           4.9159   10.1422   -0.0001 H       1  LIG1        0.0657
     23 C           2.4984   11.9079   -0.0001 C.ar    1  LIG1        0.1697
     24 C           1.3476   12.6547   -0.0002 C.ar    1  LIG1       -0.0128
     25 C           1.7593   14.0234   -0.0002 C.ar    1  LIG1       -0.0232
     26 C           3.1211   14.0150   -0.0002 C.ar    1  LIG1        0.0927
     27 O           3.5914   12.7334   -0.0002 O.2     1  LIG1       -0.4598
     28 H           3.8720   14.7889   -0.0002 H       1  LIG1        0.1029
     29 H           0.3402   12.2669   -0.0002 H       1  LIG1        0.0656
     30 H           1.1235   14.8966   -0.0002 H       1  LIG1        0.0649
@<TRIPOS>BOND
     1    30    25    1
     2    25    26   ar
     3    25    24   ar
     4    28    26    1
     5    26    27   ar
     6    15    11    1
     7    27    23   ar
     8    24    29    1
     9    24    23   ar
    10    23    19    1
    11    11    10   ar
    12    11    12   ar
    13    14    10    1
    14    20    19   ar
    15    20    16   ar
    16    19    18   ar
    17    10     9   ar
    18     6     1    1
    19    12    16    1
    20    12    13   ar
    21    16    17   ar
    22    18    22    1
    23    18    17   ar
    24    17    21    1
    25     9    13   ar
    26     9     4    1
    27     5     1   ar
    28     5     4   ar
    29     1     2   ar
    30     4     3   ar
    31     3     8    1
    32     3     2   ar
    33     2     7    1
