@<TRIPOS>MOLECULE
mol_data/opt/b3lyp/geoms/mol2/1212-5-.out
 23 25 0 0 0
SMALL
GASTEIGER

@<TRIPOS>ATOM
      1 C           0.1566    1.7507   -0.0001 C.ar    1  LIG1        0.0927
      2 C           1.5184    1.7408   -0.0001 C.ar    1  LIG1       -0.0232
      3 C           1.9317    3.1092    0.0000 C.ar    1  LIG1       -0.0128
      4 C           0.7818    3.8568   -0.0001 C.ar    1  LIG1        0.1697
      5 O          -0.3123    3.0327   -0.0002 O.2     1  LIG1       -0.4598
      6 H          -0.5950    0.9776   -0.0001 H       1  LIG1        0.1029
      7 H           2.1534    0.8669   -0.0002 H       1  LIG1        0.0649
      8 H           2.9394    3.4962    0.0002 H       1  LIG1        0.0656
      9 C           0.5238    5.2684   -0.0000 C.ar    1  LIG1        0.1706
     10 C          -0.6274    6.0165   -0.0001 C.ar    1  LIG1       -0.0121
     11 C          -0.2233    7.3798   -0.0000 C.ar    1  LIG1       -0.0146
     12 C           1.1519    7.3890    0.0001 C.ar    1  LIG1        0.1424
     13 O           1.6138    6.0966    0.0001 O.2     1  LIG1       -0.4512
     14 H          -1.6342    5.6269   -0.0002 H       1  LIG1        0.0657
     15 H          -0.8652    8.2485   -0.0001 H       1  LIG1        0.0656
     16 C           2.1370    8.4393    0.0002 C.ar    1  LIG1        0.0544
     17 C           1.9308    9.8037    0.0003 C.ar    1  LIG1       -0.0440
     18 C           3.1395   10.5529    0.0004 C.ar    1  LIG1       -0.0540
     19 C           4.2566    9.7624    0.0004 C.ar    1  LIG1       -0.0236
     20 S           3.8512    8.0754    0.0003 S.2     1  LIG1       -0.0936
     21 H           5.2942   10.0649    0.0004 H       1  LIG1        0.0693
     22 H           0.9434   10.2508    0.0003 H       1  LIG1        0.0630
     23 H           3.1756   11.6362    0.0005 H       1  LIG1        0.0623
@<TRIPOS>BOND
     1     5     1   ar
     2     5     4   ar
     3    14    10    1
     4     7     2    1
     5     6     1    1
     6     2     1   ar
     7     2     3   ar
     8    15    11    1
     9    10    11   ar
    10    10     9   ar
    11     4     9    1
    12     4     3   ar
    13    11    12   ar
    14     9    13   ar
    15     3     8    1
    16    12    13   ar
    17    12    16    1
    18    16    20   ar
    19    16    17   ar
    20    20    19   ar
    21    17    22    1
    22    17    18   ar
    23    19    21    1
    24    19    18   ar
    25    18    23    1
