@<TRIPOS>MOLECULE
mol_data/opt/b3lyp/geoms/mol2/1212-13-8.out
 30 33 0 0 0
SMALL
GASTEIGER

@<TRIPOS>ATOM
      1 C           0.0894    1.7285    0.0003 C.ar    1  LIG1        0.0927
      2 C           1.4512    1.7016   -0.0001 C.ar    1  LIG1       -0.0232
      3 C           1.8809    3.0643   -0.0001 C.ar    1  LIG1       -0.0128
      4 C           0.7399    3.8262    0.0000 C.ar    1  LIG1        0.1697
      5 O          -0.3639    3.0154    0.0002 O.2     1  LIG1       -0.4598
      6 H          -0.6714    0.9644    0.0006 H       1  LIG1        0.1029
      7 H           2.0759    0.8203   -0.0002 H       1  LIG1        0.0649
      8 H           2.8944    3.4361   -0.0003 H       1  LIG1        0.0656
      9 C           0.4970    5.2398   -0.0000 C.ar    1  LIG1        0.1706
     10 C          -0.6473    5.9997    0.0001 C.ar    1  LIG1       -0.0121
     11 C          -0.2321    7.3591    0.0000 C.ar    1  LIG1       -0.0137
     12 C           1.1419    7.3549   -0.0002 C.ar    1  LIG1        0.1519
     13 O           1.5965    6.0573   -0.0002 O.2     1  LIG1       -0.4503
     14 H          -1.6574    5.6192    0.0003 H       1  LIG1        0.0657
     15 H          -0.8654    8.2341    0.0001 H       1  LIG1        0.0656
     16 C           2.1422    8.3841   -0.0005 C.ar    1  LIG1        0.0826
     17 C           2.0192    9.7813   -0.0003 C.ar    1  LIG1       -0.0327
     18 C           3.3143   10.3212   -0.0007 C.ar    1  LIG1       -0.0325
     19 C           4.2142    9.2538   -0.0010 C.ar    1  LIG1        0.0880
     20 N           3.4769    8.0902   -0.0009 N.ar    1  LIG1       -0.3492
     21 H           3.8844    7.1664   -0.0011 H       1  LIG1        0.1661
     22 H           1.0875   10.3280    0.0001 H       1  LIG1        0.0640
     23 H           3.5937   11.3640   -0.0008 H       1  LIG1        0.0640
     24 C           5.6498    9.2184   -0.0014 C.ar    1  LIG1        0.2193
     25 N           6.2385    7.9949   -0.0017 N.ar    1  LIG1       -0.1243
     26 C           8.2051    9.1221   -0.0022 C.ar    1  LIG1        0.1605
     27 N           6.3236   10.3983   -0.0015 N.ar    1  LIG1       -0.1243
     28 N           7.5555    7.9516   -0.0022 N.ar    1  LIG1       -0.1338
     29 N           7.6366   10.3397   -0.0020 N.ar    1  LIG1       -0.1338
     30 H           9.2890    9.0857   -0.0028 H       1  LIG1        0.1085
@<TRIPOS>BOND
     1    30    26    1
     2    26    28   ar
     3    26    29   ar
     4    28    25   ar
     5    29    27   ar
     6    25    24   ar
     7    27    24   ar
     8    24    19    1
     9    21    20    1
    10    19    20   ar
    11    19    18   ar
    12    20    16   ar
    13    23    18    1
    14    18    17   ar
    15    16    17   ar
    16    16    12    1
    17    17    22    1
    18     8     3    1
    19    12    13   ar
    20    12    11   ar
    21    13     9   ar
    22     7     2    1
    23     3     2   ar
    24     3     4   ar
    25     2     1   ar
    26     9     4    1
    27     9    10   ar
    28    11    15    1
    29    11    10   ar
    30     4     5   ar
    31    10    14    1
    32     5     1   ar
    33     1     6    1
