@<TRIPOS>MOLECULE
mol_data/opt/b3lyp/geoms/mol2/12128-5-.out
 29 32 0 0 0
SMALL
GASTEIGER

@<TRIPOS>ATOM
      1 C           0.6312    1.6217    0.0001 C.ar    1  LIG1        0.0927
      2 C           1.9819    1.8101   -0.0002 C.ar    1  LIG1       -0.0232
      3 C           2.1866    3.2218   -0.0001 C.ar    1  LIG1       -0.0128
      4 C           0.9368    3.7933   -0.0001 C.ar    1  LIG1        0.1697
      5 O          -0.0195    2.8161   -0.0001 O.2     1  LIG1       -0.4598
      6 H           0.0020    0.7460    0.0002 H       1  LIG1        0.1029
      7 H           2.7388    1.0397   -0.0003 H       1  LIG1        0.0649
      8 H           3.1306    3.7469   -0.0002 H       1  LIG1        0.0656
      9 C           0.4981    5.1621   -0.0001 C.ar    1  LIG1        0.1707
     10 C           1.1923    6.3556   -0.0002 C.ar    1  LIG1       -0.0121
     11 C           0.2189    7.3821   -0.0001 C.ar    1  LIG1       -0.0119
     12 C          -1.0083    6.7584   -0.0001 C.ar    1  LIG1        0.1761
     13 O          -0.8403    5.4007   -0.0001 O.2     1  LIG1       -0.4485
     14 H           2.2661    6.4706   -0.0002 H       1  LIG1        0.0657
     15 H           0.3769    8.4499   -0.0002 H       1  LIG1        0.0657
     16 C          -2.3500    7.2888   -0.0001 C.ar    1  LIG1        0.2381
     17 N          -3.3991    6.4323    0.0000 N.ar    1  LIG1       -0.1220
     18 C          -4.7182    8.2988    0.0000 C.ar    1  LIG1        0.2099
     19 N          -2.4605    8.6398   -0.0001 N.ar    1  LIG1       -0.1220
     20 N          -4.6045    6.9504    0.0001 N.ar    1  LIG1       -0.1246
     21 N          -3.6647    9.1503   -0.0000 N.ar    1  LIG1       -0.1246
     22 C          -6.0500    8.8698    0.0001 C.ar    1  LIG1        0.0598
     23 C          -7.2547    8.1992    0.0002 C.ar    1  LIG1       -0.0438
     24 C          -8.3722    9.0742    0.0002 C.ar    1  LIG1       -0.0540
     25 C          -8.0049   10.3962    0.0001 C.ar    1  LIG1       -0.0236
     26 S          -6.2875   10.6028    0.0000 S.2     1  LIG1       -0.0934
     27 H          -8.6490   11.2650    0.0000 H       1  LIG1        0.0693
     28 H          -7.3107    7.1177    0.0003 H       1  LIG1        0.0630
     29 H          -9.4030    8.7399    0.0003 H       1  LIG1        0.0623
@<TRIPOS>BOND
     1     7     2    1
     2     2     3   ar
     3     2     1   ar
     4    14    10    1
     5     8     3    1
     6    10    11   ar
     7    10     9   ar
     8    15    11    1
     9    11    12   ar
    10     3     4   ar
    11     9    13   ar
    12     9     4    1
    13    13    12   ar
    14     4     5   ar
    15    12    16    1
    16     5     1   ar
    17    19    16   ar
    18    19    21   ar
    19    16    17   ar
    20    21    18   ar
    21    26    25   ar
    22    26    22   ar
    23    17    20   ar
    24    27    25    1
    25    18    20   ar
    26    18    22    1
    27    25    24   ar
    28     1     6    1
    29    22    23   ar
    30    23    24   ar
    31    23    28    1
    32    24    29    1
