@<TRIPOS>MOLECULE
mol_data/opt/b3lyp/geoms/mol2/121213-.out
 24 26 0 0 0
SMALL
GASTEIGER

@<TRIPOS>ATOM
      1 C           0.3812    1.6814    0.0000 C.ar    1  LIG1        0.0927
      2 C           1.7399    1.7769    0.0000 C.ar    1  LIG1       -0.0232
      3 C           2.0436    3.1727    0.0001 C.ar    1  LIG1       -0.0128
      4 C           0.8379    3.8313   -0.0000 C.ar    1  LIG1        0.1697
      5 O          -0.1847    2.9222   -0.0002 O.2     1  LIG1       -0.4598
      6 H          -0.3085    0.8525   -0.0000 H       1  LIG1        0.1029
      7 H           2.4420    0.9559    0.0001 H       1  LIG1        0.0649
      8 H           3.0223    3.6299    0.0002 H       1  LIG1        0.0656
      9 C           0.4914    5.2276   -0.0001 C.ar    1  LIG1        0.1706
     10 C           1.2468    6.3741    0.0000 C.ar    1  LIG1       -0.0121
     11 C           0.3314    7.4637   -0.0001 C.ar    1  LIG1       -0.0137
     12 C          -0.9321    6.9194   -0.0003 C.ar    1  LIG1        0.1519
     13 O          -0.8392    5.5543   -0.0003 O.2     1  LIG1       -0.4503
     14 H           2.3257    6.4287    0.0002 H       1  LIG1        0.0657
     15 H           0.5835    8.5147   -0.0001 H       1  LIG1        0.0656
     16 C          -2.2604    7.4721   -0.0005 C.ar    1  LIG1        0.0821
     17 C          -3.5006    6.8466   -0.0003 C.ar    1  LIG1       -0.0334
     18 C          -4.4928    7.8599   -0.0009 C.ar    1  LIG1       -0.0437
     19 C          -3.8435    9.0778   -0.0006 C.ar    1  LIG1        0.0023
     20 N          -2.4924    8.8342   -0.0008 N.ar    1  LIG1       -0.3583
     21 H          -1.7763    9.5417   -0.0007 H       1  LIG1        0.1654
     22 H          -4.2272   10.0868   -0.0007 H       1  LIG1        0.0807
     23 H          -3.6534    5.7777   -0.0001 H       1  LIG1        0.0640
     24 H          -5.5636    7.7154   -0.0012 H       1  LIG1        0.0633
@<TRIPOS>BOND
     1    24    18    1
     2    18    19   ar
     3    18    17   ar
     4    20    21    1
     5    20    19   ar
     6    20    16   ar
     7    22    19    1
     8    16    17   ar
     9    16    12    1
    10    17    23    1
    11    12    13   ar
    12    12    11   ar
    13    13     9   ar
    14     5     4   ar
    15     5     1   ar
    16    11    15    1
    17    11    10   ar
    18     9     4    1
    19     9    10   ar
    20     4     3   ar
    21     6     1    1
    22     1     2   ar
    23    10    14    1
    24     2     7    1
    25     2     3   ar
    26     3     8    1
