@<TRIPOS>MOLECULE
mol_data/opt/b3lyp/geoms/mol2/1212-4.out
 26 28 0 0 0
SMALL
GASTEIGER

@<TRIPOS>ATOM
      1 C           0.1259    1.7232   -0.0006 C.ar    1  LIG1        0.0927
      2 C           1.4874    1.7007   -0.0000 C.ar    1  LIG1       -0.0232
      3 C           1.9123    3.0656    0.0002 C.ar    1  LIG1       -0.0128
      4 C           0.7696    3.8239   -0.0001 C.ar    1  LIG1        0.1697
      5 O          -0.3317    3.0090   -0.0005 O.2     1  LIG1       -0.4598
      6 H          -0.6328    0.9564   -0.0009 H       1  LIG1        0.1029
      7 H           2.1153    0.8214    0.0001 H       1  LIG1        0.0649
      8 H           2.9239    3.4425    0.0006 H       1  LIG1        0.0656
      9 C           0.5229    5.2380   -0.0000 C.ar    1  LIG1        0.1705
     10 C          -0.6228    5.9934   -0.0003 C.ar    1  LIG1       -0.0122
     11 C          -0.2043    7.3526    0.0000 C.ar    1  LIG1       -0.0151
     12 C           1.1699    7.3547    0.0004 C.ar    1  LIG1        0.1358
     13 O           1.6184    6.0558    0.0004 O.2     1  LIG1       -0.4517
     14 H          -1.6331    5.6128   -0.0006 H       1  LIG1        0.0657
     15 H          -0.8447    8.2224   -0.0001 H       1  LIG1        0.0656
     16 C           3.5477    8.0992    0.0014 C.ar    1  LIG1       -0.0511
     17 C           4.5003    9.1150    0.0019 C.ar    1  LIG1       -0.0611
     18 C           2.1750    8.4072    0.0008 C.ar    1  LIG1        0.0173
     19 C           4.1077   10.4543    0.0017 C.ar    1  LIG1       -0.0617
     20 H           5.5557    8.8577    0.0024 H       1  LIG1        0.0618
     21 C           1.7896    9.7611    0.0007 C.ar    1  LIG1       -0.0511
     22 C           2.7465   10.7704    0.0011 C.ar    1  LIG1       -0.0611
     23 H           0.7357   10.0218    0.0002 H       1  LIG1        0.0625
     24 H           4.8527   11.2443    0.0021 H       1  LIG1        0.0618
     25 H           3.8582    7.0602    0.0016 H       1  LIG1        0.0625
     26 H           2.4289   11.8092    0.0010 H       1  LIG1        0.0618
@<TRIPOS>BOND
     1     6     1    1
     2    14    10    1
     3     1     5   ar
     4     1     2   ar
     5     5     4   ar
     6    10     9   ar
     7    10    11   ar
     8     4     9    1
     9     4     3   ar
    10    15    11    1
    11     2     7    1
    12     2     3   ar
    13     9    13   ar
    14    11    12   ar
    15     3     8    1
    16    23    21    1
    17    13    12   ar
    18    12    18    1
    19    21    18   ar
    20    21    22   ar
    21    18    16   ar
    22    26    22    1
    23    22    19   ar
    24    16    25    1
    25    16    17   ar
    26    19    17   ar
    27    19    24    1
    28    17    20    1
