@<TRIPOS>MOLECULE
mol_data/opt/b3lyp/geoms/mol2/1212-58-.out
 29 32 0 0 0
SMALL
GASTEIGER

@<TRIPOS>ATOM
      1 C           0.0838    1.6962    0.0001 C.ar    1  LIG1        0.0927
      2 C           1.4458    1.6547   -0.0002 C.ar    1  LIG1       -0.0232
      3 C           1.8892    3.0125   -0.0001 C.ar    1  LIG1       -0.0128
      4 C           0.7561    3.7861   -0.0001 C.ar    1  LIG1        0.1697
      5 O          -0.3561    2.9869   -0.0000 O.2     1  LIG1       -0.4598
      6 H          -0.6846    0.9396    0.0002 H       1  LIG1        0.1029
      7 H           2.0606    0.7666   -0.0003 H       1  LIG1        0.0649
      8 H           2.9057    3.3760   -0.0002 H       1  LIG1        0.0656
      9 C           0.5298    5.2022   -0.0001 C.ar    1  LIG1        0.1706
     10 C          -0.6108    5.9708   -0.0000 C.ar    1  LIG1       -0.0121
     11 C          -0.1819    7.3229   -0.0000 C.ar    1  LIG1       -0.0146
     12 C           1.1949    7.3078   -0.0001 C.ar    1  LIG1        0.1424
     13 O           1.6346    6.0051   -0.0001 O.2     1  LIG1       -0.4512
     14 H          -1.6240    5.5988    0.0001 H       1  LIG1        0.0657
     15 H          -0.8078    8.2039   -0.0000 H       1  LIG1        0.0656
     16 C           2.2043    8.3273   -0.0002 C.ar    1  LIG1        0.0551
     17 C           3.5800    8.1497   -0.0006 C.ar    1  LIG1       -0.0433
     18 C           4.2913    9.3661   -0.0005 C.ar    1  LIG1       -0.0431
     19 C           3.4703   10.4770   -0.0002 C.ar    1  LIG1        0.0605
     20 S           1.7789   10.0225    0.0001 S.2     1  LIG1       -0.0820
     21 H           4.0404    7.1700   -0.0008 H       1  LIG1        0.0630
     22 H           5.3709    9.4520   -0.0007 H       1  LIG1        0.0630
     23 C           3.8607   11.8667   -0.0001 C.ar    1  LIG1        0.2099
     24 N           2.8753   12.7969    0.0001 N.ar    1  LIG1       -0.1253
     25 C           4.5441   14.3310    0.0000 C.ar    1  LIG1        0.1605
     26 N           5.1874   12.1523   -0.0002 N.ar    1  LIG1       -0.1253
     27 N           3.2317   14.0648    0.0002 N.ar    1  LIG1       -0.1339
     28 N           5.5316   13.4224   -0.0001 N.ar    1  LIG1       -0.1339
     29 H           4.8362   15.3755    0.0004 H       1  LIG1        0.1085
@<TRIPOS>BOND
     1    21    17    1
     2    22    18    1
     3    17    18   ar
     4    17    16   ar
     5    18    19   ar
     6     7     2    1
     7     2     3   ar
     8     2     1   ar
     9    16    12    1
    10    16    20   ar
    11    26    28   ar
    12    26    23   ar
    13     8     3    1
    14    19    23    1
    15    19    20   ar
    16     3     4   ar
    17    13    12   ar
    18    13     9   ar
    19    12    11   ar
    20    28    25   ar
    21     4     9    1
    22     4     5   ar
    23     9    10   ar
    24    23    24   ar
    25    11    15    1
    26    11    10   ar
    27     5     1   ar
    28    10    14    1
    29    25    27   ar
    30    25    29    1
    31     1     6    1
    32    24    27   ar
