@<TRIPOS>MOLECULE
mol_data/opt/b3lyp/geoms/mol2/12125.out
 23 25 0 0 0
SMALL
GASTEIGER

@<TRIPOS>ATOM
      1 C           0.3650    1.6953    0.0001 C.ar    1  LIG1        0.0927
      2 C           1.7246    1.7837    0.0000 C.ar    1  LIG1       -0.0232
      3 C           2.0350    3.1776    0.0001 C.ar    1  LIG1       -0.0128
      4 C           0.8322    3.8416   -0.0001 C.ar    1  LIG1        0.1697
      5 O          -0.1948    2.9380   -0.0001 O.2     1  LIG1       -0.4598
      6 H          -0.3285    0.8697    0.0001 H       1  LIG1        0.1029
      7 H           2.4224    0.9592    0.0001 H       1  LIG1        0.0649
      8 H           3.0159    3.6299    0.0002 H       1  LIG1        0.0656
      9 C           0.4929    5.2393   -0.0001 C.ar    1  LIG1        0.1706
     10 C           1.2555    6.3832   -0.0001 C.ar    1  LIG1       -0.0121
     11 C           0.3483    7.4768   -0.0002 C.ar    1  LIG1       -0.0146
     12 C          -0.9189    6.9414   -0.0004 C.ar    1  LIG1        0.1424
     13 O          -0.8333    5.5736   -0.0003 O.2     1  LIG1       -0.4512
     14 H           2.3346    6.4309    0.0000 H       1  LIG1        0.0657
     15 H           0.5964    8.5280   -0.0002 H       1  LIG1        0.0656
     16 C          -2.2390    7.5170   -0.0005 C.ar    1  LIG1        0.0544
     17 C          -2.5883    8.8520   -0.0009 C.ar    1  LIG1       -0.0440
     18 C          -3.9946    9.0625   -0.0009 C.ar    1  LIG1       -0.0540
     19 C          -4.7077    7.8942   -0.0006 C.ar    1  LIG1       -0.0236
     20 S          -3.6690    6.5047   -0.0003 S.2     1  LIG1       -0.0936
     21 H          -5.7804    7.7621   -0.0005 H       1  LIG1        0.0693
     22 H          -1.8579    9.6528   -0.0011 H       1  LIG1        0.0630
     23 H          -4.4561   10.0433   -0.0011 H       1  LIG1        0.0623
@<TRIPOS>BOND
     1    23    18    1
     2    22    17    1
     3    18    17   ar
     4    18    19   ar
     5    17    16   ar
     6    19    21    1
     7    19    20   ar
     8    16    12    1
     9    16    20   ar
    10    12    13   ar
    11    12    11   ar
    12    13     9   ar
    13    11    15    1
    14    11    10   ar
    15     5     4   ar
    16     5     1   ar
    17     9    10   ar
    18     9     4    1
    19    10    14    1
    20     4     3   ar
    21     2     7    1
    22     2     1   ar
    23     2     3   ar
    24     1     6    1
    25     3     8    1
