@<TRIPOS>MOLECULE
mol_data/opt/b3lyp/geoms/mol2/121213.out
 24 26 0 0 0
SMALL
GASTEIGER

@<TRIPOS>ATOM
      1 C           0.3578    1.6954   -0.0000 C.ar    1  LIG1        0.0927
      2 C           1.7171    1.7767   -0.0002 C.ar    1  LIG1       -0.0232
      3 C           2.0366    3.1691   -0.0002 C.ar    1  LIG1       -0.0128
      4 C           0.8387    3.8415   -0.0001 C.ar    1  LIG1        0.1697
      5 O          -0.1951    2.9434   -0.0001 O.2     1  LIG1       -0.4598
      6 H          -0.3406    0.8739    0.0000 H       1  LIG1        0.1029
      7 H           2.4103    0.9481   -0.0003 H       1  LIG1        0.0649
      8 H           3.0203    3.6149   -0.0002 H       1  LIG1        0.0656
      9 C           0.5048    5.2402   -0.0001 C.ar    1  LIG1        0.1706
     10 C           1.2632    6.3849   -0.0000 C.ar    1  LIG1       -0.0121
     11 C           0.3558    7.4812   -0.0000 C.ar    1  LIG1       -0.0137
     12 C          -0.9094    6.9464    0.0000 C.ar    1  LIG1        0.1519
     13 O          -0.8261    5.5759    0.0000 O.2     1  LIG1       -0.4503
     14 H           2.3425    6.4334   -0.0001 H       1  LIG1        0.0657
     15 H           0.6032    8.5323   -0.0000 H       1  LIG1        0.0656
     16 C          -2.2379    7.4983    0.0001 C.ar    1  LIG1        0.0821
     17 C          -2.6971    8.8106   -0.0001 C.ar    1  LIG1       -0.0334
     18 C          -4.1141    8.7666    0.0004 C.ar    1  LIG1       -0.0437
     19 C          -4.4894    7.4368    0.0002 C.ar    1  LIG1        0.0023
     20 N          -3.3478    6.6789    0.0004 N.ar    1  LIG1       -0.3583
     21 H          -3.2960    5.6724    0.0004 H       1  LIG1        0.1654
     22 H          -5.4658    6.9765    0.0002 H       1  LIG1        0.0807
     23 H          -2.0747    9.6941   -0.0003 H       1  LIG1        0.0640
     24 H          -4.7861    9.6127    0.0006 H       1  LIG1        0.0633
@<TRIPOS>BOND
     1    23    17    1
     2     7     2    1
     3     2     3   ar
     4     2     1   ar
     5     8     3    1
     6     3     4   ar
     7    17    16   ar
     8    17    18   ar
     9     4     5   ar
    10     4     9    1
    11     5     1   ar
    12    14    10    1
    13     9    10   ar
    14     9    13   ar
    15    10    11   ar
    16     1     6    1
    17    11    15    1
    18    11    12   ar
    19    13    12   ar
    20    12    16    1
    21    16    20   ar
    22    19    22    1
    23    19    20   ar
    24    19    18   ar
    25    21    20    1
    26    18    24    1
