@<TRIPOS>MOLECULE
mol_data/opt/b3lyp/geoms/mol2/1212-8-13.out
 30 33 0 0 0
SMALL
GASTEIGER

@<TRIPOS>ATOM
      1 C          -0.0114    1.7303   -0.0002 C.ar    1  LIG1        0.0927
      2 C           1.3490    1.6488    0.0001 C.ar    1  LIG1       -0.0232
      3 C           1.8324    2.9925    0.0000 C.ar    1  LIG1       -0.0128
      4 C           0.7221    3.7982   -0.0001 C.ar    1  LIG1        0.1697
      5 O          -0.4138    3.0328   -0.0002 O.2     1  LIG1       -0.4598
      6 H          -0.8017    0.9965   -0.0003 H       1  LIG1        0.1029
      7 H           1.9375    0.7431    0.0003 H       1  LIG1        0.0649
      8 H           2.8582    3.3291    0.0001 H       1  LIG1        0.0656
      9 C           0.5421    5.2212   -0.0001 C.ar    1  LIG1        0.1707
     10 C          -0.5744    6.0289   -0.0002 C.ar    1  LIG1       -0.0121
     11 C          -0.0976    7.3633   -0.0002 C.ar    1  LIG1       -0.0119
     12 C           1.2763    7.2909   -0.0001 C.ar    1  LIG1        0.1761
     13 O           1.6723    5.9802   -0.0000 O.2     1  LIG1       -0.4485
     14 H          -1.5999    5.6919   -0.0003 H       1  LIG1        0.0657
     15 H          -0.6746    8.2755   -0.0003 H       1  LIG1        0.0657
     16 C           2.2947    8.3144   -0.0000 C.ar    1  LIG1        0.2381
     17 N           1.8604    9.5972   -0.0000 N.ar    1  LIG1       -0.1220
     18 C           4.0724   10.1781    0.0001 C.ar    1  LIG1        0.2194
     19 N           3.5989    7.9440    0.0001 N.ar    1  LIG1       -0.1220
     20 N           2.7650   10.5433    0.0000 N.ar    1  LIG1       -0.1236
     21 N           4.5030    8.8931    0.0001 N.ar    1  LIG1       -0.1236
     22 C           5.0498   11.2354    0.0002 C.ar    1  LIG1        0.0875
     23 C           6.4417   11.2126    0.0002 C.ar    1  LIG1       -0.0333
     24 C           6.8832   12.5540    0.0001 C.ar    1  LIG1       -0.0437
     25 C           5.7557   13.3632    0.0004 C.ar    1  LIG1        0.0023
     26 N           4.6567   12.5578    0.0003 N.ar    1  LIG1       -0.3582
     27 H           3.6871   12.8381    0.0002 H       1  LIG1        0.1654
     28 H           5.6621   14.4390    0.0006 H       1  LIG1        0.0807
     29 H           7.0452   10.3175    0.0002 H       1  LIG1        0.0640
     30 H           7.9068   12.8996    0.0000 H       1  LIG1        0.0633
@<TRIPOS>BOND
     1     6     1    1
     2    14    10    1
     3    15    11    1
     4    10    11   ar
     5    10     9   ar
     6     1     5   ar
     7     1     2   ar
     8    11    12   ar
     9     5     4   ar
    10     9     4    1
    11     9    13   ar
    12    12    13   ar
    13    12    16    1
    14     4     3   ar
    15    17    16   ar
    16    17    20   ar
    17    16    19   ar
    18    20    18   ar
    19     3     2   ar
    20     3     8    1
    21    30    24    1
    22    19    21   ar
    23    18    21   ar
    24    18    22    1
    25     2     7    1
    26    24    23   ar
    27    24    25   ar
    28    27    26    1
    29    22    23   ar
    30    22    26   ar
    31    29    23    1
    32    26    25   ar
    33    25    28    1
