@<TRIPOS>MOLECULE
mol_data/opt/b3lyp/geoms/mol2/1212-413.out
 34 37 0 0 0
SMALL
GASTEIGER

@<TRIPOS>ATOM
      1 C           0.0630    1.6503   -0.0012 C.ar    1  LIG1        0.0927
      2 C           1.4245    1.6247   -0.0003 C.ar    1  LIG1       -0.0232
      3 C           1.8533    2.9884    0.0003 C.ar    1  LIG1       -0.0128
      4 C           0.7122    3.7498   -0.0004 C.ar    1  LIG1        0.1697
      5 O          -0.3909    2.9378   -0.0013 O.2     1  LIG1       -0.4598
      6 H          -0.6976    0.8859   -0.0019 H       1  LIG1        0.1029
      7 H           2.0496    0.7437    0.0000 H       1  LIG1        0.0649
      8 H           2.8656    3.3630    0.0010 H       1  LIG1        0.0656
      9 C           0.4701    5.1645   -0.0003 C.ar    1  LIG1        0.1705
     10 C          -0.6736    5.9235   -0.0010 C.ar    1  LIG1       -0.0122
     11 C          -0.2524    7.2814   -0.0004 C.ar    1  LIG1       -0.0151
     12 C           1.1230    7.2803    0.0005 C.ar    1  LIG1        0.1358
     13 O           1.5678    5.9800    0.0006 O.2     1  LIG1       -0.4517
     14 H          -1.6846    5.5450   -0.0017 H       1  LIG1        0.0657
     15 H          -0.8905    8.1528   -0.0007 H       1  LIG1        0.0656
     16 C           3.5038    8.0255    0.0024 C.ar    1  LIG1       -0.0505
     17 C           4.4569    9.0322    0.0033 C.ar    1  LIG1       -0.0520
     18 C           2.1285    8.3276    0.0014 C.ar    1  LIG1        0.0173
     19 C           4.0948   10.3940    0.0031 C.ar    1  LIG1       -0.0017
     20 H           5.5070    8.7593    0.0041 H       1  LIG1        0.0624
     21 C           1.7585    9.6845    0.0012 C.ar    1  LIG1       -0.0505
     22 C           2.7164   10.6881    0.0020 C.ar    1  LIG1       -0.0520
     23 H           0.7079    9.9580    0.0003 H       1  LIG1        0.0625
     24 H           3.8182    6.9879    0.0026 H       1  LIG1        0.0625
     25 H           2.3710   11.7182    0.0017 H       1  LIG1        0.0624
     26 C           5.1183   11.4344    0.0039 C.ar    1  LIG1        0.0465
     27 C           6.5073   11.3454    0.0043 C.ar    1  LIG1       -0.0364
     28 C           7.0366   12.6596    0.0052 C.ar    1  LIG1       -0.0438
     29 C           5.9673   13.5320    0.0053 C.ar    1  LIG1        0.0022
     30 N           4.8180   12.7848    0.0046 N.ar    1  LIG1       -0.3607
     31 H           3.8884   13.1698    0.0045 H       1  LIG1        0.1653
     32 H           5.9313   14.6111    0.0060 H       1  LIG1        0.0807
     33 H           7.0794   10.4291    0.0039 H       1  LIG1        0.0639
     34 H           8.0808   12.9372    0.0057 H       1  LIG1        0.0633
@<TRIPOS>BOND
     1     6     1    1
     2    14    10    1
     3     5     1   ar
     4     5     4   ar
     5     1     2   ar
     6    10    11   ar
     7    10     9   ar
     8    15    11    1
     9    11    12   ar
    10     4     9    1
    11     4     3   ar
    12     9    13   ar
    13     2     7    1
    14     2     3   ar
    15     3     8    1
    16    23    21    1
    17    12    13   ar
    18    12    18    1
    19    21    18   ar
    20    21    22   ar
    21    18    16   ar
    22    25    22    1
    23    22    19   ar
    24    16    24    1
    25    16    17   ar
    26    19    17   ar
    27    19    26    1
    28    17    20    1
    29    33    27    1
    30    26    27   ar
    31    26    30   ar
    32    27    28   ar
    33    31    30    1
    34    30    29   ar
    35    28    29   ar
    36    28    34    1
    37    29    32    1
