@<TRIPOS>MOLECULE
mol_data/opt/b3lyp/geoms/mol2/1212-124-.out
 33 36 0 0 0
SMALL
GASTEIGER

@<TRIPOS>ATOM
      1 C           0.1831    1.6589    0.0004 C.ar    1  LIG1        0.0927
      2 C           1.5445    1.6567    0.0007 C.ar    1  LIG1       -0.0232
      3 C           1.9495    3.0274    0.0005 C.ar    1  LIG1       -0.0128
      4 C           0.7952    3.7686    0.0001 C.ar    1  LIG1        0.1697
      5 O          -0.2937    2.9379    0.0001 O.2     1  LIG1       -0.4598
      6 H          -0.5641    0.8809    0.0005 H       1  LIG1        0.1029
      7 H           2.1851    0.7863    0.0009 H       1  LIG1        0.0649
      8 H           2.9552    3.4198    0.0006 H       1  LIG1        0.0656
      9 C           0.5295    5.1784   -0.0002 C.ar    1  LIG1        0.1707
     10 C          -0.6264    5.9197   -0.0005 C.ar    1  LIG1       -0.0121
     11 C          -0.2316    7.2859   -0.0007 C.ar    1  LIG1       -0.0121
     12 C           1.1423    7.2964   -0.0005 C.ar    1  LIG1        0.1707
     13 O           1.6180    6.0105   -0.0002 O.2     1  LIG1       -0.4486
     14 H          -1.6308    5.5236   -0.0005 H       1  LIG1        0.0657
     15 H          -0.8707    8.1559   -0.0009 H       1  LIG1        0.0657
     16 C           2.1196    8.3431   -0.0005 C.ar    1  LIG1        0.1706
     17 C           3.4931    8.3486   -0.0003 C.ar    1  LIG1       -0.0122
     18 C           3.8862    9.7143   -0.0005 C.ar    1  LIG1       -0.0151
     19 C           2.7371   10.4689   -0.0008 C.ar    1  LIG1        0.1358
     20 O           1.6508    9.6279   -0.0008 O.2     1  LIG1       -0.4517
     21 H           4.1306    7.4772   -0.0001 H       1  LIG1        0.0657
     22 H           4.8982   10.0916   -0.0005 H       1  LIG1        0.0656
     23 C           1.1563   12.3950   -0.0016 C.ar    1  LIG1       -0.0511
     24 C           0.9166   13.7668   -0.0018 C.ar    1  LIG1       -0.0611
     25 C           2.4735   11.9001   -0.0011 C.ar    1  LIG1        0.0173
     26 C           1.9795   14.6713   -0.0017 C.ar    1  LIG1       -0.0617
     27 H          -0.1069   14.1305   -0.0022 H       1  LIG1        0.0618
     28 C           3.5383   12.8210   -0.0009 C.ar    1  LIG1       -0.0511
     29 C           3.2912   14.1897   -0.0012 C.ar    1  LIG1       -0.0611
     30 H           4.5626   12.4616   -0.0006 H       1  LIG1        0.0625
     31 H           1.7895   15.7408   -0.0019 H       1  LIG1        0.0618
     32 H           0.3273   11.6963   -0.0017 H       1  LIG1        0.0625
     33 H           4.1263   14.8850   -0.0011 H       1  LIG1        0.0618
@<TRIPOS>BOND
     1    27    24    1
     2    31    26    1
     3    24    26   ar
     4    24    23   ar
     5    32    23    1
     6    26    29   ar
     7    23    25   ar
     8    29    33    1
     9    29    28   ar
    10    25    28   ar
    11    25    19    1
    12    28    30    1
    13    15    11    1
    14    19    20   ar
    15    19    18   ar
    16    20    16   ar
    17    11    10   ar
    18    11    12   ar
    19    14    10    1
    20    18    22    1
    21    18    17   ar
    22    16    12    1
    23    16    17   ar
    24    10     9   ar
    25    12    13   ar
    26    17    21    1
    27    13     9   ar
    28     9     4    1
    29     5     4   ar
    30     5     1   ar
    31     4     3   ar
    32     1     6    1
    33     1     2   ar
    34     3     8    1
    35     3     2   ar
    36     2     7    1
