@<TRIPOS>MOLECULE
mol_data/opt/b3lyp/geoms/mol2/121254-.out
 33 36 0 0 0
SMALL
GASTEIGER

@<TRIPOS>ATOM
      1 C           0.5778    1.6510    0.0003 C.ar    1  LIG1        0.0927
      2 C           1.9352    1.7696    0.0006 C.ar    1  LIG1       -0.0232
      3 C           2.2145    3.1697    0.0005 C.ar    1  LIG1       -0.0128
      4 C           0.9971    3.8070    0.0002 C.ar    1  LIG1        0.1697
      5 O          -0.0097    2.8808    0.0001 O.2     1  LIG1       -0.4598
      6 H          -0.0973    0.8101    0.0002 H       1  LIG1        0.1029
      7 H           2.6513    0.9607    0.0008 H       1  LIG1        0.0649
      8 H           3.1850    3.6439    0.0006 H       1  LIG1        0.0656
      9 C           0.6278    5.1962   -0.0000 C.ar    1  LIG1        0.1706
     10 C           1.3667    6.3565    0.0000 C.ar    1  LIG1       -0.0121
     11 C           0.4381    7.4302   -0.0003 C.ar    1  LIG1       -0.0146
     12 C          -0.8192    6.8685   -0.0005 C.ar    1  LIG1        0.1424
     13 O          -0.7051    5.5024   -0.0003 O.2     1  LIG1       -0.4512
     14 H           2.4445    6.4265    0.0002 H       1  LIG1        0.0657
     15 H           0.6644    8.4862   -0.0003 H       1  LIG1        0.0656
     16 C          -2.1465    7.4183   -0.0008 C.ar    1  LIG1        0.0550
     17 C          -2.5202    8.7477   -0.0012 C.ar    1  LIG1       -0.0434
     18 C          -3.9219    8.9346   -0.0013 C.ar    1  LIG1       -0.0462
     19 C          -4.6490    7.7609   -0.0011 C.ar    1  LIG1        0.0200
     20 S          -3.5574    6.3839   -0.0006 S.2     1  LIG1       -0.0852
     21 H          -1.8055    9.5626   -0.0014 H       1  LIG1        0.0630
     22 H          -4.3800    9.9163   -0.0018 H       1  LIG1        0.0629
     23 C          -6.6917    6.3020   -0.0024 C.ar    1  LIG1       -0.0535
     24 C          -8.0750    6.1444   -0.0025 C.ar    1  LIG1       -0.0612
     25 C          -6.1042    7.5815   -0.0012 C.ar    1  LIG1       -0.0113
     26 C          -8.9132    7.2600   -0.0014 C.ar    1  LIG1       -0.0617
     27 H          -8.4982    5.1442   -0.0035 H       1  LIG1        0.0618
     28 C          -6.9654    8.6971    0.0000 C.ar    1  LIG1       -0.0535
     29 C          -8.3474    8.5368   -0.0001 C.ar    1  LIG1       -0.0612
     30 H          -6.5511    9.6997    0.0011 H       1  LIG1        0.0624
     31 H          -9.9919    7.1371   -0.0015 H       1  LIG1        0.0618
     32 H          -6.0612    5.4176   -0.0035 H       1  LIG1        0.0624
     33 H          -8.9862    9.4153    0.0008 H       1  LIG1        0.0618
@<TRIPOS>BOND
     1    27    24    1
     2    32    23    1
     3    24    23   ar
     4    24    26   ar
     5    23    25   ar
     6    22    18    1
     7    31    26    1
     8    26    29   ar
     9    21    17    1
    10    18    17   ar
    11    18    19   ar
    12    25    19    1
    13    25    28   ar
    14    17    16   ar
    15    19    20   ar
    16    16    20   ar
    17    16    12    1
    18    12    13   ar
    19    12    11   ar
    20    13     9   ar
    21    15    11    1
    22    11    10   ar
    23    29    28   ar
    24    29    33    1
    25     9    10   ar
    26     9     4    1
    27    10    14    1
    28    28    30    1
    29     5     4   ar
    30     5     1   ar
    31     4     3   ar
    32     6     1    1
    33     1     2   ar
    34     3     2   ar
    35     3     8    1
    36     2     7    1
