@<TRIPOS>MOLECULE
mol_data/opt/b3lyp/geoms/mol2/1212134.out
 34 37 0 0 0
SMALL
GASTEIGER

@<TRIPOS>ATOM
      1 C           0.5399    1.6910   -0.0001 C.ar    1  LIG1        0.0927
      2 C           1.8976    1.7973   -0.0005 C.ar    1  LIG1       -0.0232
      3 C           2.1913    3.1951   -0.0007 C.ar    1  LIG1       -0.0128
      4 C           0.9810    3.8452   -0.0004 C.ar    1  LIG1        0.1697
      5 O          -0.0361    2.9283    0.0000 O.2     1  LIG1       -0.4598
      6 H          -0.1431    0.8566    0.0003 H       1  LIG1        0.1029
      7 H           2.6058    0.9816   -0.0007 H       1  LIG1        0.0649
      8 H           3.1666    3.6590   -0.0011 H       1  LIG1        0.0656
      9 C           0.6215    5.2369   -0.0004 C.ar    1  LIG1        0.1706
     10 C           1.3594    6.3958   -0.0007 C.ar    1  LIG1       -0.0121
     11 C           0.4330    7.4747   -0.0005 C.ar    1  LIG1       -0.0137
     12 C          -0.8233    6.9170   -0.0000 C.ar    1  LIG1        0.1519
     13 O          -0.7149    5.5477    0.0000 O.2     1  LIG1       -0.4503
     14 H           2.4375    6.4635   -0.0011 H       1  LIG1        0.0657
     15 H           0.6614    8.5302   -0.0006 H       1  LIG1        0.0656
     16 C          -2.1587    7.4445    0.0004 C.ar    1  LIG1        0.0825
     17 C          -2.6393    8.7515    0.0004 C.ar    1  LIG1       -0.0328
     18 C          -4.0471    8.6827    0.0010 C.ar    1  LIG1       -0.0357
     19 C          -4.4227    7.3389    0.0013 C.ar    1  LIG1        0.0470
     20 N          -3.2527    6.6099    0.0010 N.ar    1  LIG1       -0.3518
     21 H          -3.1746    5.6056    0.0009 H       1  LIG1        0.1660
     22 H          -2.0332    9.6458    0.0000 H       1  LIG1        0.0640
     23 H          -4.7226    9.5256    0.0012 H       1  LIG1        0.0639
     24 C          -6.9054    7.5183    0.0018 C.ar    1  LIG1       -0.0526
     25 C          -8.1728    6.9461    0.0024 C.ar    1  LIG1       -0.0611
     26 C          -5.7452    6.7186    0.0020 C.ar    1  LIG1       -0.0017
     27 C          -8.3246    5.5573    0.0032 C.ar    1  LIG1       -0.0617
     28 H          -9.0485    7.5890    0.0023 H       1  LIG1        0.0618
     29 C          -5.9160    5.3209    0.0028 C.ar    1  LIG1       -0.0526
     30 C          -7.1867    4.7503    0.0033 C.ar    1  LIG1       -0.0611
     31 H          -5.0540    4.6596    0.0030 H       1  LIG1        0.0624
     32 H          -9.3146    5.1119    0.0036 H       1  LIG1        0.0618
     33 H          -6.8101    8.5991    0.0012 H       1  LIG1        0.0624
     34 H          -7.2856    3.6686    0.0039 H       1  LIG1        0.0618
@<TRIPOS>BOND
     1     8     3    1
     2    14    10    1
     3     3     2   ar
     4     3     4   ar
     5    10    11   ar
     6    10     9   ar
     7     7     2    1
     8    15    11    1
     9     2     1   ar
    10    11    12   ar
    11     4     9    1
    12     4     5   ar
    13     9    13   ar
    14     1     5   ar
    15     1     6    1
    16    12    13   ar
    17    12    16    1
    18    22    17    1
    19    17    16   ar
    20    17    18   ar
    21    16    20   ar
    22    21    20    1
    23    18    23    1
    24    18    19   ar
    25    20    19   ar
    26    33    24    1
    27    19    26    1
    28    24    26   ar
    29    24    25   ar
    30    26    29   ar
    31    28    25    1
    32    25    27   ar
    33    29    31    1
    34    29    30   ar
    35    27    30   ar
    36    27    32    1
    37    30    34    1
