@<TRIPOS>MOLECULE
mol_data/opt/b3lyp/geoms/mol2/12125-12.out
 30 33 0 0 0
SMALL
GASTEIGER

@<TRIPOS>ATOM
      1 C           0.5174    1.6176    0.0001 C.ar    1  LIG1        0.0927
      2 C           1.8735    1.7486    0.0000 C.ar    1  LIG1       -0.0232
      3 C           2.1403    3.1512   -0.0001 C.ar    1  LIG1       -0.0128
      4 C           0.9174    3.7777   -0.0000 C.ar    1  LIG1        0.1697
      5 O          -0.0812    2.8423    0.0001 O.2     1  LIG1       -0.4598
      6 H          -0.1499    0.7703    0.0001 H       1  LIG1        0.1029
      7 H           2.5966    0.9463    0.0000 H       1  LIG1        0.0649
      8 H           3.1067    3.6338   -0.0002 H       1  LIG1        0.0656
      9 C           0.5347    5.1636   -0.0001 C.ar    1  LIG1        0.1706
     10 C           1.2627    6.3304   -0.0002 C.ar    1  LIG1       -0.0121
     11 C           0.3223    7.3945   -0.0002 C.ar    1  LIG1       -0.0146
     12 C          -0.9285    6.8202   -0.0001 C.ar    1  LIG1        0.1424
     13 O          -0.8015    5.4543   -0.0000 O.2     1  LIG1       -0.4512
     14 H           2.3398    6.4110   -0.0003 H       1  LIG1        0.0657
     15 H           0.5381    8.4531   -0.0002 H       1  LIG1        0.0656
     16 C          -2.2685    7.3379   -0.0000 C.ar    1  LIG1        0.0551
     17 C          -3.4540    6.6318    0.0002 C.ar    1  LIG1       -0.0433
     18 C          -4.6027    7.4596    0.0002 C.ar    1  LIG1       -0.0433
     19 C          -4.3100    8.8073   -0.0000 C.ar    1  LIG1        0.0551
     20 S          -2.5750    9.0658   -0.0003 S.2     1  LIG1       -0.0821
     21 H          -3.4811    5.5492    0.0004 H       1  LIG1        0.0630
     22 H          -5.6203    7.0894    0.0004 H       1  LIG1        0.0630
     23 C          -5.2266    9.9179   -0.0000 C.ar    1  LIG1        0.1413
     24 C          -5.0746   11.2831    0.0001 C.ar    1  LIG1       -0.0154
     25 C          -6.3902   11.8402   -0.0000 C.ar    1  LIG1       -0.0233
     26 C          -7.2510   10.7853   -0.0002 C.ar    1  LIG1        0.0926
     27 O          -6.5633    9.6077   -0.0002 O.2     1  LIG1       -0.4624
     28 H          -8.3262   10.7004   -0.0003 H       1  LIG1        0.1029
     29 H          -4.1378   11.8214    0.0002 H       1  LIG1        0.0655
     30 H          -6.6569   12.8869    0.0001 H       1  LIG1        0.0649
@<TRIPOS>BOND
     1    28    26    1
     2    20    16   ar
     3    20    19   ar
     4    14    10    1
     5    15    11    1
     6    27    26   ar
     7    27    23   ar
     8    10    11   ar
     9    10     9   ar
    10    11    12   ar
    11     8     3    1
    12    26    25   ar
    13     9     4    1
    14     9    13   ar
    15    12    13   ar
    16    12    16    1
    17     3     4   ar
    18     3     2   ar
    19     4     5   ar
    20    23    19    1
    21    23    24   ar
    22    16    17   ar
    23    19    18   ar
    24    25    30    1
    25    25    24   ar
    26     2     7    1
    27     2     1   ar
    28     5     1   ar
    29     1     6    1
    30    24    29    1
    31    17    18   ar
    32    17    21    1
    33    18    22    1
