@<TRIPOS>MOLECULE
mol_data/opt/b3lyp/geoms/mol2/12128-13-.out
 30 33 0 0 0
SMALL
GASTEIGER

@<TRIPOS>ATOM
      1 C           0.6188    1.6277   -0.0001 C.ar    1  LIG1        0.0927
      2 C           1.9696    1.8137    0.0001 C.ar    1  LIG1       -0.0232
      3 C           2.1771    3.2252    0.0001 C.ar    1  LIG1       -0.0128
      4 C           0.9285    3.7992   -0.0000 C.ar    1  LIG1        0.1697
      5 O          -0.0296    2.8238   -0.0001 O.2     1  LIG1       -0.4598
      6 H          -0.0126    0.7535   -0.0003 H       1  LIG1        0.1029
      7 H           2.7252    1.0419    0.0003 H       1  LIG1        0.0649
      8 H           3.1221    3.7484    0.0001 H       1  LIG1        0.0656
      9 C           0.4920    5.1689   -0.0000 C.ar    1  LIG1        0.1707
     10 C           1.1864    6.3614    0.0000 C.ar    1  LIG1       -0.0121
     11 C           0.2133    7.3893   -0.0001 C.ar    1  LIG1       -0.0119
     12 C          -1.0140    6.7669   -0.0001 C.ar    1  LIG1        0.1761
     13 O          -0.8470    5.4093   -0.0001 O.2     1  LIG1       -0.4485
     14 H           2.2603    6.4758    0.0001 H       1  LIG1        0.0657
     15 H           0.3729    8.4568   -0.0000 H       1  LIG1        0.0657
     16 C          -2.3575    7.2971   -0.0002 C.ar    1  LIG1        0.2381
     17 N          -3.4059    6.4376   -0.0003 N.ar    1  LIG1       -0.1220
     18 C          -4.7302    8.2984   -0.0004 C.ar    1  LIG1        0.2194
     19 N          -2.4703    8.6465   -0.0003 N.ar    1  LIG1       -0.1220
     20 N          -4.6130    6.9481   -0.0004 N.ar    1  LIG1       -0.1236
     21 N          -3.6769    9.1543   -0.0003 N.ar    1  LIG1       -0.1236
     22 C          -6.0482    8.8783   -0.0005 C.ar    1  LIG1        0.0875
     23 C          -7.3154    8.3023   -0.0005 C.ar    1  LIG1       -0.0333
     24 C          -8.2553    9.3564   -0.0004 C.ar    1  LIG1       -0.0437
     25 C          -7.5440   10.5481   -0.0009 C.ar    1  LIG1        0.0023
     26 N          -6.2150   10.2477   -0.0007 N.ar    1  LIG1       -0.3582
     27 H          -5.4376   10.8912   -0.0006 H       1  LIG1        0.1654
     28 H          -7.8872   11.5720   -0.0011 H       1  LIG1        0.0807
     29 H          -7.5117    7.2407   -0.0004 H       1  LIG1        0.0640
     30 H          -9.3318    9.2651   -0.0003 H       1  LIG1        0.0633
@<TRIPOS>BOND
     1    28    25    1
     2    25    26   ar
     3    25    24   ar
     4    26    27    1
     5    26    22   ar
     6    22    23   ar
     7    22    18    1
     8    23    24   ar
     9    23    29    1
    10    24    30    1
    11    18    20   ar
    12    18    21   ar
    13    20    17   ar
    14    21    19   ar
    15    19    16   ar
    16    17    16   ar
    17     6     1    1
    18    16    12    1
    19    12    13   ar
    20    12    11   ar
    21     1     5   ar
    22     1     2   ar
    23    13     9   ar
    24     5     4   ar
    25    11    15    1
    26    11    10   ar
    27     9     4    1
    28     9    10   ar
    29     4     3   ar
    30    10    14    1
    31     3     8    1
    32     3     2   ar
    33     2     7    1
