@<TRIPOS>MOLECULE
mol_data/opt/b3lyp/geoms/mol2/1212-55-.out
 30 33 0 0 0
SMALL
GASTEIGER

@<TRIPOS>ATOM
      1 C           0.0856    1.6546   -0.0002 C.ar    1  LIG1        0.0927
      2 C           1.4471    1.6214   -0.0004 C.ar    1  LIG1       -0.0232
      3 C           1.8835    2.9823   -0.0003 C.ar    1  LIG1       -0.0128
      4 C           0.7463    3.7498   -0.0001 C.ar    1  LIG1        0.1697
      5 O          -0.3613    2.9442   -0.0001 O.2     1  LIG1       -0.4598
      6 H          -0.6791    0.8942   -0.0002 H       1  LIG1        0.1029
      7 H           2.0668    0.7366   -0.0005 H       1  LIG1        0.0649
      8 H           2.8977    3.3518   -0.0004 H       1  LIG1        0.0656
      9 C           0.5132    5.1652    0.0000 C.ar    1  LIG1        0.1706
     10 C          -0.6270    5.9308    0.0002 C.ar    1  LIG1       -0.0121
     11 C          -0.2012    7.2863    0.0003 C.ar    1  LIG1       -0.0146
     12 C           1.1748    7.2743    0.0001 C.ar    1  LIG1        0.1424
     13 O           1.6176    5.9735   -0.0001 O.2     1  LIG1       -0.4512
     14 H          -1.6396    5.5566    0.0003 H       1  LIG1        0.0657
     15 H          -0.8297    8.1653    0.0004 H       1  LIG1        0.0656
     16 C           2.1839    8.2961   -0.0000 C.ar    1  LIG1        0.0550
     17 C           3.5550    8.1414   -0.0005 C.ar    1  LIG1       -0.0434
     18 C           4.2586    9.3693   -0.0004 C.ar    1  LIG1       -0.0457
     19 C           3.4441   10.4833    0.0001 C.ar    1  LIG1        0.0266
     20 S           1.7537    9.9959    0.0006 S.2     1  LIG1       -0.0847
     21 H           4.0290    7.1679   -0.0009 H       1  LIG1        0.0630
     22 H           5.3409    9.4350   -0.0008 H       1  LIG1        0.0629
     23 C           3.8083   11.8830    0.0002 C.ar    1  LIG1        0.0259
     24 C           2.9913   12.9947    0.0001 C.ar    1  LIG1       -0.0464
     25 C           3.7037   14.2264    0.0003 C.ar    1  LIG1       -0.0541
     26 C           5.0604   14.0571    0.0006 C.ar    1  LIG1       -0.0237
     27 S           5.4954   12.3766    0.0007 S.2     1  LIG1       -0.0961
     28 H           5.8345   14.8113    0.0008 H       1  LIG1        0.0693
     29 H           1.9090   12.9294   -0.0002 H       1  LIG1        0.0629
     30 H           3.2246   15.1985    0.0003 H       1  LIG1        0.0623
@<TRIPOS>BOND
     1    21    17    1
     2    22    18    1
     3     7     2    1
     4    17    18   ar
     5    17    16   ar
     6    18    19   ar
     7     8     3    1
     8     2     3   ar
     9     2     1   ar
    10     3     4   ar
    11     1     6    1
    12     1     5   ar
    13    29    24    1
    14     4     5   ar
    15     4     9    1
    16    13     9   ar
    17    13    12   ar
    18    16    12    1
    19    16    20   ar
    20     9    10   ar
    21    19    23    1
    22    19    20   ar
    23    12    11   ar
    24    24    23   ar
    25    24    25   ar
    26    10    11   ar
    27    10    14    1
    28    23    27   ar
    29    30    25    1
    30    11    15    1
    31    25    26   ar
    32    26    27   ar
    33    26    28    1
