@<TRIPOS>MOLECULE
mol_data/opt/b3lyp/geoms/mol2/12124-4.out
 36 39 0 0 0
SMALL
GASTEIGER

@<TRIPOS>ATOM
      1 C           0.5989    1.6052   -0.0004 C.ar    1  LIG1        0.0927
      2 C           1.9556    1.7302    0.0003 C.ar    1  LIG1       -0.0232
      3 C           2.2282    3.1319    0.0006 C.ar    1  LIG1       -0.0128
      4 C           1.0085    3.7637    0.0000 C.ar    1  LIG1        0.1697
      5 O           0.0057    2.8326   -0.0006 O.2     1  LIG1       -0.4598
      6 H          -0.0721    0.7610   -0.0009 H       1  LIG1        0.1029
      7 H           2.6753    0.9247    0.0006 H       1  LIG1        0.0649
      8 H           3.1965    3.6105    0.0012 H       1  LIG1        0.0656
      9 C           0.6313    5.1519    0.0000 C.ar    1  LIG1        0.1705
     10 C           1.3640    6.3154    0.0005 C.ar    1  LIG1       -0.0122
     11 C           0.4253    7.3815    0.0002 C.ar    1  LIG1       -0.0151
     12 C          -0.8285    6.8156   -0.0006 C.ar    1  LIG1        0.1358
     13 O          -0.7012    5.4492   -0.0007 O.2     1  LIG1       -0.4517
     14 H           2.4414    6.3924    0.0011 H       1  LIG1        0.0657
     15 H           0.6505    8.4377    0.0004 H       1  LIG1        0.0656
     16 C          -3.3021    6.5162   -0.0021 C.ar    1  LIG1       -0.0505
     17 C          -4.5862    7.0444   -0.0027 C.ar    1  LIG1       -0.0534
     18 C          -2.1756    7.3568   -0.0012 C.ar    1  LIG1        0.0173
     19 C          -4.8262    8.4320   -0.0025 C.ar    1  LIG1       -0.0178
     20 H          -5.4148    6.3460   -0.0034 H       1  LIG1        0.0624
     21 C          -2.4000    8.7449   -0.0010 C.ar    1  LIG1       -0.0505
     22 C          -3.6870    9.2620   -0.0017 C.ar    1  LIG1       -0.0534
     23 H          -1.5571    9.4293   -0.0003 H       1  LIG1        0.0625
     24 H          -3.1624    5.4409   -0.0023 H       1  LIG1        0.0625
     25 H          -3.7953   10.3402   -0.0014 H       1  LIG1        0.0624
     26 C          -6.4400   10.3823   -0.0038 C.ar    1  LIG1       -0.0540
     27 C          -7.7299   10.9072   -0.0045 C.ar    1  LIG1       -0.0612
     28 C          -6.2070    8.9931   -0.0032 C.ar    1  LIG1       -0.0179
     29 C          -8.8384   10.0607   -0.0045 C.ar    1  LIG1       -0.0617
     30 H          -7.8665   11.9849   -0.0050 H       1  LIG1        0.0618
     31 C          -7.3418    8.1589   -0.0033 C.ar    1  LIG1       -0.0540
     32 C          -8.6328    8.6812   -0.0039 C.ar    1  LIG1       -0.0612
     33 H          -7.2283    7.0812   -0.0027 H       1  LIG1        0.0624
     34 H          -9.8446   10.4687   -0.0050 H       1  LIG1        0.0618
     35 H          -5.6079   11.0768   -0.0039 H       1  LIG1        0.0624
     36 H          -9.4816    8.0033   -0.0039 H       1  LIG1        0.0618
@<TRIPOS>BOND
     1    34    29    1
     2    30    27    1
     3    29    27   ar
     4    29    32   ar
     5    27    26   ar
     6    36    32    1
     7    32    31   ar
     8    35    26    1
     9    26    28   ar
    10    20    17    1
    11    31    28   ar
    12    31    33    1
    13    28    19    1
    14    17    19   ar
    15    17    16   ar
    16    19    22   ar
    17    24    16    1
    18    16    18   ar
    19    22    25    1
    20    22    21   ar
    21    18    21   ar
    22    18    12    1
    23    21    23    1
    24     6     1    1
    25    13    12   ar
    26    13     9   ar
    27     5     1   ar
    28     5     4   ar
    29    12    11   ar
    30     1     2   ar
    31     9     4    1
    32     9    10   ar
    33     4     3   ar
    34    11    15    1
    35    11    10   ar
    36     2     7    1
    37     2     3   ar
    38    10    14    1
    39     3     8    1
