@<TRIPOS>MOLECULE
mol_data/opt/b3lyp/geoms/mol2/1212-4-13.out
 34 37 0 0 0
SMALL
GASTEIGER

@<TRIPOS>ATOM
      1 C           0.0133    1.6525    0.0013 C.ar    1  LIG1        0.0927
      2 C           1.3744    1.6088    0.0008 C.ar    1  LIG1       -0.0232
      3 C           1.8214    2.9666    0.0003 C.ar    1  LIG1       -0.0128
      4 C           0.6906    3.7432    0.0004 C.ar    1  LIG1        0.1697
      5 O          -0.4233    2.9460    0.0010 O.2     1  LIG1       -0.4598
      6 H          -0.7574    0.8983    0.0018 H       1  LIG1        0.1029
      7 H           1.9876    0.7194    0.0009 H       1  LIG1        0.0649
      8 H           2.8386    3.3277   -0.0002 H       1  LIG1        0.0656
      9 C           0.4675    5.1610   -0.0000 C.ar    1  LIG1        0.1705
     10 C          -0.6659    5.9354    0.0001 C.ar    1  LIG1       -0.0122
     11 C          -0.2266    7.2874   -0.0005 C.ar    1  LIG1       -0.0151
     12 C           1.1487    7.2680   -0.0010 C.ar    1  LIG1        0.1358
     13 O           1.5760    5.9618   -0.0007 O.2     1  LIG1       -0.4517
     14 H          -1.6818    5.5703    0.0005 H       1  LIG1        0.0657
     15 H          -0.8529    8.1674   -0.0006 H       1  LIG1        0.0656
     16 C           1.8163    9.6634   -0.0021 C.ar    1  LIG1       -0.0505
     17 C           2.7876   10.6541   -0.0027 C.ar    1  LIG1       -0.0520
     18 C           2.1682    8.3016   -0.0017 C.ar    1  LIG1        0.0173
     19 C           4.1618   10.3418   -0.0030 C.ar    1  LIG1       -0.0017
     20 H           2.4558   11.6888   -0.0031 H       1  LIG1        0.0624
     21 C           3.5393    7.9812   -0.0019 C.ar    1  LIG1       -0.0505
     22 C           4.5058    8.9751   -0.0025 C.ar    1  LIG1       -0.0520
     23 H           3.8401    6.9396   -0.0016 H       1  LIG1        0.0625
     24 H           0.7693    9.9507   -0.0019 H       1  LIG1        0.0625
     25 H           5.5521    8.6883   -0.0027 H       1  LIG1        0.0624
     26 C           5.1992   11.3682   -0.0036 C.ar    1  LIG1        0.0465
     27 C           6.5868   11.2606   -0.0047 C.ar    1  LIG1       -0.0364
     28 C           7.1337   12.5676   -0.0049 C.ar    1  LIG1       -0.0438
     29 C           6.0762   13.4543   -0.0041 C.ar    1  LIG1        0.0022
     30 N           4.9171   12.7225   -0.0032 N.ar    1  LIG1       -0.3607
     31 H           3.9927   13.1199   -0.0026 H       1  LIG1        0.1653
     32 H           6.0547   14.5338   -0.0040 H       1  LIG1        0.0807
     33 H           7.1467   10.3367   -0.0053 H       1  LIG1        0.0639
     34 H           8.1816   12.8312   -0.0056 H       1  LIG1        0.0633
@<TRIPOS>BOND
     1    34    28    1
     2    33    27    1
     3    28    27   ar
     4    28    29   ar
     5    27    26   ar
     6    29    32    1
     7    29    30   ar
     8    26    30   ar
     9    26    19    1
    10    30    31    1
    11    20    17    1
    12    19    17   ar
    13    19    22   ar
    14    17    16   ar
    15    25    22    1
    16    22    21   ar
    17    16    24    1
    18    16    18   ar
    19    21    18   ar
    20    21    23    1
    21    18    12    1
    22    12    13   ar
    23    12    11   ar
    24    13     9   ar
    25    15    11    1
    26    11    10   ar
    27     8     3    1
    28     9    10   ar
    29     9     4    1
    30    10    14    1
    31     3     4   ar
    32     3     2   ar
    33     4     5   ar
    34     2     7    1
    35     2     1   ar
    36     5     1   ar
    37     1     6    1
