@<TRIPOS>MOLECULE
mol_data/opt/b3lyp/geoms/mol2/1212-5.out
 23 25 0 0 0
SMALL
GASTEIGER

@<TRIPOS>ATOM
      1 C           0.1207    1.7356    0.0002 C.ar    1  LIG1        0.0927
      2 C           1.4822    1.7053   -0.0001 C.ar    1  LIG1       -0.0232
      3 C           1.9155    3.0675   -0.0001 C.ar    1  LIG1       -0.0128
      4 C           0.7769    3.8324   -0.0000 C.ar    1  LIG1        0.1697
      5 O          -0.3290    3.0244    0.0001 O.2     1  LIG1       -0.4598
      6 H          -0.6422    0.9736    0.0003 H       1  LIG1        0.1029
      7 H           2.1041    0.8220   -0.0002 H       1  LIG1        0.0649
      8 H           2.9289    3.4394   -0.0002 H       1  LIG1        0.0656
      9 C           0.5402    5.2480   -0.0001 C.ar    1  LIG1        0.1706
     10 C          -0.6007    6.0113    0.0000 C.ar    1  LIG1       -0.0121
     11 C          -0.1758    7.3686   -0.0001 C.ar    1  LIG1       -0.0146
     12 C           1.1985    7.3578   -0.0002 C.ar    1  LIG1        0.1424
     13 O           1.6434    6.0585   -0.0002 O.2     1  LIG1       -0.4512
     14 H          -1.6127    5.6360    0.0001 H       1  LIG1        0.0657
     15 H          -0.8049    8.2471   -0.0001 H       1  LIG1        0.0656
     16 C           2.2095    8.3835   -0.0004 C.ar    1  LIG1        0.0544
     17 C           3.5792    8.2281   -0.0007 C.ar    1  LIG1       -0.0440
     18 C           4.2831    9.4653   -0.0008 C.ar    1  LIG1       -0.0540
     19 C           3.4539   10.5528   -0.0004 C.ar    1  LIG1       -0.0236
     20 S           1.7813   10.0831   -0.0001 S.2     1  LIG1       -0.0936
     21 H           3.7154   11.6013   -0.0003 H       1  LIG1        0.0693
     22 H           4.0523    7.2541   -0.0010 H       1  LIG1        0.0630
     23 H           5.3642    9.5425   -0.0010 H       1  LIG1        0.0623
@<TRIPOS>BOND
     1    23    18    1
     2    22    17    1
     3    18    17   ar
     4    18    19   ar
     5    17    16   ar
     6    19    21    1
     7    19    20   ar
     8    16    12    1
     9    16    20   ar
    10    12    13   ar
    11    12    11   ar
    12     8     3    1
    13    13     9   ar
    14     7     2    1
    15    15    11    1
    16    11    10   ar
    17     3     2   ar
    18     3     4   ar
    19     2     1   ar
    20     9     4    1
    21     9    10   ar
    22     4     5   ar
    23    10    14    1
    24     5     1   ar
    25     1     6    1
