@<TRIPOS>MOLECULE
mol_data/opt/b3lyp/geoms/mol2/1213-.out
 17 18 0 0 0
SMALL
GASTEIGER

@<TRIPOS>ATOM
      1 C           0.2212    1.7779    0.0000 C.ar    1  LIG1        0.0926
      2 C           1.5811    1.7890    0.0002 C.ar    1  LIG1       -0.0233
      3 C           1.9703    3.1664    0.0001 C.ar    1  LIG1       -0.0144
      4 C           0.8102    3.9009   -0.0002 C.ar    1  LIG1        0.1508
      5 O          -0.2657    3.0541   -0.0002 O.2     1  LIG1       -0.4615
      6 H          -0.5195    0.9939   -0.0000 H       1  LIG1        0.1029
      7 H           2.2322    0.9267    0.0005 H       1  LIG1        0.0649
      8 H           2.9806    3.5507    0.0003 H       1  LIG1        0.0656
      9 C           0.5157    5.3122   -0.0004 C.ar    1  LIG1        0.0821
     10 C          -0.6985    5.9846   -0.0004 C.ar    1  LIG1       -0.0334
     11 C          -0.4202    7.3760   -0.0006 C.ar    1  LIG1       -0.0437
     12 C           0.9514    7.5249   -0.0008 C.ar    1  LIG1        0.0023
     13 N           1.5103    6.2704   -0.0007 N.ar    1  LIG1       -0.3583
     14 H           2.4980    6.0758   -0.0006 H       1  LIG1        0.1654
     15 H           1.5698    8.4100   -0.0011 H       1  LIG1        0.0807
     16 H          -1.6686    5.5104   -0.0002 H       1  LIG1        0.0640
     17 H          -1.1433    8.1795   -0.0006 H       1  LIG1        0.0633
@<TRIPOS>BOND
     1    15    12    1
     2    12    13   ar
     3    12    11   ar
     4    13    14    1
     5    13     9   ar
     6    17    11    1
     7    11    10   ar
     8     9    10   ar
     9     9     4    1
    10    10    16    1
    11     5     4   ar
    12     5     1   ar
    13     4     3   ar
    14     6     1    1
    15     1     2   ar
    16     3     2   ar
    17     3     8    1
    18     2     7    1
