@<TRIPOS>MOLECULE
mol_data/opt/b3lyp/geoms/mol2/1213-13-8-.out
 31 34 0 0 0
SMALL
GASTEIGER

@<TRIPOS>ATOM
      1 C           0.0879    1.6754    0.0007 C.ar    1  LIG1        0.0926
      2 C           1.4486    1.6532    0.0008 C.ar    1  LIG1       -0.0233
      3 C           1.8712    3.0193    0.0005 C.ar    1  LIG1       -0.0144
      4 C           0.7283    3.7817   -0.0000 C.ar    1  LIG1        0.1509
      5 O          -0.3683    2.9616    0.0000 O.2     1  LIG1       -0.4615
      6 H          -0.6707    0.9091    0.0009 H       1  LIG1        0.1029
      7 H           2.0779    0.7753    0.0012 H       1  LIG1        0.0649
      8 H           2.8910    3.3777    0.0006 H       1  LIG1        0.0656
      9 C           0.4683    5.1967   -0.0006 C.ar    1  LIG1        0.0826
     10 C          -0.7350    5.8951   -0.0008 C.ar    1  LIG1       -0.0328
     11 C          -0.4319    7.2710   -0.0012 C.ar    1  LIG1       -0.0343
     12 C           0.9546    7.4102   -0.0013 C.ar    1  LIG1        0.0634
     13 N           1.4819    6.1314   -0.0010 N.ar    1  LIG1       -0.3506
     14 H           2.4608    5.8968   -0.0004 H       1  LIG1        0.1660
     15 H          -1.7141    5.4406   -0.0006 H       1  LIG1        0.0640
     16 H          -1.1395    8.0873   -0.0016 H       1  LIG1        0.0639
     17 C           1.7549    8.6069   -0.0018 C.ar    1  LIG1        0.0634
     18 C           1.3406    9.9487   -0.0012 C.ar    1  LIG1       -0.0343
     19 C           2.4850   10.7588   -0.0020 C.ar    1  LIG1       -0.0326
     20 C           3.5952    9.9149   -0.0030 C.ar    1  LIG1        0.0880
     21 N           3.1251    8.6151   -0.0029 N.ar    1  LIG1       -0.3505
     22 H           3.7619    7.8324   -0.0038 H       1  LIG1        0.1660
     23 H           0.3128   10.2805   -0.0003 H       1  LIG1        0.0639
     24 H           2.5293   11.8375   -0.0019 H       1  LIG1        0.0640
     25 C           5.0040   10.1752   -0.0041 C.ar    1  LIG1        0.2193
     26 N           5.4283   11.4676   -0.0042 N.ar    1  LIG1       -0.1243
     27 C           7.5284   10.5938   -0.0063 C.ar    1  LIG1        0.1605
     28 N           5.8290    9.0947   -0.0050 N.ar    1  LIG1       -0.1243
     29 N           6.7254   11.6725   -0.0053 N.ar    1  LIG1       -0.1338
     30 N           7.1274    9.3168   -0.0060 N.ar    1  LIG1       -0.1338
     31 H           8.5972   10.7767   -0.0069 H       1  LIG1        0.1085
@<TRIPOS>BOND
     1    31    27    1
     2    27    30   ar
     3    27    29   ar
     4    30    28   ar
     5    29    26   ar
     6    28    25   ar
     7    26    25   ar
     8    25    20    1
     9    22    21    1
    10    20    21   ar
    11    20    19   ar
    12    21    17   ar
    13    19    24    1
    14    19    18   ar
    15    17    12    1
    16    17    18   ar
    17    16    11    1
    18    12    11   ar
    19    12    13   ar
    20    11    10   ar
    21    18    23    1
    22    13     9   ar
    23    13    14    1
    24    10    15    1
    25    10     9   ar
    26     9     4    1
    27     4     5   ar
    28     4     3   ar
    29     5     1   ar
    30     3     8    1
    31     3     2   ar
    32     1     2   ar
    33     1     6    1
    34     2     7    1
