@<TRIPOS>MOLECULE
mol_data/opt/b3lyp/geoms/mol2/1213.out
 17 18 0 0 0
SMALL
GASTEIGER

@<TRIPOS>ATOM
      1 C           0.2160    1.7852   -0.0004 C.ar    1  LIG1        0.0926
      2 C           1.5757    1.7866   -0.0001 C.ar    1  LIG1       -0.0233
      3 C           1.9814    3.1592    0.0001 C.ar    1  LIG1       -0.0144
      4 C           0.8323    3.9062    0.0001 C.ar    1  LIG1        0.1508
      5 O          -0.2585    3.0695   -0.0002 O.2     1  LIG1       -0.4615
      6 H          -0.5321    1.0083   -0.0006 H       1  LIG1        0.1029
      7 H           2.2179    0.9176   -0.0002 H       1  LIG1        0.0649
      8 H           2.9909    3.5422    0.0003 H       1  LIG1        0.0656
      9 C           0.5491    5.3199    0.0002 C.ar    1  LIG1        0.0821
     10 C           1.3840    6.4300    0.0003 C.ar    1  LIG1       -0.0334
     11 C           0.5600    7.5849    0.0003 C.ar    1  LIG1       -0.0437
     12 C          -0.7535    7.1585    0.0005 C.ar    1  LIG1        0.0023
     13 N          -0.7484    5.7871    0.0004 N.ar    1  LIG1       -0.3583
     14 H          -1.5568    5.1860    0.0002 H       1  LIG1        0.1654
     15 H          -1.6794    7.7138    0.0007 H       1  LIG1        0.0807
     16 H           2.4644    6.4034    0.0002 H       1  LIG1        0.0640
     17 H           0.8908    8.6140    0.0004 H       1  LIG1        0.0633
@<TRIPOS>BOND
     1     6     1    1
     2     1     5   ar
     3     1     2   ar
     4     5     4   ar
     5     7     2    1
     6     2     3   ar
     7     4     3   ar
     8     4     9    1
     9     3     8    1
    10    16    10    1
    11     9    10   ar
    12     9    13   ar
    13    14    13    1
    14    10    11   ar
    15    11    17    1
    16    11    12   ar
    17    13    12   ar
    18    12    15    1
