@<TRIPOS>MOLECULE
mol_data/opt/b3lyp/geoms/mol2/1213135.out
 32 35 0 0 0
SMALL
GASTEIGER

@<TRIPOS>ATOM
      1 C           0.4171    1.6945   -0.0014 C.ar    1  LIG1        0.0926
      2 C           1.7769    1.7248   -0.0011 C.ar    1  LIG1       -0.0233
      3 C           2.1552    3.1044   -0.0003 C.ar    1  LIG1       -0.0144
      4 C           0.9901    3.8286   -0.0002 C.ar    1  LIG1        0.1509
      5 O          -0.0836    2.9692   -0.0008 O.2     1  LIG1       -0.4615
      6 H          -0.3142    0.9022   -0.0019 H       1  LIG1        0.1029
      7 H           2.4360    0.8687   -0.0014 H       1  LIG1        0.0649
      8 H           3.1568    3.5082    0.0001 H       1  LIG1        0.0656
      9 C           0.6770    5.2324    0.0005 C.ar    1  LIG1        0.0826
     10 C           1.4832    6.3652    0.0009 C.ar    1  LIG1       -0.0328
     11 C           0.6364    7.4934    0.0014 C.ar    1  LIG1       -0.0343
     12 C          -0.6845    7.0470    0.0012 C.ar    1  LIG1        0.0634
     13 N          -0.6332    5.6672    0.0007 N.ar    1  LIG1       -0.3506
     14 H          -1.4104    5.0269   -0.0001 H       1  LIG1        0.1660
     15 H           2.5636    6.3674    0.0010 H       1  LIG1        0.0640
     16 H           0.9432    8.5291    0.0019 H       1  LIG1        0.0639
     17 C          -1.9103    7.8066    0.0015 C.ar    1  LIG1        0.0633
     18 C          -2.1008    9.1870    0.0010 C.ar    1  LIG1       -0.0344
     19 C          -3.4875    9.4382    0.0015 C.ar    1  LIG1       -0.0353
     20 C          -4.1492    8.2130    0.0024 C.ar    1  LIG1        0.0536
     21 N          -3.1685    7.2366    0.0023 N.ar    1  LIG1       -0.3526
     22 H          -3.3637    6.2487    0.0026 H       1  LIG1        0.1660
     23 H          -1.3115    9.9245    0.0003 H       1  LIG1        0.0639
     24 H          -3.9663   10.4067    0.0015 H       1  LIG1        0.0639
     25 C          -5.5611    7.9108    0.0032 C.ar    1  LIG1        0.0355
     26 C          -6.6245    8.7899    0.0017 C.ar    1  LIG1       -0.0455
     27 C          -7.8947    8.1477    0.0031 C.ar    1  LIG1       -0.0541
     28 C          -7.8126    6.7836    0.0056 C.ar    1  LIG1       -0.0237
     29 S          -6.1550    6.2555    0.0065 S.2     1  LIG1       -0.0952
     30 H          -8.6087    6.0536    0.0071 H       1  LIG1        0.0693
     31 H          -6.4945    9.8655   -0.0005 H       1  LIG1        0.0629
     32 H          -8.8373    8.6833    0.0022 H       1  LIG1        0.0623
@<TRIPOS>BOND
     1     6     1    1
     2     1     2   ar
     3     1     5   ar
     4     7     2    1
     5     2     3   ar
     6     5     4   ar
     7    31    26    1
     8     3     4   ar
     9     3     8    1
    10     4     9    1
    11    14    13    1
    12    23    18    1
    13     9    13   ar
    14     9    10   ar
    15    13    12   ar
    16    10    15    1
    17    10    11   ar
    18    18    17   ar
    19    18    19   ar
    20    12    11   ar
    21    12    17    1
    22    11    16    1
    23    17    21   ar
    24    24    19    1
    25    19    20   ar
    26    26    27   ar
    27    26    25   ar
    28    32    27    1
    29    21    20   ar
    30    21    22    1
    31    20    25    1
    32    27    28   ar
    33    25    29   ar
    34    28    29   ar
    35    28    30    1
