@<TRIPOS>MOLECULE
mol_data/opt/b3lyp/geoms/mol2/1213-13-.out
 25 27 0 0 0
SMALL
GASTEIGER

@<TRIPOS>ATOM
      1 C           0.1623    1.7009    0.0005 C.ar    1  LIG1        0.0926
      2 C           1.5224    1.6976    0.0009 C.ar    1  LIG1       -0.0233
      3 C           1.9266    3.0702    0.0005 C.ar    1  LIG1       -0.0144
      4 C           0.7736    3.8184   -0.0001 C.ar    1  LIG1        0.1509
      5 O          -0.3114    2.9825   -0.0001 O.2     1  LIG1       -0.4615
      6 H          -0.5865    0.9247    0.0005 H       1  LIG1        0.1029
      7 H           2.1638    0.8281    0.0015 H       1  LIG1        0.0649
      8 H           2.9414    3.4425    0.0007 H       1  LIG1        0.0656
      9 C           0.4957    5.2295   -0.0006 C.ar    1  LIG1        0.0826
     10 C          -0.7093    5.9192   -0.0009 C.ar    1  LIG1       -0.0328
     11 C          -0.4159    7.3003   -0.0013 C.ar    1  LIG1       -0.0343
     12 C           0.9677    7.4518   -0.0013 C.ar    1  LIG1        0.0634
     13 N           1.5034    6.1775   -0.0010 N.ar    1  LIG1       -0.3506
     14 H           2.4828    5.9479   -0.0003 H       1  LIG1        0.1660
     15 H          -1.6860    5.4587   -0.0009 H       1  LIG1        0.0640
     16 H          -1.1299    8.1109   -0.0017 H       1  LIG1        0.0639
     17 C           1.7629    8.6599   -0.0018 C.ar    1  LIG1        0.0629
     18 C           1.3563    9.9888   -0.0011 C.ar    1  LIG1       -0.0350
     19 C           2.5164   10.8051   -0.0017 C.ar    1  LIG1       -0.0438
     20 C           3.6113    9.9686   -0.0034 C.ar    1  LIG1        0.0022
     21 N           3.1474    8.6727   -0.0031 N.ar    1  LIG1       -0.3595
     22 H           3.7462    7.8642   -0.0039 H       1  LIG1        0.1654
     23 H           4.6699   10.1805   -0.0046 H       1  LIG1        0.0807
     24 H           0.3296   10.3251    0.0000 H       1  LIG1        0.0639
     25 H           2.5457   11.8855   -0.0013 H       1  LIG1        0.0633
@<TRIPOS>BOND
     1    23    20    1
     2    22    21    1
     3    20    21   ar
     4    20    19   ar
     5    21    17   ar
     6    17    12    1
     7    17    18   ar
     8    19    25    1
     9    19    18   ar
    10    16    11    1
    11    12    11   ar
    12    12    13   ar
    13    11    10   ar
    14    18    24    1
    15    13     9   ar
    16    13    14    1
    17    10    15    1
    18    10     9   ar
    19     9     4    1
    20     5     4   ar
    21     5     1   ar
    22     4     3   ar
    23     1     6    1
    24     1     2   ar
    25     3     8    1
    26     3     2   ar
    27     2     7    1
