@<TRIPOS>MOLECULE
mol_data/opt/b3lyp/geoms/mol2/1213-134-.out
 35 38 0 0 0
SMALL
GASTEIGER

@<TRIPOS>ATOM
      1 C           0.2128    1.6036    0.0008 C.ar    1  LIG1        0.0926
      2 C           1.5729    1.6253    0.0017 C.ar    1  LIG1       -0.0233
      3 C           1.9524    3.0047    0.0013 C.ar    1  LIG1       -0.0144
      4 C           0.7863    3.7311    0.0001 C.ar    1  LIG1        0.1509
      5 O          -0.2838    2.8761   -0.0001 O.2     1  LIG1       -0.4615
      6 H          -0.5216    0.8140    0.0008 H       1  LIG1        0.1029
      7 H           2.2297    0.7676    0.0025 H       1  LIG1        0.0649
      8 H           2.9597    3.3963    0.0017 H       1  LIG1        0.0656
      9 C           0.4834    5.1378   -0.0007 C.ar    1  LIG1        0.0826
     10 C          -0.7377    5.8007   -0.0015 C.ar    1  LIG1       -0.0328
     11 C          -0.4728    7.1883   -0.0022 C.ar    1  LIG1       -0.0343
     12 C           0.9093    7.3643   -0.0017 C.ar    1  LIG1        0.0634
     13 N           1.4689    6.1039   -0.0009 N.ar    1  LIG1       -0.3506
     14 H           2.4586    5.9197   -0.0000 H       1  LIG1        0.1660
     15 H          -1.7043    5.3198   -0.0017 H       1  LIG1        0.0640
     16 H          -1.2139    7.9756   -0.0030 H       1  LIG1        0.0639
     17 C           1.7222    8.5556   -0.0020 C.ar    1  LIG1        0.0633
     18 C           3.1044    8.7290   -0.0023 C.ar    1  LIG1       -0.0344
     19 C           3.3655   10.1160   -0.0025 C.ar    1  LIG1       -0.0358
     20 C           2.1475   10.7899   -0.0024 C.ar    1  LIG1        0.0469
     21 N           1.1674    9.8157   -0.0020 N.ar    1  LIG1       -0.3530
     22 H           0.1769    9.9925   -0.0020 H       1  LIG1        0.1659
     23 H           3.8460    7.9421   -0.0024 H       1  LIG1        0.0639
     24 H           4.3421   10.5775   -0.0027 H       1  LIG1        0.0639
     25 C           0.5279   12.7105   -0.0024 C.ar    1  LIG1       -0.0526
     26 C           0.2674   14.0790   -0.0025 C.ar    1  LIG1       -0.0611
     27 C           1.8478   12.2193   -0.0025 C.ar    1  LIG1       -0.0017
     28 C           1.3159   14.9988   -0.0028 C.ar    1  LIG1       -0.0617
     29 H          -0.7620   14.4260   -0.0024 H       1  LIG1        0.0618
     30 C           2.8943   13.1634   -0.0028 C.ar    1  LIG1       -0.0526
     31 C           2.6318   14.5288   -0.0029 C.ar    1  LIG1       -0.0611
     32 H           3.9236   12.8202   -0.0028 H       1  LIG1        0.0624
     33 H           1.1122   16.0651   -0.0029 H       1  LIG1        0.0618
     34 H          -0.3164   12.0266   -0.0022 H       1  LIG1        0.0624
     35 H           3.4602   15.2315   -0.0031 H       1  LIG1        0.0618
@<TRIPOS>BOND
     1    35    31    1
     2    16    11    1
     3    33    28    1
     4    31    28   ar
     5    31    30   ar
     6    32    30    1
     7    28    26   ar
     8    30    27   ar
     9    24    19    1
    10    26    29    1
    11    26    25   ar
    12    27    25   ar
    13    27    20    1
    14    19    20   ar
    15    19    18   ar
    16    25    34    1
    17    23    18    1
    18    20    21   ar
    19    18    17   ar
    20    11    12   ar
    21    11    10   ar
    22    21    22    1
    23    21    17   ar
    24    17    12    1
    25    15    10    1
    26    12    13   ar
    27    10     9   ar
    28    13     9   ar
    29    13    14    1
    30     9     4    1
    31     5     4   ar
    32     5     1   ar
    33     4     3   ar
    34     6     1    1
    35     1     2   ar
    36     3     2   ar
    37     3     8    1
    38     2     7    1
