@<TRIPOS>MOLECULE
mol_data/opt/b3lyp/geoms/mol2/1213-13-5.out
 32 35 0 0 0
SMALL
GASTEIGER

@<TRIPOS>ATOM
      1 C           0.0030    1.6420    0.0010 C.ar    1  LIG1        0.0926
      2 C           1.3630    1.6091    0.0015 C.ar    1  LIG1       -0.0233
      3 C           1.7974    2.9722    0.0010 C.ar    1  LIG1       -0.0144
      4 C           0.6610    3.7452    0.0002 C.ar    1  LIG1        0.1509
      5 O          -0.4420    2.9335    0.0002 O.2     1  LIG1       -0.4615
      6 H          -0.7624    0.8825    0.0010 H       1  LIG1        0.1029
      7 H           1.9845    0.7255    0.0022 H       1  LIG1        0.0649
      8 H           2.8201    3.3221    0.0012 H       1  LIG1        0.0656
      9 C           0.4147    5.1621   -0.0006 C.ar    1  LIG1        0.0826
     10 C          -0.7769    5.8765   -0.0010 C.ar    1  LIG1       -0.0328
     11 C          -0.4559    7.2502   -0.0016 C.ar    1  LIG1       -0.0343
     12 C           0.9317    7.3734   -0.0015 C.ar    1  LIG1        0.0634
     13 N           1.4414    6.0878   -0.0009 N.ar    1  LIG1       -0.3506
     14 H           2.4159    5.8376   -0.0000 H       1  LIG1        0.1660
     15 H          -1.7625    5.4356   -0.0010 H       1  LIG1        0.0640
     16 H          -1.1532    8.0753   -0.0022 H       1  LIG1        0.0639
     17 C           1.7464    8.5637   -0.0018 C.ar    1  LIG1        0.0633
     18 C           1.3581    9.9016   -0.0011 C.ar    1  LIG1       -0.0344
     19 C           2.5229   10.6954   -0.0019 C.ar    1  LIG1       -0.0353
     20 C           3.6257    9.8471   -0.0031 C.ar    1  LIG1        0.0536
     21 N           3.1281    8.5553   -0.0031 N.ar    1  LIG1       -0.3526
     22 H           3.7124    7.7367   -0.0037 H       1  LIG1        0.1660
     23 H           0.3369   10.2536   -0.0001 H       1  LIG1        0.0639
     24 H           2.5650   11.7754   -0.0017 H       1  LIG1        0.0639
     25 C           5.0434   10.1203   -0.0043 C.ar    1  LIG1        0.0355
     26 C           6.1065    9.2392   -0.0071 C.ar    1  LIG1       -0.0455
     27 C           7.3789    9.8796   -0.0075 C.ar    1  LIG1       -0.0541
     28 C           7.2900   11.2429   -0.0050 C.ar    1  LIG1       -0.0237
     29 S           5.6345   11.7725   -0.0021 S.2     1  LIG1       -0.0952
     30 H           8.0874   11.9721   -0.0048 H       1  LIG1        0.0693
     31 H           5.9926    8.1603   -0.0091 H       1  LIG1        0.0629
     32 H           8.3210    9.3436   -0.0095 H       1  LIG1        0.0623
@<TRIPOS>BOND
     1    32    27    1
     2    31    26    1
     3    27    26   ar
     4    27    28   ar
     5    26    25   ar
     6    28    30    1
     7    28    29   ar
     8    25    20    1
     9    25    29   ar
    10    22    21    1
    11    20    21   ar
    12    20    19   ar
    13    21    17   ar
    14    16    11    1
    15    19    24    1
    16    19    18   ar
    17    17    12    1
    18    17    18   ar
    19    11    12   ar
    20    11    10   ar
    21    12    13   ar
    22    18    23    1
    23    10    15    1
    24    10     9   ar
    25    13     9   ar
    26    13    14    1
    27     9     4    1
    28     5     4   ar
    29     5     1   ar
    30     4     3   ar
    31     1     6    1
    32     1     2   ar
    33     3     8    1
    34     3     2   ar
    35     2     7    1
