@<TRIPOS>MOLECULE
mol_data/opt/b3lyp/geoms/mol2/1213-4-5.out
 34 37 0 0 0
SMALL
GASTEIGER

@<TRIPOS>ATOM
      1 C           0.0649    1.6107    0.0023 C.ar    1  LIG1        0.0926
      2 C           1.4254    1.5920    0.0021 C.ar    1  LIG1       -0.0233
      3 C           1.8448    2.9595    0.0010 C.ar    1  LIG1       -0.0144
      4 C           0.7005    3.7198    0.0006 C.ar    1  LIG1        0.1509
      5 O          -0.3940    2.8965    0.0014 O.2     1  LIG1       -0.4615
      6 H          -0.6921    0.8428    0.0030 H       1  LIG1        0.1029
      7 H           2.0565    0.7153    0.0026 H       1  LIG1        0.0649
      8 H           2.8632    3.3215    0.0005 H       1  LIG1        0.0656
      9 C           0.4381    5.1349   -0.0004 C.ar    1  LIG1        0.0825
     10 C          -0.7661    5.8313   -0.0003 C.ar    1  LIG1       -0.0328
     11 C          -0.4611    7.2076   -0.0015 C.ar    1  LIG1       -0.0357
     12 C           0.9259    7.3511   -0.0022 C.ar    1  LIG1        0.0470
     13 N           1.4476    6.0714   -0.0015 N.ar    1  LIG1       -0.3518
     14 H           2.4287    5.8481   -0.0015 H       1  LIG1        0.1660
     15 H          -1.7455    5.3772    0.0004 H       1  LIG1        0.0640
     16 H          -1.1775    8.0160   -0.0019 H       1  LIG1        0.0639
     17 C           1.1746    9.8281   -0.0037 C.ar    1  LIG1       -0.0520
     18 C           1.9490   10.9775   -0.0048 C.ar    1  LIG1       -0.0529
     19 C           1.7591    8.5461   -0.0035 C.ar    1  LIG1       -0.0017
     20 C           3.3563   10.9221   -0.0059 C.ar    1  LIG1       -0.0113
     21 H           1.4466   11.9404   -0.0050 H       1  LIG1        0.0624
     22 C           3.1667    8.4905   -0.0046 C.ar    1  LIG1       -0.0520
     23 C           3.9416    9.6419   -0.0057 C.ar    1  LIG1       -0.0529
     24 H           3.6826    7.5342   -0.0045 H       1  LIG1        0.0624
     25 H           0.0940    9.9241   -0.0028 H       1  LIG1        0.0624
     26 H           5.0217    9.5409   -0.0064 H       1  LIG1        0.0624
     27 C           4.1834   12.1317   -0.0072 C.ar    1  LIG1        0.0193
     28 C           5.5579   12.2424   -0.0094 C.ar    1  LIG1       -0.0469
     29 C           6.0301   13.5849   -0.0101 C.ar    1  LIG1       -0.0541
     30 C           5.0180   14.5039   -0.0083 C.ar    1  LIG1       -0.0237
     31 S           3.4639   13.7359   -0.0059 S.2     1  LIG1       -0.0967
     32 H           5.0858   15.5825   -0.0084 H       1  LIG1        0.0693
     33 H           6.2213   11.3858   -0.0107 H       1  LIG1        0.0629
     34 H           7.0802   13.8537   -0.0118 H       1  LIG1        0.0623
@<TRIPOS>BOND
     1    34    29    1
     2    33    28    1
     3    29    28   ar
     4    29    30   ar
     5    28    27   ar
     6    32    30    1
     7    30    31   ar
     8    27    20    1
     9    27    31   ar
    10    26    23    1
    11    20    23   ar
    12    20    18   ar
    13    23    22   ar
    14    21    18    1
    15    18    17   ar
    16    22    24    1
    17    22    19   ar
    18    17    19   ar
    19    17    25    1
    20    19    12    1
    21    12    13   ar
    22    12    11   ar
    23    16    11    1
    24    13    14    1
    25    13     9   ar
    26    11    10   ar
    27     9    10   ar
    28     9     4    1
    29    10    15    1
    30     8     3    1
    31     4     3   ar
    32     4     5   ar
    33     3     2   ar
    34     5     1   ar
    35     2     1   ar
    36     2     7    1
    37     1     6    1
