@<TRIPOS>MOLECULE
mol_data/opt/b3lyp/geoms/mol2/1213-12.out
 24 26 0 0 0
SMALL
GASTEIGER

@<TRIPOS>ATOM
      1 C           0.2130    1.7276    0.0002 C.ar    1  LIG1        0.0926
      2 C           1.5733    1.7432    0.0005 C.ar    1  LIG1       -0.0233
      3 C           1.9579    3.1210    0.0003 C.ar    1  LIG1       -0.0144
      4 C           0.7947    3.8520   -0.0001 C.ar    1  LIG1        0.1509
      5 O          -0.2788    3.0014   -0.0001 O.2     1  LIG1       -0.4615
      6 H          -0.5247    0.9405    0.0001 H       1  LIG1        0.1029
      7 H           2.2269    0.8828    0.0009 H       1  LIG1        0.0649
      8 H           2.9666    3.5088    0.0004 H       1  LIG1        0.0656
      9 C           0.4964    5.2600   -0.0005 C.ar    1  LIG1        0.0826
     10 C          -0.7240    5.9269   -0.0006 C.ar    1  LIG1       -0.0327
     11 C          -0.4579    7.3133   -0.0007 C.ar    1  LIG1       -0.0327
     12 C           0.9227    7.4810   -0.0011 C.ar    1  LIG1        0.0826
     13 N           1.4857    6.2215   -0.0009 N.ar    1  LIG1       -0.3494
     14 H           2.4744    6.0317   -0.0007 H       1  LIG1        0.1661
     15 H          -1.6912    5.4469   -0.0005 H       1  LIG1        0.0640
     16 H          -1.1786    8.1173   -0.0007 H       1  LIG1        0.0640
     17 C           1.7211    8.6785   -0.0015 C.ar    1  LIG1        0.1509
     18 C           3.0723    8.9269   -0.0021 C.ar    1  LIG1       -0.0144
     19 C           3.2251   10.3491   -0.0023 C.ar    1  LIG1       -0.0233
     20 C           1.9672   10.8673   -0.0018 C.ar    1  LIG1        0.0926
     21 O           1.0388    9.8661   -0.0012 O.2     1  LIG1       -0.4615
     22 H           1.5734   11.8716   -0.0018 H       1  LIG1        0.1029
     23 H           3.8657    8.1932   -0.0025 H       1  LIG1        0.0656
     24 H           4.1508   10.9064   -0.0028 H       1  LIG1        0.0649
@<TRIPOS>BOND
     1    24    19    1
     2    23    18    1
     3    19    18   ar
     4    19    20   ar
     5    18    17   ar
     6    20    22    1
     7    20    21   ar
     8    17    21   ar
     9    17    12    1
    10    12    13   ar
    11    12    11   ar
    12    13    14    1
    13    13     9   ar
    14    16    11    1
    15    11    10   ar
    16    10    15    1
    17    10     9   ar
    18     9     4    1
    19     5     4   ar
    20     5     1   ar
    21     4     3   ar
    22     6     1    1
    23     1     2   ar
    24     3     8    1
    25     3     2   ar
    26     2     7    1
