@<TRIPOS>MOLECULE
mol_data/opt/b3lyp/geoms/mol2/12138-.out
 23 25 0 0 0
SMALL
GASTEIGER

@<TRIPOS>ATOM
      1 C           0.2429    1.7568   -0.0002 C.ar    1  LIG1        0.0926
      2 C           1.6045    1.7653   -0.0004 C.ar    1  LIG1       -0.0233
      3 C           1.9999    3.1386   -0.0001 C.ar    1  LIG1       -0.0144
      4 C           0.8436    3.8763    0.0000 C.ar    1  LIG1        0.1509
      5 O          -0.2402    3.0335   -0.0001 O.2     1  LIG1       -0.4615
      6 H          -0.4988    0.9741   -0.0003 H       1  LIG1        0.1029
      7 H           2.2513    0.9002   -0.0005 H       1  LIG1        0.0649
      8 H           3.0066    3.5295   -0.0001 H       1  LIG1        0.0656
      9 C           0.5590    5.2869    0.0003 C.ar    1  LIG1        0.0826
     10 C           1.4175    6.3942    0.0002 C.ar    1  LIG1       -0.0327
     11 C           0.6200    7.5496    0.0006 C.ar    1  LIG1       -0.0325
     12 C          -0.7135    7.1382    0.0007 C.ar    1  LIG1        0.0880
     13 N          -0.7223    5.7605    0.0006 N.ar    1  LIG1       -0.3492
     14 H          -1.5642    5.2027    0.0006 H       1  LIG1        0.1661
     15 H           2.4969    6.3501   -0.0000 H       1  LIG1        0.0640
     16 H           0.9488    8.5779    0.0007 H       1  LIG1        0.0640
     17 C          -1.9405    7.8853    0.0010 C.ar    1  LIG1        0.2193
     18 N          -3.0973    7.1752    0.0011 N.ar    1  LIG1       -0.1243
     19 C          -4.1413    9.1872    0.0015 C.ar    1  LIG1        0.1605
     20 N          -1.8686    9.2419    0.0011 N.ar    1  LIG1       -0.1243
     21 N          -4.2284    7.8513    0.0014 N.ar    1  LIG1       -0.1338
     22 N          -3.0046    9.9033    0.0014 N.ar    1  LIG1       -0.1338
     23 H          -5.0725    9.7429    0.0020 H       1  LIG1        0.1085
@<TRIPOS>BOND
     1     7     2    1
     2     2     1   ar
     3     2     3   ar
     4     6     1    1
     5     1     5   ar
     6     3     8    1
     7     3     4   ar
     8     5     4   ar
     9    15    10    1
    10     4     9    1
    11    10     9   ar
    12    10    11   ar
    13     9    13   ar
    14    13    14    1
    15    13    12   ar
    16    11    12   ar
    17    11    16    1
    18    12    17    1
    19    17    20   ar
    20    17    18   ar
    21    20    22   ar
    22    18    21   ar
    23    22    19   ar
    24    21    19   ar
    25    19    23    1
