@<TRIPOS>MOLECULE
mol_data/opt/b3lyp/geoms/mol2/121312-.out
 24 26 0 0 0
SMALL
GASTEIGER

@<TRIPOS>ATOM
      1 C           0.2478    1.7461   -0.0006 C.ar    1  LIG1        0.0926
      2 C           1.6081    1.7474   -0.0003 C.ar    1  LIG1       -0.0233
      3 C           2.0140    3.1189    0.0000 C.ar    1  LIG1       -0.0144
      4 C           0.8640    3.8663    0.0000 C.ar    1  LIG1        0.1509
      5 O          -0.2270    3.0297   -0.0003 O.2     1  LIG1       -0.4615
      6 H          -0.5000    0.9686   -0.0010 H       1  LIG1        0.1029
      7 H           2.2497    0.8780   -0.0004 H       1  LIG1        0.0649
      8 H           3.0233    3.5022    0.0003 H       1  LIG1        0.0656
      9 C           0.5829    5.2779    0.0003 C.ar    1  LIG1        0.0826
     10 C           1.4228    6.3878    0.0005 C.ar    1  LIG1       -0.0327
     11 C           0.6088    7.5409    0.0005 C.ar    1  LIG1       -0.0327
     12 C          -0.7193    7.1244    0.0007 C.ar    1  LIG1        0.0826
     13 N          -0.7124    5.7469    0.0006 N.ar    1  LIG1       -0.3494
     14 H          -1.5221    5.1474    0.0003 H       1  LIG1        0.1661
     15 H           2.5029    6.3578    0.0005 H       1  LIG1        0.0640
     16 H           0.9344    8.5704    0.0005 H       1  LIG1        0.0640
     17 C          -1.9394    7.8878    0.0011 C.ar    1  LIG1        0.1509
     18 C          -3.2728    7.5575    0.0016 C.ar    1  LIG1       -0.0144
     19 C          -3.9976    8.7908    0.0017 C.ar    1  LIG1       -0.0233
     20 C          -3.0648    9.7811    0.0012 C.ar    1  LIG1        0.0926
     21 O          -1.8064    9.2512    0.0007 O.2     1  LIG1       -0.4615
     22 H          -3.1197   10.8585    0.0010 H       1  LIG1        0.1029
     23 H          -3.6923    6.5616    0.0021 H       1  LIG1        0.0656
     24 H          -5.0707    8.9175    0.0021 H       1  LIG1        0.0649
@<TRIPOS>BOND
     1     6     1    1
     2     1     2   ar
     3     1     5   ar
     4     7     2    1
     5     2     3   ar
     6     5     4   ar
     7     3     4   ar
     8     3     8    1
     9     4     9    1
    10    14    13    1
    11     9    10   ar
    12     9    13   ar
    13    11    10   ar
    14    11    16    1
    15    11    12   ar
    16    15    10    1
    17    13    12   ar
    18    21    17   ar
    19    21    20   ar
    20    12    17    1
    21    22    20    1
    22    17    18   ar
    23    20    19   ar
    24    18    19   ar
    25    18    23    1
    26    19    24    1
