@<TRIPOS>MOLECULE
mol_data/opt/b3lyp/geoms/mol2/1213-125-.out
 31 34 0 0 0
SMALL
GASTEIGER

@<TRIPOS>ATOM
      1 C           0.2797    1.6241    0.0005 C.ar    1  LIG1        0.0926
      2 C           1.6397    1.6657    0.0008 C.ar    1  LIG1       -0.0233
      3 C           1.9985    3.0502    0.0004 C.ar    1  LIG1       -0.0144
      4 C           0.8215    3.7591   -0.0001 C.ar    1  LIG1        0.1509
      5 O          -0.2355    2.8884   -0.0000 O.2     1  LIG1       -0.4615
      6 H          -0.4427    0.8235    0.0006 H       1  LIG1        0.1029
      7 H           2.3089    0.8177    0.0012 H       1  LIG1        0.0649
      8 H           2.9999    3.4567    0.0005 H       1  LIG1        0.0656
      9 C           0.4974    5.1610   -0.0006 C.ar    1  LIG1        0.0826
     10 C          -0.7362    5.8045   -0.0007 C.ar    1  LIG1       -0.0327
     11 C          -0.4972    7.1948   -0.0012 C.ar    1  LIG1       -0.0327
     12 C           0.8810    7.3900   -0.0013 C.ar    1  LIG1        0.0826
     13 N           1.4681    6.1405   -0.0010 N.ar    1  LIG1       -0.3494
     14 H           2.4602    5.9691   -0.0007 H       1  LIG1        0.1661
     15 H          -1.6937    5.3057   -0.0005 H       1  LIG1        0.0640
     16 H          -1.2335    7.9844   -0.0015 H       1  LIG1        0.0640
     17 C           1.6534    8.5999   -0.0018 C.ar    1  LIG1        0.1518
     18 C           3.0020    8.8742   -0.0023 C.ar    1  LIG1       -0.0138
     19 C           3.1315   10.2905   -0.0025 C.ar    1  LIG1       -0.0147
     20 C           1.8585   10.8067   -0.0022 C.ar    1  LIG1        0.1423
     21 O           0.9509    9.7755   -0.0018 O.2     1  LIG1       -0.4528
     22 H           3.8086    8.1550   -0.0024 H       1  LIG1        0.0656
     23 H           4.0499   10.8595   -0.0030 H       1  LIG1        0.0656
     24 C           1.3170   12.1405   -0.0023 C.ar    1  LIG1        0.0544
     25 C          -0.0082   12.5206   -0.0022 C.ar    1  LIG1       -0.0440
     26 C          -0.1856   13.9331   -0.0024 C.ar    1  LIG1       -0.0540
     27 C           0.9957   14.6215   -0.0026 C.ar    1  LIG1       -0.0236
     28 S           2.3623   13.5478   -0.0027 S.2     1  LIG1       -0.0936
     29 H           1.1549   15.6904   -0.0028 H       1  LIG1        0.0693
     30 H          -0.8177   11.8016   -0.0020 H       1  LIG1        0.0630
     31 H          -1.1553   14.4172   -0.0023 H       1  LIG1        0.0623
@<TRIPOS>BOND
     1    23    19    1
     2    29    27    1
     3    28    27   ar
     4    28    24   ar
     5    27    26   ar
     6    19    18   ar
     7    19    20   ar
     8    22    18    1
     9    26    31    1
    10    26    25   ar
    11    24    20    1
    12    24    25   ar
    13    18    17   ar
    14    20    21   ar
    15    25    30    1
    16    17    21   ar
    17    17    12    1
    18    16    11    1
    19    12    11   ar
    20    12    13   ar
    21    11    10   ar
    22    13    14    1
    23    13     9   ar
    24    10     9   ar
    25    10    15    1
    26     9     4    1
    27     4     5   ar
    28     4     3   ar
    29     5     1   ar
    30     3     8    1
    31     3     2   ar
    32     1     6    1
    33     1     2   ar
    34     2     7    1
