@<TRIPOS>MOLECULE
mol_data/opt/b3lyp/geoms/mol2/1213-13.out
 25 27 0 0 0
SMALL
GASTEIGER

@<TRIPOS>ATOM
      1 C           0.2015    1.7088    0.0001 C.ar    1  LIG1        0.0926
      2 C           1.5616    1.7248    0.0007 C.ar    1  LIG1       -0.0233
      3 C           1.9465    3.1028    0.0005 C.ar    1  LIG1       -0.0144
      4 C           0.7834    3.8340   -0.0001 C.ar    1  LIG1        0.1509
      5 O          -0.2905    2.9832   -0.0004 O.2     1  LIG1       -0.4615
      6 H          -0.5362    0.9220   -0.0001 H       1  LIG1        0.1029
      7 H           2.2154    0.8646    0.0011 H       1  LIG1        0.0649
      8 H           2.9552    3.4907    0.0008 H       1  LIG1        0.0656
      9 C           0.4860    5.2418   -0.0006 C.ar    1  LIG1        0.0826
     10 C          -0.7312    5.9106   -0.0009 C.ar    1  LIG1       -0.0328
     11 C          -0.4589    7.2978   -0.0011 C.ar    1  LIG1       -0.0343
     12 C           0.9234    7.4663   -0.0010 C.ar    1  LIG1        0.0634
     13 N           1.4764    6.2042   -0.0008 N.ar    1  LIG1       -0.3506
     14 H           2.4653    6.0156   -0.0003 H       1  LIG1        0.1660
     15 H          -1.7004    5.4348   -0.0009 H       1  LIG1        0.0640
     16 H          -1.1956    8.0896   -0.0014 H       1  LIG1        0.0639
     17 C           1.7438    8.6559   -0.0013 C.ar    1  LIG1        0.0629
     18 C           3.1239    8.8261   -0.0019 C.ar    1  LIG1       -0.0350
     19 C           3.3923   10.2204   -0.0021 C.ar    1  LIG1       -0.0438
     20 C           2.1784   10.8736   -0.0010 C.ar    1  LIG1        0.0022
     21 N           1.1896    9.9199   -0.0007 N.ar    1  LIG1       -0.3595
     22 H           0.2008   10.1089   -0.0003 H       1  LIG1        0.1654
     23 H           1.9383   11.9261   -0.0005 H       1  LIG1        0.0807
     24 H           3.8618    8.0352   -0.0025 H       1  LIG1        0.0639
     25 H           4.3652   10.6910   -0.0028 H       1  LIG1        0.0633
@<TRIPOS>BOND
     1    25    19    1
     2    24    18    1
     3    19    18   ar
     4    19    20   ar
     5    18    17   ar
     6    16    11    1
     7    17    12    1
     8    17    21   ar
     9    11    12   ar
    10    11    10   ar
    11    12    13   ar
    12    20    21   ar
    13    20    23    1
    14    15    10    1
    15    10     9   ar
    16    13     9   ar
    17    13    14    1
    18    21    22    1
    19     9     4    1
    20     5     4   ar
    21     5     1   ar
    22     4     3   ar
    23     6     1    1
    24     1     2   ar
    25     3     2   ar
    26     3     8    1
    27     2     7    1
