@<TRIPOS>MOLECULE
mol_data/opt/b3lyp/geoms/mol2/121312.out
 24 26 0 0 0
SMALL
GASTEIGER

@<TRIPOS>ATOM
      1 C           0.2637    1.7441   -0.0003 C.ar    1  LIG1        0.0926
      2 C           1.6241    1.7534   -0.0004 C.ar    1  LIG1       -0.0233
      3 C           2.0218    3.1275   -0.0001 C.ar    1  LIG1       -0.0144
      4 C           0.8670    3.8678    0.0000 C.ar    1  LIG1        0.1509
      5 O          -0.2180    3.0247   -0.0002 O.2     1  LIG1       -0.4615
      6 H          -0.4793    0.9628   -0.0004 H       1  LIG1        0.1029
      7 H           2.2705    0.8877   -0.0006 H       1  LIG1        0.0649
      8 H           3.0291    3.5170    0.0000 H       1  LIG1        0.0656
      9 C           0.5793    5.2783    0.0003 C.ar    1  LIG1        0.0826
     10 C           1.4179    6.3903    0.0003 C.ar    1  LIG1       -0.0327
     11 C           0.6027    7.5424    0.0007 C.ar    1  LIG1       -0.0327
     12 C          -0.7250    7.1216    0.0007 C.ar    1  LIG1        0.0826
     13 N          -0.7148    5.7457    0.0005 N.ar    1  LIG1       -0.3494
     14 H          -1.5377    5.1634    0.0005 H       1  LIG1        0.1661
     15 H           2.4980    6.3625    0.0001 H       1  LIG1        0.0640
     16 H           0.9358    8.5702    0.0009 H       1  LIG1        0.0640
     17 C          -1.9594    7.8622    0.0010 C.ar    1  LIG1        0.1509
     18 C          -2.2734    9.1975    0.0011 C.ar    1  LIG1       -0.0144
     19 C          -3.7015    9.2796    0.0013 C.ar    1  LIG1       -0.0233
     20 C          -4.1629    7.9998    0.0015 C.ar    1  LIG1        0.0926
     21 O          -3.1154    7.1195    0.0012 O.2     1  LIG1       -0.4615
     22 H          -5.1468    7.5591    0.0018 H       1  LIG1        0.1029
     23 H          -1.5709   10.0178    0.0009 H       1  LIG1        0.0656
     24 H          -4.3028   10.1773    0.0014 H       1  LIG1        0.0649
@<TRIPOS>BOND
     1     7     2    1
     2     6     1    1
     3     2     1   ar
     4     2     3   ar
     5     1     5   ar
     6     5     4   ar
     7     3     4   ar
     8     3     8    1
     9     4     9    1
    10    15    10    1
    11    10     9   ar
    12    10    11   ar
    13     9    13   ar
    14    14    13    1
    15    13    12   ar
    16    11    12   ar
    17    11    16    1
    18    12    17    1
    19    23    18    1
    20    17    18   ar
    21    17    21   ar
    22    18    19   ar
    23    21    20   ar
    24    19    24    1
    25    19    20   ar
    26    20    22    1
