@<TRIPOS>MOLECULE
mol_data/opt/b3lyp/geoms/mol2/12131313-.out
 33 36 0 0 0
SMALL
GASTEIGER

@<TRIPOS>ATOM
      1 C           0.4261    1.6918   -0.0016 C.ar    1  LIG1        0.0926
      2 C           1.7855    1.7220   -0.0011 C.ar    1  LIG1       -0.0233
      3 C           2.1638    3.1017   -0.0003 C.ar    1  LIG1       -0.0144
      4 C           0.9988    3.8261   -0.0002 C.ar    1  LIG1        0.1509
      5 O          -0.0753    2.9666   -0.0011 O.2     1  LIG1       -0.4615
      6 H          -0.3052    0.8994   -0.0022 H       1  LIG1        0.1029
      7 H           2.4450    0.8661   -0.0014 H       1  LIG1        0.0649
      8 H           3.1653    3.5048    0.0003 H       1  LIG1        0.0656
      9 C           0.6854    5.2296    0.0004 C.ar    1  LIG1        0.0826
     10 C           1.4911    6.3623    0.0010 C.ar    1  LIG1       -0.0328
     11 C           0.6437    7.4910    0.0014 C.ar    1  LIG1       -0.0343
     12 C          -0.6771    7.0447    0.0011 C.ar    1  LIG1        0.0634
     13 N          -0.6253    5.6652    0.0006 N.ar    1  LIG1       -0.3506
     14 H          -1.4029    5.0255   -0.0003 H       1  LIG1        0.1660
     15 H           2.5717    6.3646    0.0012 H       1  LIG1        0.0640
     16 H           0.9504    8.5268    0.0020 H       1  LIG1        0.0639
     17 C          -1.9053    7.8026    0.0014 C.ar    1  LIG1        0.0634
     18 C          -2.1006    9.1794    0.0011 C.ar    1  LIG1       -0.0343
     19 C          -3.4927    9.4250    0.0016 C.ar    1  LIG1       -0.0343
     20 C          -4.1467    8.1976    0.0023 C.ar    1  LIG1        0.0633
     21 N          -3.1641    7.2275    0.0022 N.ar    1  LIG1       -0.3519
     22 H          -3.3633    6.2412    0.0022 H       1  LIG1        0.1660
     23 H          -1.3150    9.9209    0.0005 H       1  LIG1        0.0639
     24 H          -3.9654   10.3978    0.0017 H       1  LIG1        0.0639
     25 C          -5.5502    7.8551    0.0030 C.ar    1  LIG1        0.0629
     26 C          -6.2009    6.6259    0.0051 C.ar    1  LIG1       -0.0350
     27 C          -7.6000    6.8716    0.0050 C.ar    1  LIG1       -0.0438
     28 C          -7.7783    8.2382    0.0028 C.ar    1  LIG1        0.0022
     29 N          -6.5343    8.8227    0.0016 N.ar    1  LIG1       -0.3595
     30 H          -6.3588    9.8140    0.0001 H       1  LIG1        0.1654
     31 H          -8.6762    8.8374    0.0020 H       1  LIG1        0.0807
     32 H          -5.7263    5.6539    0.0067 H       1  LIG1        0.0639
     33 H          -8.3862    6.1297    0.0063 H       1  LIG1        0.0633
@<TRIPOS>BOND
     1     6     1    1
     2     1     2   ar
     3     1     5   ar
     4     7     2    1
     5     2     3   ar
     6     5     4   ar
     7    14    13    1
     8     3     4   ar
     9     3     8    1
    10     4     9    1
    11    30    29    1
    12     9    13   ar
    13     9    10   ar
    14    23    18    1
    15    13    12   ar
    16    10    15    1
    17    10    11   ar
    18    18    17   ar
    19    18    19   ar
    20    12    17    1
    21    12    11   ar
    22    17    21   ar
    23    11    16    1
    24    19    24    1
    25    19    20   ar
    26    29    28   ar
    27    29    25   ar
    28    31    28    1
    29    21    22    1
    30    21    20   ar
    31    20    25    1
    32    28    27   ar
    33    25    26   ar
    34    27    26   ar
    35    27    33    1
    36    26    32    1
