@<TRIPOS>MOLECULE
mol_data/opt/b3lyp/geoms/mol2/1213-8.out
 23 25 0 0 0
SMALL
GASTEIGER

@<TRIPOS>ATOM
      1 C           0.2187    1.7520    0.0003 C.ar    1  LIG1        0.0926
      2 C           1.5806    1.7656    0.0002 C.ar    1  LIG1       -0.0233
      3 C           1.9661    3.1414    0.0000 C.ar    1  LIG1       -0.0144
      4 C           0.8033    3.8720   -0.0002 C.ar    1  LIG1        0.1509
      5 O          -0.2717    3.0233   -0.0000 O.2     1  LIG1       -0.4615
      6 H          -0.5184    0.9649    0.0005 H       1  LIG1        0.1029
      7 H           2.2327    0.9046    0.0004 H       1  LIG1        0.0649
      8 H           2.9743    3.5308   -0.0000 H       1  LIG1        0.0656
      9 C           0.5061    5.2801   -0.0005 C.ar    1  LIG1        0.0826
     10 C          -0.7305    5.9370   -0.0003 C.ar    1  LIG1       -0.0327
     11 C          -0.4797    7.3188   -0.0008 C.ar    1  LIG1       -0.0325
     12 C           0.9040    7.4924   -0.0010 C.ar    1  LIG1        0.0880
     13 N           1.4807    6.2396   -0.0009 N.ar    1  LIG1       -0.3492
     14 H           2.4806    6.1016   -0.0010 H       1  LIG1        0.1661
     15 H          -1.6910    5.4443    0.0000 H       1  LIG1        0.0640
     16 H          -1.2026    8.1206   -0.0009 H       1  LIG1        0.0640
     17 C           1.7197    8.6745   -0.0014 C.ar    1  LIG1        0.2193
     18 N           3.0654    8.4957   -0.0017 N.ar    1  LIG1       -0.1243
     19 C           3.2028   10.7578   -0.0022 C.ar    1  LIG1        0.1605
     20 N           1.1032    9.8851   -0.0016 N.ar    1  LIG1       -0.1243
     21 N           3.8249    9.5726   -0.0021 N.ar    1  LIG1       -0.1338
     22 N           1.8728   10.9504   -0.0020 N.ar    1  LIG1       -0.1338
     23 H           3.8278   11.6440   -0.0028 H       1  LIG1        0.1085
@<TRIPOS>BOND
     1    23    19    1
     2    19    21   ar
     3    19    22   ar
     4    21    18   ar
     5    22    20   ar
     6    18    17   ar
     7    20    17   ar
     8    17    12    1
     9    14    13    1
    10    12    13   ar
    11    12    11   ar
    12    13     9   ar
    13    16    11    1
    14    11    10   ar
    15     9    10   ar
    16     9     4    1
    17    10    15    1
    18     4     5   ar
    19     4     3   ar
    20     5     1   ar
    21     8     3    1
    22     3     2   ar
    23     2     1   ar
    24     2     7    1
    25     1     6    1
