@<TRIPOS>MOLECULE
mol_data/opt/b3lyp/geoms/mol2/1213-13-4.out
 35 38 0 0 0
SMALL
GASTEIGER

@<TRIPOS>ATOM
      1 C           0.0064    1.6294    0.0010 C.ar    1  LIG1        0.0926
      2 C           1.3664    1.6041    0.0020 C.ar    1  LIG1       -0.0233
      3 C           1.7931    2.9697    0.0015 C.ar    1  LIG1       -0.0144
      4 C           0.6523    3.7364    0.0002 C.ar    1  LIG1        0.1509
      5 O          -0.4460    2.9184   -0.0001 O.2     1  LIG1       -0.4615
      6 H          -0.7547    0.8656    0.0009 H       1  LIG1        0.1029
      7 H           1.9931    0.7242    0.0030 H       1  LIG1        0.0649
      8 H           2.8139    3.3252    0.0021 H       1  LIG1        0.0656
      9 C           0.3984    5.1519   -0.0008 C.ar    1  LIG1        0.0826
     10 C          -0.7963    5.8608   -0.0017 C.ar    1  LIG1       -0.0328
     11 C          -0.4814    7.2362   -0.0023 C.ar    1  LIG1       -0.0343
     12 C           0.9054    7.3658   -0.0017 C.ar    1  LIG1        0.0634
     13 N           1.4208    6.0825   -0.0008 N.ar    1  LIG1       -0.3506
     14 H           2.3964    5.8368    0.0004 H       1  LIG1        0.1660
     15 H          -1.7798    5.4155   -0.0019 H       1  LIG1        0.0640
     16 H          -1.1825    8.0580   -0.0032 H       1  LIG1        0.0639
     17 C           1.7161    8.5595   -0.0020 C.ar    1  LIG1        0.0633
     18 C           1.3252    9.8962   -0.0016 C.ar    1  LIG1       -0.0344
     19 C           2.4901   10.6900   -0.0020 C.ar    1  LIG1       -0.0358
     20 C           3.5970    9.8463   -0.0027 C.ar    1  LIG1        0.0469
     21 N           3.0966    8.5554   -0.0027 N.ar    1  LIG1       -0.3530
     22 H           3.6765    7.7341   -0.0029 H       1  LIG1        0.1659
     23 H           0.3036   10.2473   -0.0010 H       1  LIG1        0.0639
     24 H           2.5212   11.7699   -0.0020 H       1  LIG1        0.0639
     25 C           6.0045    9.1272   -0.0052 C.ar    1  LIG1       -0.0526
     26 C           7.3634    9.4335   -0.0058 C.ar    1  LIG1       -0.0611
     27 C           5.0264   10.1411   -0.0033 C.ar    1  LIG1       -0.0017
     28 C           7.7887   10.7617   -0.0045 C.ar    1  LIG1       -0.0617
     29 H           8.0921    8.6278   -0.0072 H       1  LIG1        0.0618
     30 C           5.4756   11.4774   -0.0021 C.ar    1  LIG1       -0.0526
     31 C           6.8324   11.7807   -0.0027 C.ar    1  LIG1       -0.0611
     32 H           4.7502   12.2842   -0.0006 H       1  LIG1        0.0624
     33 H           8.8477   11.0004   -0.0050 H       1  LIG1        0.0618
     34 H           5.7154    8.0795   -0.0064 H       1  LIG1        0.0624
     35 H           7.1463   12.8206   -0.0017 H       1  LIG1        0.0618
@<TRIPOS>BOND
     1    29    26    1
     2    34    25    1
     3    26    25   ar
     4    26    28   ar
     5    25    27   ar
     6    33    28    1
     7    28    31   ar
     8    27    20    1
     9    27    30   ar
    10    16    11    1
    11    22    21    1
    12    31    30   ar
    13    31    35    1
    14    20    21   ar
    15    20    19   ar
    16    21    17   ar
    17    11    12   ar
    18    11    10   ar
    19    30    32    1
    20    19    24    1
    21    19    18   ar
    22    17    12    1
    23    17    18   ar
    24    15    10    1
    25    12    13   ar
    26    10     9   ar
    27    18    23    1
    28    13     9   ar
    29    13    14    1
    30     9     4    1
    31     5     4   ar
    32     5     1   ar
    33     4     3   ar
    34     6     1    1
    35     1     2   ar
    36     3     2   ar
    37     3     8    1
    38     2     7    1
