@<TRIPOS>MOLECULE
mol_data/opt/b3lyp/geoms/mol2/1213-48-.out
 33 36 0 0 0
SMALL
GASTEIGER

@<TRIPOS>ATOM
      1 C           0.1448    1.6365   -0.0005 C.ar    1  LIG1        0.0926
      2 C           1.5059    1.6389    0.0002 C.ar    1  LIG1       -0.0233
      3 C           1.9033    3.0122    0.0005 C.ar    1  LIG1       -0.0144
      4 C           0.7471    3.7539   -0.0003 C.ar    1  LIG1        0.1509
      5 O          -0.3345    2.9139   -0.0010 O.2     1  LIG1       -0.4615
      6 H          -0.5996    0.8565   -0.0009 H       1  LIG1        0.1029
      7 H           2.1510    0.7724    0.0006 H       1  LIG1        0.0649
      8 H           2.9161    3.3901    0.0011 H       1  LIG1        0.0656
      9 C           0.4614    5.1644   -0.0006 C.ar    1  LIG1        0.0825
     10 C          -0.7575    5.8387   -0.0011 C.ar    1  LIG1       -0.0328
     11 C          -0.4782    7.2181   -0.0012 C.ar    1  LIG1       -0.0357
     12 C           0.9074    7.3876   -0.0005 C.ar    1  LIG1        0.0470
     13 N           1.4526    6.1165   -0.0003 N.ar    1  LIG1       -0.3518
     14 H           2.4376    5.9102    0.0005 H       1  LIG1        0.1660
     15 H          -1.7280    5.3661   -0.0015 H       1  LIG1        0.0640
     16 H          -1.2090    8.0134   -0.0016 H       1  LIG1        0.0639
     17 C           3.1261    8.5588   -0.0002 C.ar    1  LIG1       -0.0520
     18 C           3.8807    9.7219    0.0001 C.ar    1  LIG1       -0.0503
     19 C           1.7153    8.5953   -0.0003 C.ar    1  LIG1       -0.0017
     20 C           3.2552   10.9800    0.0002 C.ar    1  LIG1        0.0227
     21 H           4.9632    9.6711    0.0002 H       1  LIG1        0.0625
     22 C           1.0999    9.8665   -0.0002 C.ar    1  LIG1       -0.0520
     23 C           1.8487   11.0308    0.0000 C.ar    1  LIG1       -0.0503
     24 H           0.0176    9.9369   -0.0003 H       1  LIG1        0.0624
     25 H           3.6542    7.6099   -0.0003 H       1  LIG1        0.0624
     26 H           1.3570   11.9965    0.0001 H       1  LIG1        0.0625
     27 C           4.0515   12.2126    0.0004 C.ar    1  LIG1        0.2033
     28 N           3.3937   13.3964    0.0007 N.ar    1  LIG1       -0.1258
     29 C           5.4436   14.3665    0.0007 C.ar    1  LIG1        0.1605
     30 N           5.4011   12.0993    0.0003 N.ar    1  LIG1       -0.1258
     31 N           4.1112   14.5017    0.0009 N.ar    1  LIG1       -0.1339
     32 N           6.1144   13.2071    0.0005 N.ar    1  LIG1       -0.1339
     33 H           6.0325   15.2777    0.0011 H       1  LIG1        0.1085
@<TRIPOS>BOND
     1    16    11    1
     2    15    10    1
     3    11    10   ar
     4    11    12   ar
     5    10     9   ar
     6     5     1   ar
     7     5     4   ar
     8     6     1    1
     9     9     4    1
    10     9    13   ar
    11    12    19    1
    12    12    13   ar
    13     1     2   ar
    14     4     3   ar
    15    25    17    1
    16    19    22   ar
    17    19    17   ar
    18    13    14    1
    19    24    22    1
    20    22    23   ar
    21    17    18   ar
    22    23    26    1
    23    23    20   ar
    24    18    21    1
    25    18    20   ar
    26    20    27    1
    27     2     3   ar
    28     2     7    1
    29    30    27   ar
    30    30    32   ar
    31    27    28   ar
    32     3     8    1
    33    32    29   ar
    34    29    31   ar
    35    29    33    1
    36    28    31   ar
