@<TRIPOS>MOLECULE
mol_data/opt/b3lyp/geoms/mol2/12135-.out
 24 26 0 0 0
SMALL
GASTEIGER

@<TRIPOS>ATOM
      1 C           0.2996    1.7161   -0.0004 C.ar    1  LIG1        0.0926
      2 C           1.6599    1.7349   -0.0006 C.ar    1  LIG1       -0.0233
      3 C           2.0484    3.1116   -0.0002 C.ar    1  LIG1       -0.0144
      4 C           0.8889    3.8442   -0.0000 C.ar    1  LIG1        0.1509
      5 O          -0.1910    2.9937   -0.0002 O.2     1  LIG1       -0.4615
      6 H          -0.4377    0.9296   -0.0005 H       1  LIG1        0.1029
      7 H           2.3122    0.8736   -0.0009 H       1  LIG1        0.0649
      8 H           3.0529    3.5081   -0.0002 H       1  LIG1        0.0656
      9 C           0.5902    5.2522    0.0003 C.ar    1  LIG1        0.0825
     10 C           1.4162    6.3722    0.0003 C.ar    1  LIG1       -0.0328
     11 C           0.5858    7.5125    0.0008 C.ar    1  LIG1       -0.0352
     12 C          -0.7404    7.0838    0.0009 C.ar    1  LIG1        0.0536
     13 N          -0.7097    5.7051    0.0007 N.ar    1  LIG1       -0.3514
     14 H          -1.5103    5.0939    0.0004 H       1  LIG1        0.1660
     15 H           2.4965    6.3573    0.0001 H       1  LIG1        0.0640
     16 H           0.9095    8.5438    0.0011 H       1  LIG1        0.0639
     17 C          -1.9820    7.8238    0.0013 C.ar    1  LIG1        0.0355
     18 C          -3.2789    7.3527    0.0022 C.ar    1  LIG1       -0.0455
     19 C          -4.2601    8.3852    0.0022 C.ar    1  LIG1       -0.0541
     20 C          -3.7158    9.6385    0.0014 C.ar    1  LIG1       -0.0237
     21 S          -1.9793    9.5781    0.0006 S.2     1  LIG1       -0.0952
     22 H          -4.2203   10.5942    0.0013 H       1  LIG1        0.0693
     23 H          -3.5320    6.2980    0.0028 H       1  LIG1        0.0629
     24 H          -5.3281    8.1989    0.0029 H       1  LIG1        0.0623
@<TRIPOS>BOND
     1     7     2    1
     2     2     1   ar
     3     2     3   ar
     4     6     1    1
     5     1     5   ar
     6     3     8    1
     7     3     4   ar
     8     5     4   ar
     9     4     9    1
    10    15    10    1
    11     9    10   ar
    12     9    13   ar
    13    10    11   ar
    14    14    13    1
    15    21    17   ar
    16    21    20   ar
    17    13    12   ar
    18    11    12   ar
    19    11    16    1
    20    12    17    1
    21    22    20    1
    22    17    18   ar
    23    20    19   ar
    24    18    19   ar
    25    18    23    1
    26    19    24    1
