@<TRIPOS>MOLECULE
mol_data/opt/b3lyp/geoms/mol2/121313-8.out
 31 34 0 0 0
SMALL
GASTEIGER

@<TRIPOS>ATOM
      1 C           0.2838    1.7012   -0.0008 C.ar    1  LIG1        0.0926
      2 C           1.6444    1.7042   -0.0006 C.ar    1  LIG1       -0.0233
      3 C           2.0483    3.0762   -0.0000 C.ar    1  LIG1       -0.0144
      4 C           0.8970    3.8211   -0.0000 C.ar    1  LIG1        0.1509
      5 O          -0.1925    2.9835   -0.0006 O.2     1  LIG1       -0.4615
      6 H          -0.4623    0.9229   -0.0011 H       1  LIG1        0.1029
      7 H           2.2871    0.8358   -0.0008 H       1  LIG1        0.0649
      8 H           3.0574    3.4607    0.0004 H       1  LIG1        0.0656
      9 C           0.6130    5.2321    0.0004 C.ar    1  LIG1        0.0826
     10 C           1.4520    6.3436    0.0008 C.ar    1  LIG1       -0.0328
     11 C           0.6352    7.4928    0.0011 C.ar    1  LIG1       -0.0343
     12 C          -0.6960    7.0762    0.0008 C.ar    1  LIG1        0.0634
     13 N          -0.6806    5.6979    0.0005 N.ar    1  LIG1       -0.3506
     14 H          -1.4892    5.0965   -0.0001 H       1  LIG1        0.1660
     15 H           2.5319    6.3168    0.0009 H       1  LIG1        0.0640
     16 H           0.9786    8.5180    0.0016 H       1  LIG1        0.0639
     17 C          -1.9263    7.8239    0.0010 C.ar    1  LIG1        0.0634
     18 C          -3.2619    7.3905    0.0016 C.ar    1  LIG1       -0.0343
     19 C          -4.0864    8.5267    0.0014 C.ar    1  LIG1       -0.0326
     20 C          -3.2544    9.6452    0.0009 C.ar    1  LIG1        0.0880
     21 N          -1.9511    9.1913    0.0005 N.ar    1  LIG1       -0.3505
     22 H          -1.1581    9.8156    0.0000 H       1  LIG1        0.1660
     23 H          -3.5932    6.3615    0.0022 H       1  LIG1        0.0639
     24 H          -5.1655    8.5590    0.0017 H       1  LIG1        0.0640
     25 C          -3.5437   11.0502    0.0005 C.ar    1  LIG1        0.2193
     26 N          -2.4836   11.8998   -0.0000 N.ar    1  LIG1       -0.1243
     27 C          -4.0239   13.5627    0.0000 C.ar    1  LIG1        0.1605
     28 N          -4.8454   11.4426    0.0008 N.ar    1  LIG1       -0.1243
     29 N          -2.7375   13.1926   -0.0003 N.ar    1  LIG1       -0.1338
     30 N          -5.0828   12.7346    0.0005 N.ar    1  LIG1       -0.1338
     31 H          -4.2321   14.6269   -0.0004 H       1  LIG1        0.1085
@<TRIPOS>BOND
     1     6     1    1
     2     7     2    1
     3     1     2   ar
     4     1     5   ar
     5     2     3   ar
     6     5     4   ar
     7    31    27    1
     8    29    26   ar
     9    29    27   ar
    10    14    13    1
    11     4     3   ar
    12     4     9    1
    13    26    25   ar
    14     3     8    1
    15    22    21    1
    16    27    30   ar
    17     9    13   ar
    18     9    10   ar
    19    13    12   ar
    20    21    20   ar
    21    21    17   ar
    22    30    28   ar
    23    25    28   ar
    24    25    20    1
    25    10    15    1
    26    10    11   ar
    27    12    17    1
    28    12    11   ar
    29    20    19   ar
    30    17    18   ar
    31    11    16    1
    32    19    18   ar
    33    19    24    1
    34    18    23    1
