@<TRIPOS>MOLECULE
mol_data/opt/b3lyp/geoms/mol2/1213-4.out
 27 29 0 0 0
SMALL
GASTEIGER

@<TRIPOS>ATOM
      1 C           0.1825    1.6842   -0.0001 C.ar    1  LIG1        0.0926
      2 C           1.5430    1.6934    0.0004 C.ar    1  LIG1       -0.0233
      3 C           1.9343    3.0695    0.0005 C.ar    1  LIG1       -0.0144
      4 C           0.7749    3.8062   -0.0002 C.ar    1  LIG1        0.1509
      5 O          -0.3026    2.9605   -0.0006 O.2     1  LIG1       -0.4615
      6 H          -0.5586    0.9011   -0.0003 H       1  LIG1        0.1029
      7 H           2.1923    0.8300    0.0008 H       1  LIG1        0.0649
      8 H           2.9452    3.4524    0.0009 H       1  LIG1        0.0656
      9 C           0.4832    5.2158   -0.0005 C.ar    1  LIG1        0.0825
     10 C          -0.7340    5.8877   -0.0008 C.ar    1  LIG1       -0.0328
     11 C          -0.4560    7.2706   -0.0010 C.ar    1  LIG1       -0.0357
     12 C           0.9269    7.4411   -0.0007 C.ar    1  LIG1        0.0470
     13 N           1.4737    6.1726   -0.0004 N.ar    1  LIG1       -0.3518
     14 H           2.4591    5.9691    0.0002 H       1  LIG1        0.1660
     15 H          -1.7044    5.4144   -0.0010 H       1  LIG1        0.0640
     16 H          -1.1881    8.0650   -0.0015 H       1  LIG1        0.0639
     17 C           3.1466    8.6189   -0.0007 C.ar    1  LIG1       -0.0526
     18 C           3.8989    9.7915   -0.0007 C.ar    1  LIG1       -0.0611
     19 C           1.7389    8.6554   -0.0006 C.ar    1  LIG1       -0.0017
     20 C           3.2688   11.0358   -0.0005 C.ar    1  LIG1       -0.0617
     21 H           4.9834    9.7295   -0.0008 H       1  LIG1        0.0618
     22 C           1.1198    9.9214   -0.0005 C.ar    1  LIG1       -0.0526
     23 C           1.8726   11.0904   -0.0004 C.ar    1  LIG1       -0.0611
     24 H           0.0369    9.9864   -0.0004 H       1  LIG1        0.0624
     25 H           3.8554   11.9494   -0.0005 H       1  LIG1        0.0618
     26 H           3.6750    7.6695   -0.0009 H       1  LIG1        0.0624
     27 H           1.3659   12.0513   -0.0003 H       1  LIG1        0.0618
@<TRIPOS>BOND
     1    16    11    1
     2    11    10   ar
     3    11    12   ar
     4    15    10    1
     5    26    17    1
     6    10     9   ar
     7    21    18    1
     8    17    18   ar
     9    17    19   ar
    10    18    20   ar
    11    12    19    1
    12    12    13   ar
    13    19    22   ar
    14     5     4   ar
    15     5     1   ar
    16    20    25    1
    17    20    23   ar
    18     9    13   ar
    19     9     4    1
    20    22    23   ar
    21    22    24    1
    22    23    27    1
    23    13    14    1
    24     6     1    1
    25     4     3   ar
    26     1     2   ar
    27     2     3   ar
    28     2     7    1
    29     3     8    1
