@<TRIPOS>MOLECULE
mol_data/opt/b3lyp/geoms/mol2/12138-13-.out
 31 34 0 0 0
SMALL
GASTEIGER

@<TRIPOS>ATOM
      1 C           0.2765    1.7331   -0.0004 C.ar    1  LIG1        0.0926
      2 C           1.6379    1.7396   -0.0003 C.ar    1  LIG1       -0.0233
      3 C           2.0359    3.1124   -0.0001 C.ar    1  LIG1       -0.0144
      4 C           0.8811    3.8525    0.0000 C.ar    1  LIG1        0.1509
      5 O          -0.2042    3.0115   -0.0001 O.2     1  LIG1       -0.4615
      6 H          -0.4669    0.9521   -0.0006 H       1  LIG1        0.1029
      7 H           2.2831    0.8732   -0.0004 H       1  LIG1        0.0649
      8 H           3.0433    3.5017   -0.0000 H       1  LIG1        0.0656
      9 C           0.5983    5.2636    0.0003 C.ar    1  LIG1        0.0826
     10 C           1.4549    6.3704    0.0002 C.ar    1  LIG1       -0.0327
     11 C           0.6559    7.5269    0.0006 C.ar    1  LIG1       -0.0325
     12 C          -0.6767    7.1153    0.0007 C.ar    1  LIG1        0.0880
     13 N          -0.6847    5.7387    0.0006 N.ar    1  LIG1       -0.3492
     14 H          -1.5267    5.1814    0.0006 H       1  LIG1        0.1661
     15 H           2.5344    6.3273    0.0000 H       1  LIG1        0.0640
     16 H           0.9852    8.5550    0.0007 H       1  LIG1        0.0640
     17 C          -1.9076    7.8611    0.0011 C.ar    1  LIG1        0.2194
     18 N          -3.0644    7.1497    0.0012 N.ar    1  LIG1       -0.1237
     19 C          -4.1378    9.1584    0.0018 C.ar    1  LIG1        0.2194
     20 N          -1.8468    9.2151    0.0012 N.ar    1  LIG1       -0.1237
     21 N          -4.1981    7.8050    0.0016 N.ar    1  LIG1       -0.1237
     22 N          -2.9809    9.8692    0.0016 N.ar    1  LIG1       -0.1237
     23 C          -5.3690    9.9076    0.0021 C.ar    1  LIG1        0.0875
     24 C          -6.7012    9.5059    0.0025 C.ar    1  LIG1       -0.0333
     25 C          -7.4927   10.6764    0.0030 C.ar    1  LIG1       -0.0437
     26 C          -6.6293   11.7623    0.0025 C.ar    1  LIG1        0.0023
     27 N          -5.3518   11.2867    0.0022 N.ar    1  LIG1       -0.3582
     28 H          -4.4951   11.8201    0.0021 H       1  LIG1        0.1654
     29 H          -6.8324   12.8229    0.0025 H       1  LIG1        0.0807
     30 H          -7.0382    8.4802    0.0025 H       1  LIG1        0.0640
     31 H          -8.5718   10.7291    0.0034 H       1  LIG1        0.0633
@<TRIPOS>BOND
     1     6     1    1
     2     1     2   ar
     3     1     5   ar
     4     7     2    1
     5     2     3   ar
     6     5     4   ar
     7     3     8    1
     8     3     4   ar
     9     4     9    1
    10    15    10    1
    11    10     9   ar
    12    10    11   ar
    13     9    13   ar
    14    13    14    1
    15    13    12   ar
    16    11    16    1
    17    11    12   ar
    18    12    17    1
    19    17    18   ar
    20    17    20   ar
    21    18    21   ar
    22    20    22   ar
    23    21    19   ar
    24    22    19   ar
    25    19    23    1
    26    28    27    1
    27    23    27   ar
    28    23    24   ar
    29    27    26   ar
    30    24    30    1
    31    24    25   ar
    32    26    29    1
    33    26    25   ar
    34    25    31    1
