@<TRIPOS>MOLECULE
mol_data/opt/b3lyp/geoms/mol2/124-8-.out
 25 27 0 0 0
SMALL
GASTEIGER

@<TRIPOS>ATOM
      1 C           0.2433    1.6946    0.0009 C.ar    1  LIG1        0.0926
      2 C           1.6060    1.7130    0.0010 C.ar    1  LIG1       -0.0233
      3 C           1.9828    3.0893    0.0004 C.ar    1  LIG1       -0.0159
      4 C           0.8204    3.8212   -0.0003 C.ar    1  LIG1        0.1348
      5 O          -0.2502    2.9615   -0.0001 O.2     1  LIG1       -0.4629
      6 H          -0.4898    0.9034    0.0012 H       1  LIG1        0.1029
      7 H           2.2610    0.8541    0.0016 H       1  LIG1        0.0649
      8 H           2.9883    3.4836    0.0004 H       1  LIG1        0.0655
      9 C          -0.7960    5.7164   -0.0020 C.ar    1  LIG1       -0.0504
     10 C          -1.0658    7.0773   -0.0029 C.ar    1  LIG1       -0.0503
     11 C           0.5311    5.2455   -0.0012 C.ar    1  LIG1        0.0173
     12 C          -0.0185    8.0142   -0.0030 C.ar    1  LIG1        0.0227
     13 H          -2.0900    7.4313   -0.0035 H       1  LIG1        0.0625
     14 C           1.5770    6.1892   -0.0014 C.ar    1  LIG1       -0.0504
     15 C           1.3090    7.5488   -0.0023 C.ar    1  LIG1       -0.0503
     16 H           2.6085    5.8521   -0.0008 H       1  LIG1        0.0625
     17 H          -1.6121    5.0032   -0.0019 H       1  LIG1        0.0625
     18 H           2.1201    8.2674   -0.0023 H       1  LIG1        0.0625
     19 C          -0.3037    9.4566   -0.0039 C.ar    1  LIG1        0.2033
     20 N          -1.5989    9.8493   -0.0044 N.ar    1  LIG1       -0.1258
     21 C          -0.8007   11.9718   -0.0057 C.ar    1  LIG1        0.1605
     22 N           0.7445   10.3124   -0.0043 N.ar    1  LIG1       -0.1258
     23 N          -1.8525   11.1427   -0.0053 N.ar    1  LIG1       -0.1339
     24 N           0.4872   11.6052   -0.0051 N.ar    1  LIG1       -0.1339
     25 H          -1.0112   13.0361   -0.0061 H       1  LIG1        0.1085
@<TRIPOS>BOND
     1    25    21    1
     2    21    23   ar
     3    21    24   ar
     4    23    20   ar
     5    24    22   ar
     6    20    19   ar
     7    22    19   ar
     8    19    12    1
     9    13    10    1
    10    12    10   ar
    11    12    15   ar
    12    10     9   ar
    13    18    15    1
    14    15    14   ar
    15     9    17    1
    16     9    11   ar
    17    14    11   ar
    18    14    16    1
    19    11     4    1
    20     4     5   ar
    21     4     3   ar
    22     5     1   ar
    23     3     8    1
    24     3     2   ar
    25     1     2   ar
    26     1     6    1
    27     2     7    1
