@<TRIPOS>MOLECULE
mol_data/opt/b3lyp/geoms/mol2/124-.out
 19 20 0 0 0
SMALL
GASTEIGER

@<TRIPOS>ATOM
      1 C           0.2233    1.7520    0.0002 C.ar    1  LIG1        0.0926
      2 C           1.5844    1.7641    0.0005 C.ar    1  LIG1       -0.0233
      3 C           1.9684    3.1407    0.0001 C.ar    1  LIG1       -0.0159
      4 C           0.8114    3.8780   -0.0004 C.ar    1  LIG1        0.1348
      5 O          -0.2635    3.0238   -0.0003 O.2     1  LIG1       -0.4629
      6 H          -0.5153    0.9656    0.0003 H       1  LIG1        0.1029
      7 H           2.2365    0.9025    0.0009 H       1  LIG1        0.0649
      8 H           2.9763    3.5289    0.0001 H       1  LIG1        0.0655
      9 C          -0.7983    5.7810   -0.0016 C.ar    1  LIG1       -0.0511
     10 C          -1.0604    7.1490   -0.0021 C.ar    1  LIG1       -0.0611
     11 C           0.5257    5.3079   -0.0010 C.ar    1  LIG1        0.0172
     12 C          -0.0125    8.0708   -0.0021 C.ar    1  LIG1       -0.0617
     13 H          -2.0898    7.4958   -0.0026 H       1  LIG1        0.0618
     14 C           1.5749    6.2451   -0.0009 C.ar    1  LIG1       -0.0511
     15 C           1.3066    7.6102   -0.0015 C.ar    1  LIG1       -0.0611
     16 H           2.6047    5.9013   -0.0005 H       1  LIG1        0.0625
     17 H          -0.2199    9.1367   -0.0025 H       1  LIG1        0.0618
     18 H          -1.6159    5.0686   -0.0016 H       1  LIG1        0.0625
     19 H           2.1305    8.3181   -0.0015 H       1  LIG1        0.0618
@<TRIPOS>BOND
     1    13    10    1
     2    17    12    1
     3    10    12   ar
     4    10     9   ar
     5    12    15   ar
     6    18     9    1
     7     9    11   ar
     8    15    19    1
     9    15    14   ar
    10    11    14   ar
    11    11     4    1
    12    14    16    1
    13     4     5   ar
    14     4     3   ar
    15     5     1   ar
    16     3     8    1
    17     3     2   ar
    18     1     6    1
    19     1     2   ar
    20     2     7    1
