@<TRIPOS>MOLECULE
mol_data/opt/b3lyp/geoms/mol2/124-812.out
 32 35 0 0 0
SMALL
GASTEIGER

@<TRIPOS>ATOM
      1 C           0.3123    1.6438    0.0014 C.ar    1  LIG1        0.0926
      2 C           1.6742    1.6852    0.0016 C.ar    1  LIG1       -0.0233
      3 C           2.0281    3.0679    0.0007 C.ar    1  LIG1       -0.0159
      4 C           0.8536    3.7803   -0.0001 C.ar    1  LIG1        0.1348
      5 O          -0.2023    2.9027    0.0002 O.2     1  LIG1       -0.4629
      6 H          -0.4077    0.8406    0.0019 H       1  LIG1        0.1029
      7 H           2.3436    0.8373    0.0023 H       1  LIG1        0.0649
      8 H           3.0268    3.4792    0.0007 H       1  LIG1        0.0655
      9 C          -0.7937    5.6496   -0.0021 C.ar    1  LIG1       -0.0504
     10 C          -1.0859    7.0059   -0.0032 C.ar    1  LIG1       -0.0503
     11 C           0.5406    5.2000   -0.0012 C.ar    1  LIG1        0.0173
     12 C          -0.0546    7.9608   -0.0034 C.ar    1  LIG1        0.0227
     13 H          -2.1158    7.3433   -0.0038 H       1  LIG1        0.0625
     14 C           1.5704    6.1610   -0.0015 C.ar    1  LIG1       -0.0504
     15 C           1.2801    7.5162   -0.0026 C.ar    1  LIG1       -0.0503
     16 H           2.6074    5.8409   -0.0008 H       1  LIG1        0.0625
     17 H          -1.5983    4.9233   -0.0019 H       1  LIG1        0.0625
     18 H           2.0796    8.2477   -0.0028 H       1  LIG1        0.0625
     19 C          -0.3638    9.3975   -0.0046 C.ar    1  LIG1        0.2034
     20 N           0.6689   10.2742   -0.0050 N.ar    1  LIG1       -0.1251
     21 C          -0.9067   11.9209   -0.0066 C.ar    1  LIG1        0.2381
     22 N          -1.6620    9.7739   -0.0051 N.ar    1  LIG1       -0.1251
     23 N           0.3965   11.5549   -0.0060 N.ar    1  LIG1       -0.1220
     24 N          -1.9449   11.0565   -0.0061 N.ar    1  LIG1       -0.1220
     25 C          -1.1733   13.3436   -0.0077 C.ar    1  LIG1        0.1751
     26 C          -0.3311   14.4284   -0.0083 C.ar    1  LIG1       -0.0126
     27 C          -1.1662   15.5819   -0.0093 C.ar    1  LIG1       -0.0232
     28 C          -2.4511   15.1174   -0.0092 C.ar    1  LIG1        0.0927
     29 O          -2.4749   13.7622   -0.0083 O.2     1  LIG1       -0.4597
     30 H          -3.4144   15.6033   -0.0097 H       1  LIG1        0.1029
     31 H           0.7473   14.3841   -0.0081 H       1  LIG1        0.0656
     32 H          -0.8566   16.6168   -0.0100 H       1  LIG1        0.0649
@<TRIPOS>BOND
     1    32    27    1
     2    30    28    1
     3    27    28   ar
     4    27    26   ar
     5    28    29   ar
     6    26    31    1
     7    26    25   ar
     8    29    25   ar
     9    25    21    1
    10    21    24   ar
    11    21    23   ar
    12    24    22   ar
    13    23    20   ar
    14    22    19   ar
    15    20    19   ar
    16    19    12    1
    17    13    10    1
    18    12    10   ar
    19    12    15   ar
    20    10     9   ar
    21    18    15    1
    22    15    14   ar
    23     9    17    1
    24     9    11   ar
    25    14    11   ar
    26    14    16    1
    27    11     4    1
    28     4     5   ar
    29     4     3   ar
    30     5     1   ar
    31     8     3    1
    32     3     2   ar
    33     1     2   ar
    34     1     6    1
    35     2     7    1
