@<TRIPOS>MOLECULE
mol_data/opt/b3lyp/geoms/mol2/124-5-12-.out
 33 36 0 0 0
SMALL
GASTEIGER

@<TRIPOS>ATOM
      1 C           0.2446    1.5753    0.0011 C.ar    1  LIG1        0.0926
      2 C           1.6061    1.5966    0.0013 C.ar    1  LIG1       -0.0233
      3 C           1.9819    2.9748    0.0005 C.ar    1  LIG1       -0.0159
      4 C           0.8190    3.7052   -0.0002 C.ar    1  LIG1        0.1348
      5 O          -0.2504    2.8440    0.0002 O.2     1  LIG1       -0.4629
      6 H          -0.4882    0.7841    0.0015 H       1  LIG1        0.1029
      7 H           2.2625    0.7387    0.0020 H       1  LIG1        0.0649
      8 H           2.9869    3.3707    0.0004 H       1  LIG1        0.0655
      9 C          -0.7984    5.6041   -0.0019 C.ar    1  LIG1       -0.0505
     10 C          -1.0708    6.9641   -0.0028 C.ar    1  LIG1       -0.0529
     11 C           0.5263    5.1300   -0.0012 C.ar    1  LIG1        0.0173
     12 C          -0.0374    7.9226   -0.0031 C.ar    1  LIG1       -0.0113
     13 H          -2.1067    7.2862   -0.0034 H       1  LIG1        0.0624
     14 C           1.5626    6.0806   -0.0015 C.ar    1  LIG1       -0.0505
     15 C           1.2865    7.4394   -0.0024 C.ar    1  LIG1       -0.0529
     16 H           2.5974    5.7526   -0.0009 H       1  LIG1        0.0625
     17 H          -1.6160    4.8919   -0.0017 H       1  LIG1        0.0625
     18 H           2.1174    8.1387   -0.0025 H       1  LIG1        0.0624
     19 C          -0.3379    9.3543   -0.0040 C.ar    1  LIG1        0.0200
     20 C          -1.5685    9.9812   -0.0041 C.ar    1  LIG1       -0.0462
     21 C          -1.4984   11.3940   -0.0052 C.ar    1  LIG1       -0.0434
     22 C          -0.2063   11.8775   -0.0060 C.ar    1  LIG1        0.0550
     23 S           0.9429   10.5587   -0.0054 S.2     1  LIG1       -0.0852
     24 H          -2.5083    9.4424   -0.0033 H       1  LIG1        0.0629
     25 H          -2.3700   12.0382   -0.0054 H       1  LIG1        0.0630
     26 C           0.2336   13.2491   -0.0071 C.ar    1  LIG1        0.1413
     27 C          -0.4278   14.4537   -0.0078 C.ar    1  LIG1       -0.0154
     28 C           0.5761   15.4696   -0.0089 C.ar    1  LIG1       -0.0233
     29 C           1.7752   14.8238   -0.0088 C.ar    1  LIG1        0.0926
     30 O           1.5862   13.4734   -0.0077 O.2     1  LIG1       -0.4624
     31 H           2.8014   15.1546   -0.0093 H       1  LIG1        0.1029
     32 H          -1.4987   14.5939   -0.0076 H       1  LIG1        0.0655
     33 H           0.4231   16.5390   -0.0097 H       1  LIG1        0.0649
@<TRIPOS>BOND
     1    33    28    1
     2    31    29    1
     3    28    29   ar
     4    28    27   ar
     5    29    30   ar
     6    27    32    1
     7    27    26   ar
     8    30    26   ar
     9    26    22    1
    10    22    23   ar
    11    22    21   ar
    12    25    21    1
    13    23    19   ar
    14    21    20   ar
    15    20    19   ar
    16    20    24    1
    17    19    12    1
    18    13    10    1
    19    12    10   ar
    20    12    15   ar
    21    10     9   ar
    22    18    15    1
    23    15    14   ar
    24     9    17    1
    25     9    11   ar
    26    14    11   ar
    27    14    16    1
    28    11     4    1
    29     4     5   ar
    30     4     3   ar
    31     5     1   ar
    32     8     3    1
    33     3     2   ar
    34     1     2   ar
    35     1     6    1
    36     2     7    1
