@<TRIPOS>MOLECULE
mol_data/opt/b3lyp/geoms/mol2/124-13.out
 27 29 0 0 0
SMALL
GASTEIGER

@<TRIPOS>ATOM
      1 C           0.2675    1.6537    0.0005 C.ar    1  LIG1        0.0926
      2 C           1.6284    1.6807    0.0010 C.ar    1  LIG1       -0.0233
      3 C           1.9983    3.0612    0.0004 C.ar    1  LIG1       -0.0159
      4 C           0.8331    3.7871   -0.0004 C.ar    1  LIG1        0.1348
      5 O          -0.2332    2.9209   -0.0003 O.2     1  LIG1       -0.4629
      6 H          -0.4625    0.8595    0.0006 H       1  LIG1        0.1029
      7 H           2.2895    0.8263    0.0017 H       1  LIG1        0.0649
      8 H           3.0019    3.4603    0.0006 H       1  LIG1        0.0655
      9 C          -0.7908    5.6798   -0.0020 C.ar    1  LIG1       -0.0505
     10 C          -1.0662    7.0414   -0.0029 C.ar    1  LIG1       -0.0520
     11 C           0.5334    5.2103   -0.0012 C.ar    1  LIG1        0.0173
     12 C          -0.0393    8.0044   -0.0028 C.ar    1  LIG1       -0.0017
     13 H          -2.1091    7.3465   -0.0037 H       1  LIG1        0.0624
     14 C           1.5661    6.1672   -0.0011 C.ar    1  LIG1       -0.0505
     15 C           1.2866    7.5242   -0.0019 C.ar    1  LIG1       -0.0520
     16 H           2.6020    5.8420   -0.0004 H       1  LIG1        0.0625
     17 H          -1.6071    4.9660   -0.0021 H       1  LIG1        0.0625
     18 H           2.1108    8.2300   -0.0018 H       1  LIG1        0.0624
     19 C          -0.3071    9.4392   -0.0037 C.ar    1  LIG1        0.0465
     20 C           0.5584   10.5288   -0.0044 C.ar    1  LIG1       -0.0364
     21 C          -0.2185   11.7140   -0.0053 C.ar    1  LIG1       -0.0438
     22 C          -1.5450   11.3336   -0.0046 C.ar    1  LIG1        0.0022
     23 N          -1.5872    9.9636   -0.0038 N.ar    1  LIG1       -0.3607
     24 H          -2.4331    9.4189   -0.0036 H       1  LIG1        0.1653
     25 H          -2.4515   11.9202   -0.0047 H       1  LIG1        0.0807
     26 H           1.6374   10.4754   -0.0045 H       1  LIG1        0.0639
     27 H           0.1497   12.7299   -0.0061 H       1  LIG1        0.0633
@<TRIPOS>BOND
     1    27    21    1
     2    21    22   ar
     3    21    20   ar
     4    25    22    1
     5    22    23   ar
     6    26    20    1
     7    20    19   ar
     8    23    19   ar
     9    23    24    1
    10    19    12    1
    11    13    10    1
    12    10    12   ar
    13    10     9   ar
    14    12    15   ar
    15    17     9    1
    16     9    11   ar
    17    15    18    1
    18    15    14   ar
    19    11    14   ar
    20    11     4    1
    21    14    16    1
    22     4     5   ar
    23     4     3   ar
    24     5     1   ar
    25     3     8    1
    26     3     2   ar
    27     1     6    1
    28     1     2   ar
    29     2     7    1
