@<TRIPOS>MOLECULE
mol_data/opt/b3lyp/geoms/mol2/124-5.out
 26 28 0 0 0
SMALL
GASTEIGER

@<TRIPOS>ATOM
      1 C           0.2346    1.6633    0.0010 C.ar    1  LIG1        0.0926
      2 C           1.5962    1.6730    0.0012 C.ar    1  LIG1       -0.0233
      3 C           1.9834    3.0481    0.0006 C.ar    1  LIG1       -0.0159
      4 C           0.8269    3.7881   -0.0003 C.ar    1  LIG1        0.1348
      5 O          -0.2497    2.9360   -0.0001 O.2     1  LIG1       -0.4629
      6 H          -0.5050    0.8782    0.0013 H       1  LIG1        0.1029
      7 H           2.2456    0.8096    0.0019 H       1  LIG1        0.0649
      8 H           2.9917    3.4352    0.0007 H       1  LIG1        0.0655
      9 C          -0.7731    5.7008   -0.0022 C.ar    1  LIG1       -0.0505
     10 C          -1.0306    7.0652   -0.0031 C.ar    1  LIG1       -0.0529
     11 C           0.5458    5.2155   -0.0012 C.ar    1  LIG1        0.0173
     12 C           0.0095    8.0127   -0.0032 C.ar    1  LIG1       -0.0113
     13 H          -2.0644    7.3979   -0.0039 H       1  LIG1        0.0624
     14 C           1.5915    6.1572   -0.0013 C.ar    1  LIG1       -0.0505
     15 C           1.3297    7.5184   -0.0022 C.ar    1  LIG1       -0.0529
     16 H           2.6230    5.8187   -0.0005 H       1  LIG1        0.0625
     17 H          -1.5981    4.9975   -0.0022 H       1  LIG1        0.0625
     18 H           2.1655    8.2095   -0.0021 H       1  LIG1        0.0624
     19 C          -0.2525    9.4551   -0.0042 C.ar    1  LIG1        0.0193
     20 C           0.6486   10.4988   -0.0055 C.ar    1  LIG1       -0.0469
     21 C           0.0425   11.7864   -0.0062 C.ar    1  LIG1       -0.0541
     22 C          -1.3235   11.7295   -0.0055 C.ar    1  LIG1       -0.0237
     23 S          -1.8907   10.0922   -0.0040 S.2     1  LIG1       -0.0967
     24 H          -2.0324   12.5456   -0.0058 H       1  LIG1        0.0693
     25 H           1.7222   10.3543   -0.0060 H       1  LIG1        0.0629
     26 H           0.6016   12.7152   -0.0072 H       1  LIG1        0.0623
@<TRIPOS>BOND
     1    26    21    1
     2    21    20   ar
     3    21    22   ar
     4    25    20    1
     5    24    22    1
     6    20    19   ar
     7    22    23   ar
     8    19    23   ar
     9    19    12    1
    10    13    10    1
    11    12    10   ar
    12    12    15   ar
    13    10     9   ar
    14    15    18    1
    15    15    14   ar
    16     9    17    1
    17     9    11   ar
    18    14    11   ar
    19    14    16    1
    20    11     4    1
    21     4     5   ar
    22     4     3   ar
    23     5     1   ar
    24     3     8    1
    25     3     2   ar
    26     1     2   ar
    27     1     6    1
    28     2     7    1
