@<TRIPOS>MOLECULE
mol_data/opt/b3lyp/geoms/mol2/124-85.out
 32 35 0 0 0
SMALL
GASTEIGER

@<TRIPOS>ATOM
      1 C           0.2474    1.6362    0.0016 C.ar    1  LIG1        0.0926
      2 C           1.6098    1.6523    0.0017 C.ar    1  LIG1       -0.0233
      3 C           1.9892    3.0281    0.0008 C.ar    1  LIG1       -0.0159
      4 C           0.8281    3.7622   -0.0000 C.ar    1  LIG1        0.1348
      5 O          -0.2439    2.9043    0.0004 O.2     1  LIG1       -0.4629
      6 H          -0.4874    0.8465    0.0022 H       1  LIG1        0.1029
      7 H           2.2633    0.7921    0.0024 H       1  LIG1        0.0649
      8 H           2.9953    3.4208    0.0007 H       1  LIG1        0.0655
      9 C          -0.7840    5.6620   -0.0020 C.ar    1  LIG1       -0.0504
     10 C          -1.0507    7.0236   -0.0031 C.ar    1  LIG1       -0.0503
     11 C           0.5416    5.1874   -0.0012 C.ar    1  LIG1        0.0173
     12 C          -0.0016    7.9589   -0.0035 C.ar    1  LIG1        0.0227
     13 H          -2.0742    7.3797   -0.0037 H       1  LIG1        0.0625
     14 C           1.5893    6.1290   -0.0016 C.ar    1  LIG1       -0.0504
     15 C           1.3244    7.4893   -0.0027 C.ar    1  LIG1       -0.0503
     16 H           2.6201    5.7896   -0.0009 H       1  LIG1        0.0625
     17 H          -1.6020    4.9509   -0.0018 H       1  LIG1        0.0625
     18 H           2.1375    8.2058   -0.0030 H       1  LIG1        0.0625
     19 C          -0.2833    9.4012   -0.0047 C.ar    1  LIG1        0.2034
     20 N           0.7648   10.2582   -0.0052 N.ar    1  LIG1       -0.1252
     21 C          -0.7741   11.9405   -0.0068 C.ar    1  LIG1        0.2099
     22 N          -1.5745    9.8028   -0.0052 N.ar    1  LIG1       -0.1252
     23 N           0.5207   11.5458   -0.0063 N.ar    1  LIG1       -0.1247
     24 N          -1.8242   11.0895   -0.0063 N.ar    1  LIG1       -0.1247
     25 C          -1.0519   13.3630   -0.0080 C.ar    1  LIG1        0.0598
     26 C          -0.1423   14.3992   -0.0088 C.ar    1  LIG1       -0.0438
     27 C          -0.7622   15.6758   -0.0098 C.ar    1  LIG1       -0.0540
     28 C          -2.1319   15.5945   -0.0098 C.ar    1  LIG1       -0.0236
     29 S          -2.6956   13.9596   -0.0086 S.2     1  LIG1       -0.0934
     30 H          -2.8456   16.4072   -0.0105 H       1  LIG1        0.0693
     31 H           0.9267   14.2262   -0.0086 H       1  LIG1        0.0630
     32 H          -0.2185   16.6132   -0.0106 H       1  LIG1        0.0623
@<TRIPOS>BOND
     1    32    27    1
     2    30    28    1
     3    28    27   ar
     4    28    29   ar
     5    27    26   ar
     6    26    31    1
     7    26    25   ar
     8    29    25   ar
     9    25    21    1
    10    21    24   ar
    11    21    23   ar
    12    24    22   ar
    13    23    20   ar
    14    20    19   ar
    15    22    19   ar
    16    19    12    1
    17    13    10    1
    18    12    10   ar
    19    12    15   ar
    20    10     9   ar
    21    18    15    1
    22    15    14   ar
    23     9    17    1
    24     9    11   ar
    25    14    11   ar
    26    14    16    1
    27    11     4    1
    28     4     5   ar
    29     4     3   ar
    30     5     1   ar
    31     8     3    1
    32     3     2   ar
    33     1     2   ar
    34     1     6    1
    35     2     7    1
