@<TRIPOS>MOLECULE
mol_data/opt/b3lyp/geoms/mol2/124-12.out
 26 28 0 0 0
SMALL
GASTEIGER

@<TRIPOS>ATOM
      1 C           0.2672    1.6768    0.0009 C.ar    1  LIG1        0.0926
      2 C           1.6285    1.7067    0.0010 C.ar    1  LIG1       -0.0233
      3 C           1.9954    3.0875    0.0004 C.ar    1  LIG1       -0.0159
      4 C           0.8281    3.8104   -0.0003 C.ar    1  LIG1        0.1348
      5 O          -0.2357    2.9424   -0.0001 O.2     1  LIG1       -0.4629
      6 H          -0.4608    0.8810    0.0012 H       1  LIG1        0.1029
      7 H           2.2906    0.8530    0.0016 H       1  LIG1        0.0649
      8 H           2.9979    3.4893    0.0004 H       1  LIG1        0.0655
      9 C          -0.8006    5.6993   -0.0021 C.ar    1  LIG1       -0.0504
     10 C          -1.0814    7.0594   -0.0029 C.ar    1  LIG1       -0.0504
     11 C           0.5263    5.2340   -0.0013 C.ar    1  LIG1        0.0173
     12 C          -0.0473    8.0121   -0.0031 C.ar    1  LIG1        0.0173
     13 H          -2.1120    7.3959   -0.0036 H       1  LIG1        0.0625
     14 C           1.5614    6.1884   -0.0014 C.ar    1  LIG1       -0.0504
     15 C           1.2812    7.5457   -0.0022 C.ar    1  LIG1       -0.0504
     16 H           2.5967    5.8619   -0.0007 H       1  LIG1        0.0625
     17 H          -1.6135    4.9821   -0.0020 H       1  LIG1        0.0625
     18 H           2.1024    8.2555   -0.0023 H       1  LIG1        0.0625
     19 C          -0.3339    9.4388   -0.0040 C.ar    1  LIG1        0.1348
     20 C           0.4517   10.5649   -0.0046 C.ar    1  LIG1       -0.0159
     21 C          -0.4320   11.6876   -0.0054 C.ar    1  LIG1       -0.0233
     22 C          -1.6938   11.1759   -0.0053 C.ar    1  LIG1        0.0926
     23 O          -1.6544    9.8147   -0.0045 O.2     1  LIG1       -0.4629
     24 H          -2.6775   11.6184   -0.0057 H       1  LIG1        0.1029
     25 H           1.5314   10.5930   -0.0044 H       1  LIG1        0.0655
     26 H          -0.1621   12.7337   -0.0060 H       1  LIG1        0.0649
@<TRIPOS>BOND
     1    26    21    1
     2    24    22    1
     3    21    22   ar
     4    21    20   ar
     5    22    23   ar
     6    20    25    1
     7    20    19   ar
     8    23    19   ar
     9    19    12    1
    10    13    10    1
    11    12    10   ar
    12    12    15   ar
    13    10     9   ar
    14    18    15    1
    15    15    14   ar
    16     9    17    1
    17     9    11   ar
    18    14    11   ar
    19    14    16    1
    20    11     4    1
    21     4     5   ar
    22     4     3   ar
    23     5     1   ar
    24     3     8    1
    25     3     2   ar
    26     1     2   ar
    27     1     6    1
    28     2     7    1
