@<TRIPOS>MOLECULE
mol_data/opt/b3lyp/geoms/mol2/124-13-.out
 27 29 0 0 0
SMALL
GASTEIGER

@<TRIPOS>ATOM
      1 C           0.2334    1.6606    0.0006 C.ar    1  LIG1        0.0926
      2 C           1.5948    1.6697    0.0015 C.ar    1  LIG1       -0.0233
      3 C           1.9832    3.0448    0.0007 C.ar    1  LIG1       -0.0159
      4 C           0.8273    3.7858   -0.0002 C.ar    1  LIG1        0.1348
      5 O          -0.2498    2.9345   -0.0003 O.2     1  LIG1       -0.4629
      6 H          -0.5072    0.8764    0.0006 H       1  LIG1        0.1029
      7 H           2.2436    0.8059    0.0025 H       1  LIG1        0.0649
      8 H           2.9918    3.4309    0.0010 H       1  LIG1        0.0655
      9 C          -0.7739    5.7008   -0.0023 C.ar    1  LIG1       -0.0505
     10 C          -1.0334    7.0630   -0.0033 C.ar    1  LIG1       -0.0520
     11 C           0.5463    5.2137   -0.0013 C.ar    1  LIG1        0.0173
     12 C           0.0061    8.0140   -0.0032 C.ar    1  LIG1       -0.0017
     13 H          -2.0648    7.3998   -0.0043 H       1  LIG1        0.0624
     14 C           1.5894    6.1554   -0.0012 C.ar    1  LIG1       -0.0505
     15 C           1.3249    7.5179   -0.0021 C.ar    1  LIG1       -0.0520
     16 H           2.6215    5.8184   -0.0003 H       1  LIG1        0.0625
     17 H          -1.5983    4.9966   -0.0025 H       1  LIG1        0.0625
     18 H           2.1718    8.1987   -0.0018 H       1  LIG1        0.0624
     19 C          -0.2947    9.4426   -0.0042 C.ar    1  LIG1        0.0465
     20 C          -1.5119   10.1171   -0.0044 C.ar    1  LIG1       -0.0364
     21 C          -1.2483   11.5093   -0.0052 C.ar    1  LIG1       -0.0438
     22 C           0.1226   11.6668   -0.0064 C.ar    1  LIG1        0.0022
     23 N           0.6868   10.4175   -0.0054 N.ar    1  LIG1       -0.3607
     24 H           1.6771   10.2397   -0.0057 H       1  LIG1        0.1653
     25 H           0.7352   12.5559   -0.0075 H       1  LIG1        0.0807
     26 H          -2.4879    9.6541   -0.0036 H       1  LIG1        0.0639
     27 H          -1.9778   12.3066   -0.0053 H       1  LIG1        0.0633
@<TRIPOS>BOND
     1    25    22    1
     2    22    23   ar
     3    22    21   ar
     4    24    23    1
     5    23    19   ar
     6    27    21    1
     7    21    20   ar
     8    20    19   ar
     9    20    26    1
    10    13    10    1
    11    19    12    1
    12    10    12   ar
    13    10     9   ar
    14    12    15   ar
    15    17     9    1
    16     9    11   ar
    17    15    18    1
    18    15    14   ar
    19    11    14   ar
    20    11     4    1
    21    14    16    1
    22     5     4   ar
    23     5     1   ar
    24     4     3   ar
    25     1     6    1
    26     1     2   ar
    27     3     8    1
    28     3     2   ar
    29     2     7    1
