@<TRIPOS>MOLECULE
mol_data/opt/b3lyp/geoms/mol2/124-128-.out
 32 35 0 0 0
SMALL
GASTEIGER

@<TRIPOS>ATOM
      1 C           0.4131    1.5982    0.0009 C.ar    1  LIG1        0.0926
      2 C           1.7739    1.6618    0.0013 C.ar    1  LIG1       -0.0233
      3 C           2.1055    3.0506    0.0007 C.ar    1  LIG1       -0.0159
      4 C           0.9198    3.7438   -0.0002 C.ar    1  LIG1        0.1348
      5 O          -0.1216    2.8493   -0.0002 O.2     1  LIG1       -0.4629
      6 H          -0.2942    0.7838    0.0012 H       1  LIG1        0.1029
      7 H           2.4572    0.8251    0.0020 H       1  LIG1        0.0649
      8 H           3.0978    3.4772    0.0008 H       1  LIG1        0.0655
      9 C          -0.7596    5.5849   -0.0022 C.ar    1  LIG1       -0.0504
     10 C          -1.0784    6.9354   -0.0031 C.ar    1  LIG1       -0.0504
     11 C           0.5812    5.1576   -0.0012 C.ar    1  LIG1        0.0173
     12 C          -0.0671    7.9135   -0.0031 C.ar    1  LIG1        0.0173
     13 H          -2.1173    7.2457   -0.0039 H       1  LIG1        0.0625
     14 C           1.5919    6.1387   -0.0012 C.ar    1  LIG1       -0.0504
     15 C           1.2750    7.4873   -0.0021 C.ar    1  LIG1       -0.0504
     16 H           2.6352    5.8399   -0.0004 H       1  LIG1        0.0625
     17 H          -1.5516    4.8449   -0.0022 H       1  LIG1        0.0625
     18 H           2.0762    8.2196   -0.0021 H       1  LIG1        0.0625
     19 C          -0.3953    9.3282   -0.0041 C.ar    1  LIG1        0.1358
     20 C           0.3669   10.4810   -0.0046 C.ar    1  LIG1       -0.0151
     21 C          -0.5368   11.5690   -0.0055 C.ar    1  LIG1       -0.0120
     22 C          -1.8007   11.0250   -0.0056 C.ar    1  LIG1        0.1760
     23 O          -1.7166    9.6611   -0.0047 O.2     1  LIG1       -0.4516
     24 H           1.4452   10.5362   -0.0043 H       1  LIG1        0.0656
     25 H          -0.3103   12.6245   -0.0061 H       1  LIG1        0.0657
     26 C          -3.1086   11.6338   -0.0064 C.ar    1  LIG1        0.2381
     27 N          -4.2015   10.8344   -0.0066 N.ar    1  LIG1       -0.1226
     28 C          -5.3942   12.7692   -0.0080 C.ar    1  LIG1        0.1605
     29 N          -3.1366   12.9904   -0.0070 N.ar    1  LIG1       -0.1226
     30 N          -5.3791   11.4308   -0.0074 N.ar    1  LIG1       -0.1338
     31 N          -4.3168   13.5701   -0.0078 N.ar    1  LIG1       -0.1338
     32 H          -6.3656   13.2521   -0.0084 H       1  LIG1        0.1085
@<TRIPOS>BOND
     1    32    28    1
     2    28    31   ar
     3    28    30   ar
     4    31    29   ar
     5    30    27   ar
     6    29    26   ar
     7    27    26   ar
     8    26    22    1
     9    25    21    1
    10    22    21   ar
    11    22    23   ar
    12    21    20   ar
    13    23    19   ar
    14    20    24    1
    15    20    19   ar
    16    19    12    1
    17    13    10    1
    18    10    12   ar
    19    10     9   ar
    20    12    15   ar
    21    17     9    1
    22     9    11   ar
    23    15    18    1
    24    15    14   ar
    25    11    14   ar
    26    11     4    1
    27    14    16    1
    28     4     5   ar
    29     4     3   ar
    30     5     1   ar
    31     3     8    1
    32     3     2   ar
    33     1     6    1
    34     1     2   ar
    35     2     7    1
