@<TRIPOS>MOLECULE
mol_data/opt/b3lyp/geoms/mol2/124.out
 19 20 0 0 0
SMALL
GASTEIGER

@<TRIPOS>ATOM
      1 C           0.2530    1.7417   -0.0005 C.ar    1  LIG1        0.0926
      2 C           1.6138    1.7754   -0.0004 C.ar    1  LIG1       -0.0233
      3 C           1.9758    3.1579    0.0001 C.ar    1  LIG1       -0.0159
      4 C           0.8070    3.8767    0.0003 C.ar    1  LIG1        0.1348
      5 O          -0.2540    3.0056   -0.0001 O.2     1  LIG1       -0.4629
      6 H          -0.4729    0.9435   -0.0009 H       1  LIG1        0.1029
      7 H           2.2793    0.9242   -0.0006 H       1  LIG1        0.0649
      8 H           2.9771    3.5623    0.0004 H       1  LIG1        0.0655
      9 C           1.5327    6.2558    0.0013 C.ar    1  LIG1       -0.0511
     10 C           1.2424    7.6166    0.0019 C.ar    1  LIG1       -0.0611
     11 C           0.4988    5.3019    0.0008 C.ar    1  LIG1        0.0172
     12 C          -0.0837    8.0558    0.0018 C.ar    1  LIG1       -0.0617
     13 H           2.0548    8.3376    0.0023 H       1  LIG1        0.0618
     14 C          -0.8328    5.7536    0.0008 C.ar    1  LIG1       -0.0511
     15 C          -1.1168    7.1171    0.0013 C.ar    1  LIG1       -0.0611
     16 H          -1.6386    5.0283    0.0004 H       1  LIG1        0.0625
     17 H          -0.3084    9.1182    0.0022 H       1  LIG1        0.0618
     18 H           2.5680    5.9287    0.0014 H       1  LIG1        0.0625
     19 H          -2.1517    7.4475    0.0013 H       1  LIG1        0.0618
@<TRIPOS>BOND
     1     6     1    1
     2     7     2    1
     3     1     2   ar
     4     1     5   ar
     5     2     3   ar
     6     5     4   ar
     7     3     4   ar
     8     3     8    1
     9     4    11    1
    10    16    14    1
    11    14    11   ar
    12    14    15   ar
    13    11     9   ar
    14    19    15    1
    15    15    12   ar
    16     9    18    1
    17     9    10   ar
    18    12    10   ar
    19    12    17    1
    20    10    13    1
