@<TRIPOS>MOLECULE
mol_data/opt/b3lyp/geoms/mol2/12413-.out
 27 29 0 0 0
SMALL
GASTEIGER

@<TRIPOS>ATOM
      1 C           0.2707    1.6488   -0.0012 C.ar    1  LIG1        0.0926
      2 C           1.6316    1.6832   -0.0008 C.ar    1  LIG1       -0.0233
      3 C           1.9937    3.0656    0.0000 C.ar    1  LIG1       -0.0159
      4 C           0.8244    3.7851    0.0003 C.ar    1  LIG1        0.1348
      5 O          -0.2367    2.9131   -0.0004 O.2     1  LIG1       -0.4629
      6 H          -0.4549    0.8506   -0.0018 H       1  LIG1        0.1029
      7 H           2.2973    0.8323   -0.0012 H       1  LIG1        0.0649
      8 H           2.9952    3.4701    0.0004 H       1  LIG1        0.0655
      9 C           1.5408    6.1682    0.0019 C.ar    1  LIG1       -0.0505
     10 C           1.2505    7.5254    0.0027 C.ar    1  LIG1       -0.0520
     11 C           0.5159    5.2065    0.0011 C.ar    1  LIG1        0.0173
     12 C          -0.0775    7.9965    0.0026 C.ar    1  LIG1       -0.0017
     13 H           2.0843    8.2221    0.0035 H       1  LIG1        0.0624
     14 C          -0.8134    5.6687    0.0010 C.ar    1  LIG1       -0.0505
     15 C          -1.0987    7.0258    0.0017 C.ar    1  LIG1       -0.0520
     16 H          -1.6244    4.9490    0.0003 H       1  LIG1        0.0625
     17 H           2.5792    5.8506    0.0020 H       1  LIG1        0.0625
     18 H          -2.1365    7.3429    0.0016 H       1  LIG1        0.0624
     19 C          -0.4055    9.4188    0.0035 C.ar    1  LIG1        0.0465
     20 C          -1.6351   10.0704    0.0044 C.ar    1  LIG1       -0.0364
     21 C          -1.3983   11.4676    0.0052 C.ar    1  LIG1       -0.0438
     22 C          -0.0306   11.6507    0.0042 C.ar    1  LIG1        0.0022
     23 N           0.5572   10.4124    0.0034 N.ar    1  LIG1       -0.3607
     24 H           1.5506   10.2532    0.0029 H       1  LIG1        0.1653
     25 H           0.5648   12.5515    0.0041 H       1  LIG1        0.0807
     26 H          -2.6021    9.5889    0.0047 H       1  LIG1        0.0639
     27 H          -2.1430   12.2506    0.0061 H       1  LIG1        0.0633
@<TRIPOS>BOND
     1     6     1    1
     2     7     2    1
     3     1     2   ar
     4     1     5   ar
     5     2     3   ar
     6     5     4   ar
     7     3     4   ar
     8     3     8    1
     9     4    11    1
    10    16    14    1
    11    14    11   ar
    12    14    15   ar
    13    11     9   ar
    14    18    15    1
    15    15    12   ar
    16     9    17    1
    17     9    10   ar
    18    12    10   ar
    19    12    19    1
    20    10    13    1
    21    24    23    1
    22    23    19   ar
    23    23    22   ar
    24    19    20   ar
    25    25    22    1
    26    22    21   ar
    27    20    26    1
    28    20    21   ar
    29    21    27    1
