@<TRIPOS>MOLECULE
mol_data/opt/b3lyp/geoms/mol2/12413-4-.out
 37 40 0 0 0
SMALL
GASTEIGER

@<TRIPOS>ATOM
      1 C           0.2035    1.5326   -0.0012 C.ar    1  LIG1        0.0926
      2 C           1.5648    1.5532   -0.0008 C.ar    1  LIG1       -0.0233
      3 C           1.9417    2.9314    0.0002 C.ar    1  LIG1       -0.0159
      4 C           0.7794    3.6627    0.0003 C.ar    1  LIG1        0.1348
      5 O          -0.2904    2.8022   -0.0005 O.2     1  LIG1       -0.4629
      6 H          -0.5302    0.7422   -0.0018 H       1  LIG1        0.1029
      7 H           2.2210    0.6951   -0.0012 H       1  LIG1        0.0649
      8 H           2.9471    3.3258    0.0007 H       1  LIG1        0.0655
      9 C           1.5220    6.0383    0.0020 C.ar    1  LIG1       -0.0505
     10 C           1.2463    7.3981    0.0028 C.ar    1  LIG1       -0.0520
     11 C           0.4865    5.0876    0.0011 C.ar    1  LIG1        0.0173
     12 C          -0.0772    7.8825    0.0027 C.ar    1  LIG1       -0.0017
     13 H           2.0874    8.0859    0.0036 H       1  LIG1        0.0624
     14 C          -0.8382    5.5632    0.0010 C.ar    1  LIG1       -0.0505
     15 C          -1.1095    6.9228    0.0017 C.ar    1  LIG1       -0.0520
     16 H          -1.6565    4.8519    0.0003 H       1  LIG1        0.0625
     17 H           2.5567    5.7096    0.0022 H       1  LIG1        0.0625
     18 H          -2.1436    7.2508    0.0015 H       1  LIG1        0.0624
     19 C          -0.3902    9.3065    0.0035 C.ar    1  LIG1        0.0469
     20 C          -1.6165    9.9693    0.0044 C.ar    1  LIG1       -0.0358
     21 C          -1.3661   11.3556    0.0049 C.ar    1  LIG1       -0.0358
     22 C           0.0141   11.5474    0.0042 C.ar    1  LIG1        0.0469
     23 N           0.5780   10.2892    0.0033 N.ar    1  LIG1       -0.3542
     24 H           1.5677   10.1112    0.0026 H       1  LIG1        0.1659
     25 H          -2.5887    9.4986    0.0049 H       1  LIG1        0.0639
     26 H          -2.1124   12.1364    0.0057 H       1  LIG1        0.0639
     27 C           0.1685   14.0308    0.0042 C.ar    1  LIG1       -0.0526
     28 C           0.9033   15.2114    0.0043 C.ar    1  LIG1       -0.0611
     29 C           0.8072   12.7747    0.0042 C.ar    1  LIG1       -0.0017
     30 C           2.3000   15.1781    0.0043 C.ar    1  LIG1       -0.0617
     31 H           0.3820   16.1644    0.0042 H       1  LIG1        0.0618
     32 C           2.2152   12.7598    0.0043 C.ar    1  LIG1       -0.0526
     33 C           2.9494   13.9436    0.0043 C.ar    1  LIG1       -0.0611
     34 H           2.7585   11.8186    0.0044 H       1  LIG1        0.0624
     35 H           2.8726   16.1005    0.0044 H       1  LIG1        0.0618
     36 H          -0.9153   14.0788    0.0041 H       1  LIG1        0.0624
     37 H           4.0347   13.8986    0.0044 H       1  LIG1        0.0618
@<TRIPOS>BOND
     1     6     1    1
     2     7     2    1
     3     1     2   ar
     4     1     5   ar
     5     2     3   ar
     6     5     4   ar
     7     3     4   ar
     8     3     8    1
     9    16    14    1
    10     4    11    1
    11    14    11   ar
    12    14    15   ar
    13    11     9   ar
    14    18    15    1
    15    15    12   ar
    16     9    17    1
    17     9    10   ar
    18    24    23    1
    19    12    10   ar
    20    12    19    1
    21    10    13    1
    22    23    19   ar
    23    23    22   ar
    24    19    20   ar
    25    36    27    1
    26    22    29    1
    27    22    21   ar
    28    27    29   ar
    29    27    28   ar
    30    29    32   ar
    31    31    28    1
    32    28    30   ar
    33    32    33   ar
    34    32    34    1
    35    30    33   ar
    36    30    35    1
    37    33    37    1
    38    20    21   ar
    39    20    25    1
    40    21    26    1
