@<TRIPOS>MOLECULE
mol_data/opt/b3lyp/geoms/mol2/12413.out
 27 29 0 0 0
SMALL
GASTEIGER

@<TRIPOS>ATOM
      1 C           0.3047    1.6420   -0.0016 C.ar    1  LIG1        0.0926
      2 C           1.6649    1.6953   -0.0011 C.ar    1  LIG1       -0.0233
      3 C           2.0087    3.0824   -0.0001 C.ar    1  LIG1       -0.0159
      4 C           0.8294    3.7854    0.0002 C.ar    1  LIG1        0.1348
      5 O          -0.2198    2.8997   -0.0007 O.2     1  LIG1       -0.4629
      6 H          -0.4100    0.8341   -0.0025 H       1  LIG1        0.1029
      7 H           2.3415    0.8530   -0.0015 H       1  LIG1        0.0649
      8 H           3.0041    3.5012    0.0004 H       1  LIG1        0.0655
      9 C           1.5176    6.1797    0.0021 C.ar    1  LIG1       -0.0505
     10 C           1.2124    7.5311    0.0031 C.ar    1  LIG1       -0.0520
     11 C           0.5033    5.2035    0.0011 C.ar    1  LIG1        0.0173
     12 C          -0.1224    7.9859    0.0030 C.ar    1  LIG1       -0.0017
     13 H           2.0227    8.2525    0.0039 H       1  LIG1        0.0624
     14 C          -0.8295    5.6475    0.0011 C.ar    1  LIG1       -0.0505
     15 C          -1.1308    7.0036    0.0020 C.ar    1  LIG1       -0.0520
     16 H          -1.6320    4.9183    0.0003 H       1  LIG1        0.0625
     17 H           2.5595    5.8744    0.0022 H       1  LIG1        0.0625
     18 H          -2.1795    7.2888    0.0018 H       1  LIG1        0.0624
     19 C          -0.4178    9.4155    0.0040 C.ar    1  LIG1        0.0465
     20 C           0.4271   10.5213    0.0043 C.ar    1  LIG1       -0.0364
     21 C          -0.3726   11.6911    0.0050 C.ar    1  LIG1       -0.0438
     22 C          -1.6917   11.2856    0.0060 C.ar    1  LIG1        0.0022
     23 N          -1.7076    9.9151    0.0050 N.ar    1  LIG1       -0.3607
     24 H          -2.5431    9.3544    0.0051 H       1  LIG1        0.1653
     25 H          -2.6093   11.8546    0.0069 H       1  LIG1        0.0807
     26 H           1.5069   10.4886    0.0037 H       1  LIG1        0.0639
     27 H          -0.0241   12.7139    0.0052 H       1  LIG1        0.0633
@<TRIPOS>BOND
     1     6     1    1
     2     1     2   ar
     3     1     5   ar
     4     7     2    1
     5     2     3   ar
     6     5     4   ar
     7     3     4   ar
     8     3     8    1
     9     4    11    1
    10    16    14    1
    11    14    11   ar
    12    14    15   ar
    13    11     9   ar
    14    18    15    1
    15    15    12   ar
    16     9    17    1
    17     9    10   ar
    18    12    10   ar
    19    12    19    1
    20    10    13    1
    21    26    20    1
    22    19    20   ar
    23    19    23   ar
    24    20    21   ar
    25    23    24    1
    26    23    22   ar
    27    21    27    1
    28    21    22   ar
    29    22    25    1
