@<TRIPOS>MOLECULE
mol_data/opt/b3lyp/geoms/mol2/12413-5.out
 34 37 0 0 0
SMALL
GASTEIGER

@<TRIPOS>ATOM
      1 C           0.2132    1.5578   -0.0015 C.ar    1  LIG1        0.0926
      2 C           1.5746    1.5788   -0.0010 C.ar    1  LIG1       -0.0233
      3 C           1.9511    2.9571    0.0001 C.ar    1  LIG1       -0.0159
      4 C           0.7885    3.6879    0.0002 C.ar    1  LIG1        0.1348
      5 O          -0.2810    2.8273   -0.0008 O.2     1  LIG1       -0.4629
      6 H          -0.5202    0.7671   -0.0023 H       1  LIG1        0.1029
      7 H           2.2307    0.7206   -0.0014 H       1  LIG1        0.0649
      8 H           2.9564    3.3521    0.0008 H       1  LIG1        0.0655
      9 C           1.5311    6.0637    0.0022 C.ar    1  LIG1       -0.0505
     10 C           1.2550    7.4234    0.0030 C.ar    1  LIG1       -0.0520
     11 C           0.4956    5.1128    0.0011 C.ar    1  LIG1        0.0173
     12 C          -0.0686    7.9075    0.0028 C.ar    1  LIG1       -0.0017
     13 H           2.0959    8.1115    0.0040 H       1  LIG1        0.0624
     14 C          -0.8292    5.5883    0.0009 C.ar    1  LIG1       -0.0505
     15 C          -1.1009    6.9477    0.0017 C.ar    1  LIG1       -0.0520
     16 H          -1.6473    4.8767    0.0000 H       1  LIG1        0.0625
     17 H           2.5657    5.7350    0.0025 H       1  LIG1        0.0625
     18 H          -2.1353    7.2752    0.0014 H       1  LIG1        0.0624
     19 C          -0.3808    9.3311    0.0036 C.ar    1  LIG1        0.0469
     20 C          -1.6072    9.9943    0.0045 C.ar    1  LIG1       -0.0358
     21 C          -1.3592   11.3811    0.0051 C.ar    1  LIG1       -0.0353
     22 C           0.0209   11.5692    0.0046 C.ar    1  LIG1        0.0536
     23 N           0.5896   10.3132    0.0037 N.ar    1  LIG1       -0.3537
     24 H           1.5808   10.1419    0.0032 H       1  LIG1        0.1659
     25 H          -2.5790    9.5231    0.0048 H       1  LIG1        0.0639
     26 H          -2.0993   12.1687    0.0058 H       1  LIG1        0.0639
     27 C           0.8191   12.7741    0.0049 C.ar    1  LIG1        0.0355
     28 C           2.1921   12.9152    0.0043 C.ar    1  LIG1       -0.0455
     29 C           2.6259   14.2718    0.0048 C.ar    1  LIG1       -0.0541
     30 C           1.5900   15.1628    0.0057 C.ar    1  LIG1       -0.0237
     31 S           0.0532   14.3525    0.0059 S.2     1  LIG1       -0.0952
     32 H           1.6282   16.2427    0.0063 H       1  LIG1        0.0693
     33 H           2.8810   12.0774    0.0036 H       1  LIG1        0.0629
     34 H           3.6683   14.5692    0.0046 H       1  LIG1        0.0623
@<TRIPOS>BOND
     1     6     1    1
     2     1     2   ar
     3     1     5   ar
     4     7     2    1
     5     2     3   ar
     6     5     4   ar
     7    16    14    1
     8     3     4   ar
     9     3     8    1
    10     4    11    1
    11    14    11   ar
    12    14    15   ar
    13    11     9   ar
    14    18    15    1
    15    15    12   ar
    16     9    17    1
    17     9    10   ar
    18    12    10   ar
    19    12    19    1
    20    10    13    1
    21    24    23    1
    22    33    28    1
    23    19    23   ar
    24    19    20   ar
    25    23    22   ar
    26    28    29   ar
    27    28    27   ar
    28    20    25    1
    29    20    21   ar
    30    34    29    1
    31    22    27    1
    32    22    21   ar
    33    29    30   ar
    34    27    31   ar
    35    21    26    1
    36    30    31   ar
    37    30    32    1
