@<TRIPOS>MOLECULE
mol_data/opt/b3lyp/geoms/mol2/1244-4-.out
 39 42 0 0 0
SMALL
GASTEIGER

@<TRIPOS>ATOM
      1 C           0.3051    1.4781   -0.0004 C.ar    1  LIG1        0.0926
      2 C           1.6662    1.5166    0.0005 C.ar    1  LIG1       -0.0233
      3 C           2.0241    2.8996    0.0012 C.ar    1  LIG1       -0.0159
      4 C           0.8523    3.6150    0.0007 C.ar    1  LIG1        0.1348
      5 O          -0.2062    2.7402   -0.0002 O.2     1  LIG1       -0.4629
      6 H          -0.4177    0.6776   -0.0012 H       1  LIG1        0.1029
      7 H           2.3339    0.6675    0.0007 H       1  LIG1        0.0649
      8 H           3.0237    3.3080    0.0019 H       1  LIG1        0.0655
      9 C           1.5638    6.0006    0.0021 C.ar    1  LIG1       -0.0505
     10 C           1.2701    7.3564    0.0024 C.ar    1  LIG1       -0.0534
     11 C           0.5414    5.0361    0.0011 C.ar    1  LIG1        0.0173
     12 C          -0.0564    7.8330    0.0017 C.ar    1  LIG1       -0.0178
     13 H           2.1011    8.0519    0.0033 H       1  LIG1        0.0624
     14 C          -0.7858    5.4967    0.0003 C.ar    1  LIG1       -0.0505
     15 C          -1.0706    6.8558    0.0006 C.ar    1  LIG1       -0.0534
     16 H          -1.5977    4.7780   -0.0005 H       1  LIG1        0.0625
     17 H           2.6032    5.6866    0.0027 H       1  LIG1        0.0625
     18 H          -2.1136    7.1510   -0.0000 H       1  LIG1        0.0624
     19 C          -1.6883    9.7696    0.0020 C.ar    1  LIG1       -0.0535
     20 C          -1.9778   11.1280    0.0023 C.ar    1  LIG1       -0.0535
     21 C          -0.3665    9.2870    0.0020 C.ar    1  LIG1       -0.0178
     22 C          -0.9685   12.1079    0.0027 C.ar    1  LIG1       -0.0178
     23 H          -3.0223   11.4169    0.0022 H       1  LIG1        0.0624
     24 C           0.6431   10.2672    0.0024 C.ar    1  LIG1       -0.0535
     25 C           0.3528   11.6254    0.0027 C.ar    1  LIG1       -0.0535
     26 H           1.6876    9.9781    0.0024 H       1  LIG1        0.0624
     27 H          -2.5236    9.0789    0.0018 H       1  LIG1        0.0624
     28 H           1.1884   12.3156    0.0031 H       1  LIG1        0.0624
     29 C          -2.6067   14.0361    0.0036 C.ar    1  LIG1       -0.0540
     30 C          -2.8987   15.3979    0.0039 C.ar    1  LIG1       -0.0612
     31 C          -1.2795   13.5654    0.0030 C.ar    1  LIG1       -0.0179
     32 C          -1.8719   16.3417    0.0036 C.ar    1  LIG1       -0.0617
     33 H          -3.9360   15.7203    0.0044 H       1  LIG1        0.0618
     34 C          -0.2600   14.5369    0.0027 C.ar    1  LIG1       -0.0540
     35 C          -0.5492   15.8992    0.0030 C.ar    1  LIG1       -0.0612
     36 H           0.7814   14.2367    0.0022 H       1  LIG1        0.0624
     37 H          -2.0986   17.4038    0.0039 H       1  LIG1        0.0618
     38 H          -3.4346   13.3371    0.0040 H       1  LIG1        0.0624
     39 H           0.2661   16.6172    0.0028 H       1  LIG1        0.0618
@<TRIPOS>BOND
     1     6     1    1
     2    16    14    1
     3     1     5   ar
     4     1     2   ar
     5     5     4   ar
     6    18    15    1
     7    14    15   ar
     8    14    11   ar
     9     2     7    1
    10     2     3   ar
    11    15    12   ar
    12     4    11    1
    13     4     3   ar
    14    11     9   ar
    15     3     8    1
    16    12    21    1
    17    12    10   ar
    18    27    19    1
    19    19    21   ar
    20    19    20   ar
    21    21    24   ar
    22     9    10   ar
    23     9    17    1
    24    36    34    1
    25    23    20    1
    26    20    22   ar
    27    24    26    1
    28    24    25   ar
    29    10    13    1
    30    22    25   ar
    31    22    31    1
    32    34    31   ar
    33    34    35   ar
    34    25    28    1
    35    39    35    1
    36    31    29   ar
    37    35    32   ar
    38    29    30   ar
    39    29    38    1
    40    32    37    1
    41    32    30   ar
    42    30    33    1
