@<TRIPOS>MOLECULE
mol_data/opt/b3lyp/geoms/mol2/1244-12-.out
 36 39 0 0 0
SMALL
GASTEIGER

@<TRIPOS>ATOM
      1 C           0.2846    1.5330   -0.0008 C.ar    1  LIG1        0.0926
      2 C           1.6458    1.5681   -0.0002 C.ar    1  LIG1       -0.0233
      3 C           2.0072    2.9502    0.0006 C.ar    1  LIG1       -0.0159
      4 C           0.8371    3.6685    0.0004 C.ar    1  LIG1        0.1348
      5 O          -0.2234    2.7964   -0.0004 O.2     1  LIG1       -0.4629
      6 H          -0.4402    0.7341   -0.0014 H       1  LIG1        0.1029
      7 H           2.3111    0.7170   -0.0003 H       1  LIG1        0.0649
      8 H           3.0079    3.3564    0.0012 H       1  LIG1        0.0655
      9 C           1.5545    6.0528    0.0019 C.ar    1  LIG1       -0.0505
     10 C           1.2640    7.4092    0.0024 C.ar    1  LIG1       -0.0534
     11 C           0.5300    5.0905    0.0010 C.ar    1  LIG1        0.0173
     12 C          -0.0614    7.8896    0.0020 C.ar    1  LIG1       -0.0178
     13 H           2.0969    8.1023    0.0032 H       1  LIG1        0.0624
     14 C          -0.7961    5.5545    0.0005 C.ar    1  LIG1       -0.0505
     15 C          -1.0777    6.9143    0.0010 C.ar    1  LIG1       -0.0534
     16 H          -1.6098    4.8379   -0.0002 H       1  LIG1        0.0625
     17 H           2.5931    5.7365    0.0023 H       1  LIG1        0.0625
     18 H          -2.1202    7.2108    0.0005 H       1  LIG1        0.0624
     19 C          -1.6931    9.8252    0.0029 C.ar    1  LIG1       -0.0534
     20 C          -1.9834   11.1815    0.0033 C.ar    1  LIG1       -0.0505
     21 C          -0.3676    9.3447    0.0025 C.ar    1  LIG1       -0.0178
     22 C          -0.9590   12.1438    0.0035 C.ar    1  LIG1        0.0173
     23 H          -3.0221   11.4978    0.0036 H       1  LIG1        0.0625
     24 C           0.6486   10.3200    0.0026 C.ar    1  LIG1       -0.0534
     25 C           0.3671   11.6798    0.0031 C.ar    1  LIG1       -0.0505
     26 H           1.6911   10.0235    0.0023 H       1  LIG1        0.0624
     27 H          -2.5260    9.1320    0.0028 H       1  LIG1        0.0624
     28 H           1.1809   12.3964    0.0032 H       1  LIG1        0.0625
     29 C          -1.2660   13.5658    0.0041 C.ar    1  LIG1        0.1348
     30 C          -2.4362   14.2840    0.0047 C.ar    1  LIG1       -0.0159
     31 C          -2.0748   15.6662    0.0050 C.ar    1  LIG1       -0.0233
     32 C          -0.7136   15.7013    0.0045 C.ar    1  LIG1        0.0926
     33 O          -0.2056   14.4379    0.0039 O.2     1  LIG1       -0.4629
     34 H           0.0112   16.5002    0.0045 H       1  LIG1        0.1029
     35 H          -3.4369   13.8778    0.0050 H       1  LIG1        0.0655
     36 H          -2.7402   16.5173    0.0055 H       1  LIG1        0.0649
@<TRIPOS>BOND
     1     6     1    1
     2     1     5   ar
     3     1     2   ar
     4     5     4   ar
     5     7     2    1
     6    16    14    1
     7     2     3   ar
     8     4     3   ar
     9     4    11    1
    10    14    11   ar
    11    14    15   ar
    12    18    15    1
    13     3     8    1
    14    11     9   ar
    15    15    12   ar
    16     9    17    1
    17     9    10   ar
    18    12    10   ar
    19    12    21    1
    20    26    24    1
    21    10    13    1
    22    21    24   ar
    23    21    19   ar
    24    24    25   ar
    25    27    19    1
    26    19    20   ar
    27    25    28    1
    28    25    22   ar
    29    20    22   ar
    30    20    23    1
    31    22    29    1
    32    33    29   ar
    33    33    32   ar
    34    29    30   ar
    35    34    32    1
    36    32    31   ar
    37    30    35    1
    38    30    31   ar
    39    31    36    1
