@<TRIPOS>MOLECULE
mol_data/opt/b3lyp/geoms/mol2/1244-.out
 29 31 0 0 0
SMALL
GASTEIGER

@<TRIPOS>ATOM
      1 C           0.2867    1.6101   -0.0009 C.ar    1  LIG1        0.0926
      2 C           1.6477    1.6510   -0.0006 C.ar    1  LIG1       -0.0233
      3 C           2.0030    3.0348    0.0003 C.ar    1  LIG1       -0.0159
      4 C           0.8301    3.7480    0.0003 C.ar    1  LIG1        0.1348
      5 O          -0.2268    2.8712   -0.0005 O.2     1  LIG1       -0.4629
      6 H          -0.4347    0.8080   -0.0015 H       1  LIG1        0.1029
      7 H           2.3172    0.8029   -0.0009 H       1  LIG1        0.0649
      8 H           3.0023    3.4452    0.0008 H       1  LIG1        0.0655
      9 C           1.5364    6.1351    0.0019 C.ar    1  LIG1       -0.0505
     10 C           1.2396    7.4905    0.0025 C.ar    1  LIG1       -0.0534
     11 C           0.5163    5.1685    0.0010 C.ar    1  LIG1        0.0173
     12 C          -0.0872    7.9650    0.0022 C.ar    1  LIG1       -0.0178
     13 H           2.0700    8.1865    0.0033 H       1  LIG1        0.0624
     14 C          -0.8115    5.6267    0.0007 C.ar    1  LIG1       -0.0505
     15 C          -1.0986    6.9856    0.0013 C.ar    1  LIG1       -0.0534
     16 H          -1.6223    4.9068   -0.0000 H       1  LIG1        0.0625
     17 H           2.5764    5.8235    0.0021 H       1  LIG1        0.0625
     18 H          -2.1420    7.2770    0.0010 H       1  LIG1        0.0624
     19 C          -1.7286    9.8914    0.0034 C.ar    1  LIG1       -0.0540
     20 C          -2.0230   11.2526    0.0040 C.ar    1  LIG1       -0.0612
     21 C          -0.4007    9.4223    0.0029 C.ar    1  LIG1       -0.0179
     22 C          -0.9981   12.1985    0.0042 C.ar    1  LIG1       -0.0617
     23 H          -3.0610   11.5730    0.0043 H       1  LIG1        0.0618
     24 C           0.6168   10.3962    0.0031 C.ar    1  LIG1       -0.0540
     25 C           0.3253   11.7580    0.0037 C.ar    1  LIG1       -0.0612
     26 H           1.6589   10.0987    0.0027 H       1  LIG1        0.0624
     27 H          -1.2265   13.2600    0.0047 H       1  LIG1        0.0618
     28 H          -2.5555    9.1917    0.0033 H       1  LIG1        0.0624
     29 H           1.1394   12.4771    0.0039 H       1  LIG1        0.0618
@<TRIPOS>BOND
     1     6     1    1
     2     7     2    1
     3     1     2   ar
     4     1     5   ar
     5     2     3   ar
     6     5     4   ar
     7    16    14    1
     8     3     4   ar
     9     3     8    1
    10     4    11    1
    11    14    11   ar
    12    14    15   ar
    13    11     9   ar
    14    18    15    1
    15    15    12   ar
    16     9    17    1
    17     9    10   ar
    18    12    10   ar
    19    12    21    1
    20    10    13    1
    21    26    24    1
    22    21    24   ar
    23    21    19   ar
    24    24    25   ar
    25    28    19    1
    26    19    20   ar
    27    25    29    1
    28    25    22   ar
    29    20    22   ar
    30    20    23    1
    31    22    27    1
