@<TRIPOS>MOLECULE
mol_data/opt/b3lyp/geoms/mol2/1244.out
 29 31 0 0 0
SMALL
GASTEIGER

@<TRIPOS>ATOM
      1 C           0.3124    1.6082   -0.0020 C.ar    1  LIG1        0.0926
      2 C           1.6731    1.6592   -0.0018 C.ar    1  LIG1       -0.0233
      3 C           2.0182    3.0456   -0.0003 C.ar    1  LIG1       -0.0159
      4 C           0.8399    3.7500    0.0000 C.ar    1  LIG1        0.1348
      5 O          -0.2104    2.8655   -0.0010 O.2     1  LIG1       -0.4629
      6 H          -0.4030    0.8009   -0.0029 H       1  LIG1        0.1029
      7 H           2.3487    0.8161   -0.0024 H       1  LIG1        0.0649
      8 H           3.0142    3.4633    0.0003 H       1  LIG1        0.0655
      9 C           1.5287    6.1423    0.0025 C.ar    1  LIG1       -0.0505
     10 C           1.2220    7.4954    0.0036 C.ar    1  LIG1       -0.0534
     11 C           0.5158    5.1682    0.0012 C.ar    1  LIG1        0.0173
     12 C          -0.1083    7.9602    0.0036 C.ar    1  LIG1       -0.0178
     13 H           2.0472    8.1976    0.0046 H       1  LIG1        0.0624
     14 C          -0.8153    5.6166    0.0012 C.ar    1  LIG1       -0.0505
     15 C          -1.1125    6.9734    0.0024 C.ar    1  LIG1       -0.0534
     16 H          -1.6208    4.8907    0.0003 H       1  LIG1        0.0625
     17 H           2.5709    5.8384    0.0026 H       1  LIG1        0.0625
     18 H          -2.1581    7.2571    0.0023 H       1  LIG1        0.0624
     19 C           0.5777   10.3965    0.0054 C.ar    1  LIG1       -0.0540
     20 C           0.2760   11.7562    0.0066 C.ar    1  LIG1       -0.0612
     21 C          -0.4324    9.4152    0.0049 C.ar    1  LIG1       -0.0179
     22 C          -1.0504   12.1869    0.0072 C.ar    1  LIG1       -0.0617
     23 H           1.0849   12.4813    0.0069 H       1  LIG1        0.0618
     24 C          -1.7640    9.8744    0.0056 C.ar    1  LIG1       -0.0540
     25 C          -2.0684   11.2333    0.0067 C.ar    1  LIG1       -0.0612
     26 H          -2.5859    9.1683    0.0053 H       1  LIG1        0.0624
     27 H          -1.2868   13.2465    0.0081 H       1  LIG1        0.0618
     28 H           1.6223   10.1068    0.0048 H       1  LIG1        0.0624
     29 H          -3.1085   11.5461    0.0073 H       1  LIG1        0.0618
@<TRIPOS>BOND
     1     6     1    1
     2     7     2    1
     3     1     2   ar
     4     1     5   ar
     5     2     3   ar
     6     5     4   ar
     7     3     4   ar
     8     3     8    1
     9     4    11    1
    10    16    14    1
    11    14    11   ar
    12    14    15   ar
    13    11     9   ar
    14    18    15    1
    15    15    12   ar
    16     9    17    1
    17     9    10   ar
    18    10    12   ar
    19    10    13    1
    20    12    21    1
    21    28    19    1
    22    21    19   ar
    23    21    24   ar
    24    26    24    1
    25    19    20   ar
    26    24    25   ar
    27    20    23    1
    28    20    22   ar
    29    25    22   ar
    30    25    29    1
    31    22    27    1
