@<TRIPOS>MOLECULE
mol_data/opt/b3lyp/geoms/mol2/1248-.out
 25 27 0 0 0
SMALL
GASTEIGER

@<TRIPOS>ATOM
      1 C           0.2797    1.6829   -0.0011 C.ar    1  LIG1        0.0926
      2 C           1.6417    1.7268   -0.0012 C.ar    1  LIG1       -0.0233
      3 C           1.9927    3.1099   -0.0002 C.ar    1  LIG1       -0.0159
      4 C           0.8167    3.8199    0.0002 C.ar    1  LIG1        0.1348
      5 O          -0.2375    2.9403   -0.0004 O.2     1  LIG1       -0.4629
      6 H          -0.4385    0.8781   -0.0015 H       1  LIG1        0.1029
      7 H           2.3128    0.8803   -0.0018 H       1  LIG1        0.0649
      8 H           2.9907    3.5230    0.0001 H       1  LIG1        0.0655
      9 C           1.5288    6.2018    0.0019 C.ar    1  LIG1       -0.0504
     10 C           1.2352    7.5561    0.0027 C.ar    1  LIG1       -0.0503
     11 C           0.5007    5.2385    0.0011 C.ar    1  LIG1        0.0173
     12 C          -0.1007    7.9964    0.0029 C.ar    1  LIG1        0.0227
     13 H           2.0326    8.2897    0.0033 H       1  LIG1        0.0625
     14 C          -0.8349    5.6844    0.0013 C.ar    1  LIG1       -0.0504
     15 C          -1.1303    7.0399    0.0021 C.ar    1  LIG1       -0.0503
     16 H          -1.6375    4.9562    0.0007 H       1  LIG1        0.0625
     17 H           2.5664    5.8839    0.0018 H       1  LIG1        0.0625
     18 H          -2.1610    7.3748    0.0022 H       1  LIG1        0.0625
     19 C          -0.4134    9.4332    0.0037 C.ar    1  LIG1        0.2033
     20 N          -1.7157    9.8011    0.0041 N.ar    1  LIG1       -0.1258
     21 C          -0.9582   11.9384    0.0052 C.ar    1  LIG1        0.1605
     22 N           0.6184   10.3088    0.0041 N.ar    1  LIG1       -0.1258
     23 N          -1.9940   11.0894    0.0049 N.ar    1  LIG1       -0.1339
     24 N           0.3365   11.5965    0.0050 N.ar    1  LIG1       -0.1339
     25 H          -1.1889   12.9985    0.0061 H       1  LIG1        0.1085
@<TRIPOS>BOND
     1     7     2    1
     2     6     1    1
     3     2     1   ar
     4     2     3   ar
     5     1     5   ar
     6     5     4   ar
     7     3     8    1
     8     3     4   ar
     9     4    11    1
    10    16    14    1
    11    11    14   ar
    12    11     9   ar
    13    14    15   ar
    14    17     9    1
    15     9    10   ar
    16    15    18    1
    17    15    12   ar
    18    10    12   ar
    19    10    13    1
    20    12    19    1
    21    19    20   ar
    22    19    22   ar
    23    20    23   ar
    24    22    24   ar
    25    23    21   ar
    26    24    21   ar
    27    21    25    1
