@<TRIPOS>MOLECULE
mol_data/opt/b3lyp/geoms/mol2/125-84-.out
 32 35 0 0 0
SMALL
GASTEIGER

@<TRIPOS>ATOM
      1 C           0.2023    1.6348    0.0007 C.ar    1  LIG1        0.0926
      2 C           1.5649    1.6625    0.0003 C.ar    1  LIG1       -0.0233
      3 C           1.9350    3.0405    0.0002 C.ar    1  LIG1       -0.0154
      4 C           0.7654    3.7616    0.0003 C.ar    1  LIG1        0.1413
      5 O          -0.3023    2.8990    0.0005 O.2     1  LIG1       -0.4624
      6 H          -0.5254    0.8388    0.0010 H       1  LIG1        0.1029
      7 H           2.2252    0.8077    0.0002 H       1  LIG1        0.0649
      8 H           2.9359    3.4476    0.0001 H       1  LIG1        0.0655
      9 C           0.4562    5.1677    0.0002 C.ar    1  LIG1        0.0551
     10 C          -0.7987    5.7529    0.0004 C.ar    1  LIG1       -0.0433
     11 C          -0.7490    7.1631    0.0001 C.ar    1  LIG1       -0.0431
     12 C           0.5383    7.6615   -0.0002 C.ar    1  LIG1        0.0605
     13 S           1.7226    6.3715   -0.0003 S.2     1  LIG1       -0.0820
     14 H          -1.7121    5.1717    0.0006 H       1  LIG1        0.0630
     15 H          -1.6154    7.8128    0.0002 H       1  LIG1        0.0630
     16 C           0.9545    9.0448   -0.0005 C.ar    1  LIG1        0.2099
     17 N           2.2818    9.3070   -0.0007 N.ar    1  LIG1       -0.1247
     18 C           1.7076   11.5191   -0.0010 C.ar    1  LIG1        0.2034
     19 N          -0.0066   10.0004   -0.0005 N.ar    1  LIG1       -0.1247
     20 N           2.6608   10.5620   -0.0009 N.ar    1  LIG1       -0.1252
     21 N           0.3809   11.2517   -0.0007 N.ar    1  LIG1       -0.1252
     22 C           1.1782   13.9601   -0.0014 C.ar    1  LIG1       -0.0509
     23 C           1.5857   15.2912   -0.0017 C.ar    1  LIG1       -0.0611
     24 C           2.1341   12.9303   -0.0013 C.ar    1  LIG1        0.0226
     25 C           2.9454   15.6113   -0.0018 C.ar    1  LIG1       -0.0617
     26 H           0.8406   16.0810   -0.0018 H       1  LIG1        0.0618
     27 C           3.5005   13.2576   -0.0014 C.ar    1  LIG1       -0.0509
     28 C           3.8996   14.5911   -0.0016 C.ar    1  LIG1       -0.0611
     29 H           4.2336   12.4594   -0.0012 H       1  LIG1        0.0625
     30 H           3.2599   16.6509   -0.0020 H       1  LIG1        0.0618
     31 H           0.1254   13.7026   -0.0014 H       1  LIG1        0.0625
     32 H           4.9577   14.8352   -0.0017 H       1  LIG1        0.0618
@<TRIPOS>BOND
     1    30    25    1
     2    26    23    1
     3    25    23   ar
     4    25    28   ar
     5    23    22   ar
     6    32    28    1
     7    28    27   ar
     8    22    31    1
     9    22    24   ar
    10    27    24   ar
    11    27    29    1
    12    24    18    1
    13    18    20   ar
    14    18    21   ar
    15    20    17   ar
    16    21    19   ar
    17    17    16   ar
    18    19    16   ar
    19    16    12    1
    20    13    12   ar
    21    13     9   ar
    22    12    11   ar
    23     8     3    1
    24    11    15    1
    25    11    10   ar
    26     9     4    1
    27     9    10   ar
    28     3     4   ar
    29     3     2   ar
    30     7     2    1
    31     4     5   ar
    32     2     1   ar
    33    10    14    1
    34     5     1   ar
    35     1     6    1
