@<TRIPOS>MOLECULE
mol_data/opt/b3lyp/geoms/mol2/125-4-.out
 26 28 0 0 0
SMALL
GASTEIGER

@<TRIPOS>ATOM
      1 C           0.1963    1.6374    0.0007 C.ar    1  LIG1        0.0926
      2 C           1.5578    1.6618   -0.0001 C.ar    1  LIG1       -0.0233
      3 C           1.9327    3.0405   -0.0003 C.ar    1  LIG1       -0.0154
      4 C           0.7661    3.7647    0.0001 C.ar    1  LIG1        0.1413
      5 O          -0.3041    2.9058    0.0006 O.2     1  LIG1       -0.4624
      6 H          -0.5350    0.8447    0.0012 H       1  LIG1        0.1029
      7 H           2.2159    0.8051   -0.0003 H       1  LIG1        0.0649
      8 H           2.9348    3.4444   -0.0007 H       1  LIG1        0.0655
      9 C           0.4594    5.1727   -0.0000 C.ar    1  LIG1        0.0550
     10 C          -0.7804    5.7739    0.0005 C.ar    1  LIG1       -0.0434
     11 C          -0.7158    7.1892    0.0002 C.ar    1  LIG1       -0.0462
     12 C           0.5653    7.6990   -0.0005 C.ar    1  LIG1        0.0200
     13 S           1.7271    6.3776   -0.0009 S.2     1  LIG1       -0.0852
     14 H          -1.7022    5.2055    0.0011 H       1  LIG1        0.0630
     15 H          -1.6006    7.8142    0.0007 H       1  LIG1        0.0629
     16 C           0.0590   10.1452   -0.0016 C.ar    1  LIG1       -0.0535
     17 C           0.4641   11.4763   -0.0020 C.ar    1  LIG1       -0.0612
     18 C           1.0027    9.0987   -0.0009 C.ar    1  LIG1       -0.0113
     19 C           1.8215   11.8044   -0.0017 C.ar    1  LIG1       -0.0617
     20 H          -0.2859   12.2619   -0.0026 H       1  LIG1        0.0618
     21 C           2.3664    9.4476   -0.0006 C.ar    1  LIG1       -0.0535
     22 C           2.7692   10.7804   -0.0010 C.ar    1  LIG1       -0.0612
     23 H           3.1241    8.6694   -0.0000 H       1  LIG1        0.0624
     24 H           2.1355   12.8438   -0.0020 H       1  LIG1        0.0618
     25 H          -1.0013    9.9167   -0.0020 H       1  LIG1        0.0624
     26 H           3.8290   11.0182   -0.0008 H       1  LIG1        0.0618
@<TRIPOS>BOND
     1    20    17    1
     2    24    19    1
     3    17    19   ar
     4    17    16   ar
     5    25    16    1
     6    19    22   ar
     7    16    18   ar
     8    22    26    1
     9    22    21   ar
    10    18    21   ar
    11    18    12    1
    12    13    12   ar
    13    13     9   ar
    14     8     3    1
    15    21    23    1
    16    12    11   ar
    17     3     2   ar
    18     3     4   ar
    19     7     2    1
    20     2     1   ar
    21     9     4    1
    22     9    10   ar
    23     4     5   ar
    24    11    10   ar
    25    11    15    1
    26    10    14    1
    27     5     1   ar
    28     1     6    1
