@<TRIPOS>MOLECULE
mol_data/opt/b3lyp/geoms/mol2/125-5.out
 23 25 0 0 0
SMALL
GASTEIGER

@<TRIPOS>ATOM
      1 C           0.1980    1.6673    0.0003 C.ar    1  LIG1        0.0926
      2 C           1.5595    1.6872   -0.0002 C.ar    1  LIG1       -0.0233
      3 C           1.9393    3.0645   -0.0002 C.ar    1  LIG1       -0.0154
      4 C           0.7749    3.7927    0.0000 C.ar    1  LIG1        0.1413
      5 O          -0.2982    2.9374    0.0003 O.2     1  LIG1       -0.4624
      6 H          -0.5359    0.8771    0.0006 H       1  LIG1        0.1029
      7 H           2.2146    0.8282   -0.0004 H       1  LIG1        0.0649
      8 H           2.9427    3.4652   -0.0004 H       1  LIG1        0.0655
      9 C           0.4734    5.2013    0.0001 C.ar    1  LIG1        0.0550
     10 C          -0.7644    5.8074    0.0005 C.ar    1  LIG1       -0.0434
     11 C          -0.6970    7.2222    0.0003 C.ar    1  LIG1       -0.0457
     12 C           0.5886    7.7221   -0.0001 C.ar    1  LIG1        0.0266
     13 S           1.7502    6.4012   -0.0004 S.2     1  LIG1       -0.0847
     14 H          -1.6873    5.2411    0.0008 H       1  LIG1        0.0630
     15 H          -1.5741    7.8597    0.0006 H       1  LIG1        0.0629
     16 C           1.0360    9.0984   -0.0002 C.ar    1  LIG1        0.0259
     17 C           2.3229    9.5948   -0.0005 C.ar    1  LIG1       -0.0464
     18 C           2.3863   11.0164   -0.0006 C.ar    1  LIG1       -0.0541
     19 C           1.1521   11.6046   -0.0004 C.ar    1  LIG1       -0.0237
     20 S          -0.1195   10.4229   -0.0001 S.2     1  LIG1       -0.0961
     21 H           0.9063   12.6571   -0.0003 H       1  LIG1        0.0693
     22 H           3.1996    8.9568   -0.0006 H       1  LIG1        0.0629
     23 H           3.3138   11.5773   -0.0007 H       1  LIG1        0.0623
@<TRIPOS>BOND
     1    23    18    1
     2    22    17    1
     3    18    17   ar
     4    18    19   ar
     5    17    16   ar
     6     7     2    1
     7     8     3    1
     8    13    12   ar
     9    13     9   ar
    10    19    21    1
    11    19    20   ar
    12    16    20   ar
    13    16    12    1
    14     2     3   ar
    15     2     1   ar
    16     3     4   ar
    17    12    11   ar
    18     4     9    1
    19     4     5   ar
    20     9    10   ar
    21     5     1   ar
    22     1     6    1
    23    11    10   ar
    24    11    15    1
    25    10    14    1
