@<TRIPOS>MOLECULE
mol_data/opt/b3lyp/geoms/mol2/125-13-.out
 24 26 0 0 0
SMALL
GASTEIGER

@<TRIPOS>ATOM
      1 C           0.2057    1.6625    0.0001 C.ar    1  LIG1        0.0926
      2 C           1.5666    1.6899    0.0001 C.ar    1  LIG1       -0.0233
      3 C           1.9395    3.0696   -0.0001 C.ar    1  LIG1       -0.0154
      4 C           0.7714    3.7919    0.0001 C.ar    1  LIG1        0.1413
      5 O          -0.2973    2.9311    0.0003 O.2     1  LIG1       -0.4624
      6 H          -0.5248    0.8690    0.0001 H       1  LIG1        0.1029
      7 H           2.2264    0.8346    0.0001 H       1  LIG1        0.0649
      8 H           2.9410    3.4746   -0.0003 H       1  LIG1        0.0655
      9 C           0.4616    5.1983    0.0001 C.ar    1  LIG1        0.0550
     10 C          -0.7744    5.8060    0.0004 C.ar    1  LIG1       -0.0433
     11 C          -0.7138    7.2217    0.0003 C.ar    1  LIG1       -0.0448
     12 C           0.5698    7.7266   -0.0000 C.ar    1  LIG1        0.0361
     13 S           1.7339    6.4069   -0.0003 S.2     1  LIG1       -0.0837
     14 H          -1.6962    5.2375    0.0007 H       1  LIG1        0.0630
     15 H          -1.5913    7.8574    0.0006 H       1  LIG1        0.0630
     16 C           0.9908    9.1089   -0.0002 C.ar    1  LIG1        0.0531
     17 C           0.2361   10.2788   -0.0003 C.ar    1  LIG1       -0.0359
     18 C           1.1319   11.3762   -0.0002 C.ar    1  LIG1       -0.0438
     19 C           2.4139   10.8643   -0.0007 C.ar    1  LIG1        0.0022
     20 N           2.3184    9.4958   -0.0004 N.ar    1  LIG1       -0.3603
     21 H           3.1043    8.8652   -0.0002 H       1  LIG1        0.1653
     22 H           3.3748   11.3560   -0.0010 H       1  LIG1        0.0807
     23 H          -0.8433   10.3259   -0.0003 H       1  LIG1        0.0639
     24 H           0.8695   12.4243   -0.0000 H       1  LIG1        0.0633
@<TRIPOS>BOND
     1    22    19    1
     2    19    20   ar
     3    19    18   ar
     4    20    16   ar
     5    20    21    1
     6    13    12   ar
     7    13     9   ar
     8    17    23    1
     9    17    16   ar
    10    17    18   ar
    11     8     3    1
    12    16    12    1
    13    18    24    1
    14     3     4   ar
    15     3     2   ar
    16    12    11   ar
    17     4     9    1
    18     4     5   ar
    19     1     2   ar
    20     1     6    1
    21     1     5   ar
    22     9    10   ar
    23     2     7    1
    24    11    10   ar
    25    11    15    1
    26    10    14    1
