@<TRIPOS>MOLECULE
mol_data/opt/b3lyp/geoms/mol2/125-124.out
 33 36 0 0 0
SMALL
GASTEIGER

@<TRIPOS>ATOM
      1 C           0.3626    1.5473   -0.0003 C.ar    1  LIG1        0.0926
      2 C           1.7224    1.6188   -0.0007 C.ar    1  LIG1       -0.0233
      3 C           2.0498    3.0094   -0.0006 C.ar    1  LIG1       -0.0154
      4 C           0.8585    3.6931   -0.0002 C.ar    1  LIG1        0.1413
      5 O          -0.1814    2.7978   -0.0000 O.2     1  LIG1       -0.4624
      6 H          -0.3409    0.7299   -0.0002 H       1  LIG1        0.1029
      7 H           2.4094    0.7854   -0.0010 H       1  LIG1        0.0649
      8 H           3.0375    3.4473   -0.0008 H       1  LIG1        0.0655
      9 C           0.5037    5.0887    0.0001 C.ar    1  LIG1        0.0551
     10 C          -0.7566    5.6483    0.0007 C.ar    1  LIG1       -0.0433
     11 C          -0.7456    7.0643    0.0008 C.ar    1  LIG1       -0.0433
     12 C           0.5240    7.6044    0.0004 C.ar    1  LIG1        0.0551
     13 S           1.7366    6.3359   -0.0002 S.2     1  LIG1       -0.0821
     14 H          -1.6564    5.0459    0.0010 H       1  LIG1        0.0630
     15 H          -1.6364    7.6797    0.0013 H       1  LIG1        0.0630
     16 C           0.9022    8.9910    0.0004 C.ar    1  LIG1        0.1422
     17 C           2.1081    9.6529    0.0004 C.ar    1  LIG1       -0.0147
     18 C           1.8107   11.0418    0.0005 C.ar    1  LIG1       -0.0152
     19 C           0.4412   11.1618    0.0006 C.ar    1  LIG1        0.1357
     20 O          -0.1163    9.9076    0.0006 O.2     1  LIG1       -0.4543
     21 H           3.0869    9.1955    0.0003 H       1  LIG1        0.0656
     22 H           2.5241   11.8526    0.0005 H       1  LIG1        0.0656
     23 C           0.0334   13.6133    0.0010 C.ar    1  LIG1       -0.0511
     24 C          -0.8327   14.7017    0.0011 C.ar    1  LIG1       -0.0611
     25 C          -0.4680   12.2979    0.0008 C.ar    1  LIG1        0.0173
     26 C          -2.2159   14.5042    0.0011 C.ar    1  LIG1       -0.0617
     27 H          -0.4267   15.7091    0.0013 H       1  LIG1        0.0618
     28 C          -1.8622   12.1095    0.0007 C.ar    1  LIG1       -0.0511
     29 C          -2.7234   13.2038    0.0009 C.ar    1  LIG1       -0.0611
     30 H          -2.2612   11.1016    0.0006 H       1  LIG1        0.0625
     31 H          -2.8900   15.3554    0.0012 H       1  LIG1        0.0618
     32 H           1.1059   13.7817    0.0011 H       1  LIG1        0.0625
     33 H          -3.7970   13.0391    0.0008 H       1  LIG1        0.0618
@<TRIPOS>BOND
     1     7     2    1
     2     8     3    1
     3     2     3   ar
     4     2     1   ar
     5     3     4   ar
     6     1     6    1
     7     1     5   ar
     8    13     9   ar
     9    13    12   ar
    10     4     5   ar
    11     4     9    1
    12     9    10   ar
    13    21    17    1
    14    17    16   ar
    15    17    18   ar
    16    12    16    1
    17    12    11   ar
    18    16    20   ar
    19    22    18    1
    20    18    19   ar
    21    30    28    1
    22    20    19   ar
    23    19    25    1
    24    10    11   ar
    25    10    14    1
    26    28    25   ar
    27    28    29   ar
    28    25    23   ar
    29    33    29    1
    30    11    15    1
    31    29    26   ar
    32    23    32    1
    33    23    24   ar
    34    26    24   ar
    35    26    31    1
    36    24    27    1
