@<TRIPOS>MOLECULE
mol_data/opt/b3lyp/geoms/mol2/125-12.out
 23 25 0 0 0
SMALL
GASTEIGER

@<TRIPOS>ATOM
      1 C           0.2328    1.6886    0.0002 C.ar    1  LIG1        0.0926
      2 C           1.5938    1.7276   -0.0002 C.ar    1  LIG1       -0.0233
      3 C           1.9543    3.1102   -0.0001 C.ar    1  LIG1       -0.0154
      4 C           0.7800    3.8221    0.0000 C.ar    1  LIG1        0.1413
      5 O          -0.2810    2.9520    0.0001 O.2     1  LIG1       -0.4624
      6 H          -0.4901    0.8884    0.0003 H       1  LIG1        0.1029
      7 H           2.2609    0.8780   -0.0004 H       1  LIG1        0.0649
      8 H           2.9522    3.5246   -0.0002 H       1  LIG1        0.0655
      9 C           0.4593    5.2267    0.0001 C.ar    1  LIG1        0.0551
     10 C          -0.7856    5.8184    0.0004 C.ar    1  LIG1       -0.0433
     11 C          -0.7373    7.2347    0.0003 C.ar    1  LIG1       -0.0433
     12 C           0.5449    7.7404    0.0001 C.ar    1  LIG1        0.0551
     13 S           1.7238    6.4420   -0.0002 S.2     1  LIG1       -0.0821
     14 H          -1.7008    5.2397    0.0006 H       1  LIG1        0.0630
     15 H          -1.6111    7.8743    0.0005 H       1  LIG1        0.0630
     16 C           0.9604    9.1200    0.0001 C.ar    1  LIG1        0.1413
     17 C           2.1804    9.7503    0.0002 C.ar    1  LIG1       -0.0154
     18 C           1.9147   11.1542    0.0001 C.ar    1  LIG1       -0.0233
     19 C           0.5595   11.2857   -0.0001 C.ar    1  LIG1        0.0926
     20 O          -0.0391   10.0602   -0.0001 O.2     1  LIG1       -0.4624
     21 H          -0.1073   12.1332   -0.0002 H       1  LIG1        0.1029
     22 H           3.1477    9.2690    0.0003 H       1  LIG1        0.0655
     23 H           2.6381   11.9565    0.0002 H       1  LIG1        0.0649
@<TRIPOS>BOND
     1     7     2    1
     2     2     3   ar
     3     2     1   ar
     4     8     3    1
     5    13     9   ar
     6    13    12   ar
     7    21    19    1
     8    20    19   ar
     9    20    16   ar
    10     3     4   ar
    11    19    18   ar
    12     4     9    1
    13     4     5   ar
    14    16    12    1
    15    16    17   ar
    16    18    17   ar
    17    18    23    1
    18     9    10   ar
    19    12    11   ar
    20     5     1   ar
    21    17    22    1
    22     1     6    1
    23    11    10   ar
    24    11    15    1
    25    10    14    1
