@<TRIPOS>MOLECULE
mol_data/opt/b3lyp/geoms/mol2/125-4.out
 26 28 0 0 0
SMALL
GASTEIGER

@<TRIPOS>ATOM
      1 C           0.2235    1.6366   -0.0004 C.ar    1  LIG1        0.0926
      2 C           1.5847    1.6721   -0.0007 C.ar    1  LIG1       -0.0233
      3 C           1.9484    3.0538   -0.0003 C.ar    1  LIG1       -0.0154
      4 C           0.7759    3.7685   -0.0001 C.ar    1  LIG1        0.1413
      5 O          -0.2873    2.9009   -0.0002 O.2     1  LIG1       -0.4624
      6 H          -0.5013    0.8380   -0.0004 H       1  LIG1        0.1029
      7 H           2.2498    0.8208   -0.0011 H       1  LIG1        0.0649
      8 H           2.9471    3.4659   -0.0003 H       1  LIG1        0.0655
      9 C           0.4578    5.1740    0.0003 C.ar    1  LIG1        0.0550
     10 C          -0.7869    5.7651    0.0007 C.ar    1  LIG1       -0.0434
     11 C          -0.7338    7.1808    0.0010 C.ar    1  LIG1       -0.0462
     12 C           0.5432    7.7010    0.0009 C.ar    1  LIG1        0.0200
     13 S           1.7158    6.3890    0.0003 S.2     1  LIG1       -0.0852
     14 H          -1.7040    5.1892    0.0008 H       1  LIG1        0.0630
     15 H          -1.6236    7.7986    0.0013 H       1  LIG1        0.0629
     16 C           2.3302    9.4641    0.0021 C.ar    1  LIG1       -0.0535
     17 C           2.7221   10.8001    0.0023 C.ar    1  LIG1       -0.0612
     18 C           0.9693    9.1042    0.0011 C.ar    1  LIG1       -0.0113
     19 C           1.7663   11.8164    0.0016 C.ar    1  LIG1       -0.0617
     20 H           3.7800   11.0463    0.0030 H       1  LIG1        0.0618
     21 C           0.0172   10.1431    0.0004 C.ar    1  LIG1       -0.0535
     22 C           0.4115   11.4774    0.0007 C.ar    1  LIG1       -0.0612
     23 H          -1.0414    9.9061   -0.0004 H       1  LIG1        0.0624
     24 H           2.0718   12.8583    0.0018 H       1  LIG1        0.0618
     25 H           3.0939    8.6920    0.0027 H       1  LIG1        0.0624
     26 H          -0.3448   12.2570    0.0002 H       1  LIG1        0.0618
@<TRIPOS>BOND
     1     7     2    1
     2     2     1   ar
     3     2     3   ar
     4     6     1    1
     5     1     5   ar
     6    23    21    1
     7     3     8    1
     8     3     4   ar
     9     5     4   ar
    10     4     9    1
    11    26    22    1
    12     9    13   ar
    13     9    10   ar
    14    13    12   ar
    15    21    22   ar
    16    21    18   ar
    17    10    14    1
    18    10    11   ar
    19    22    19   ar
    20    12    11   ar
    21    12    18    1
    22    11    15    1
    23    18    16   ar
    24    19    24    1
    25    19    17   ar
    26    16    17   ar
    27    16    25    1
    28    17    20    1
