@<TRIPOS>MOLECULE
mol_data/opt/b3lyp/geoms/mol2/125-413.out
 34 37 0 0 0
SMALL
GASTEIGER

@<TRIPOS>ATOM
      1 C           0.2365    1.5384   -0.0014 C.ar    1  LIG1        0.0926
      2 C           1.5972    1.5862   -0.0011 C.ar    1  LIG1       -0.0233
      3 C           1.9487    2.9710   -0.0004 C.ar    1  LIG1       -0.0154
      4 C           0.7698    3.6755   -0.0004 C.ar    1  LIG1        0.1413
      5 O          -0.2856    2.7982   -0.0010 O.2     1  LIG1       -0.4624
      6 H          -0.4810    0.7333   -0.0019 H       1  LIG1        0.1029
      7 H           2.2697    0.7409   -0.0013 H       1  LIG1        0.0649
      8 H           2.9438    3.3917   -0.0000 H       1  LIG1        0.0655
      9 C           0.4395    5.0777    0.0001 C.ar    1  LIG1        0.0550
     10 C          -0.8103    5.6588    0.0002 C.ar    1  LIG1       -0.0434
     11 C          -0.7704    7.0743    0.0008 C.ar    1  LIG1       -0.0462
     12 C           0.5027    7.6068    0.0012 C.ar    1  LIG1        0.0200
     13 S           1.6874    6.3044    0.0007 S.2     1  LIG1       -0.0852
     14 H          -1.7223    5.0748   -0.0001 H       1  LIG1        0.0630
     15 H          -1.6658    7.6845    0.0011 H       1  LIG1        0.0629
     16 C           2.2718    9.3924    0.0031 C.ar    1  LIG1       -0.0529
     17 C           2.6521   10.7252    0.0037 C.ar    1  LIG1       -0.0520
     18 C           0.9158    9.0095    0.0018 C.ar    1  LIG1       -0.0113
     19 C           1.7004   11.7636    0.0031 C.ar    1  LIG1       -0.0017
     20 H           3.7093   10.9684    0.0048 H       1  LIG1        0.0624
     21 C          -0.0369   10.0466    0.0011 C.ar    1  LIG1       -0.0529
     22 C           0.3447   11.3806    0.0017 C.ar    1  LIG1       -0.0520
     23 H          -1.0954    9.8091   -0.0000 H       1  LIG1        0.0624
     24 H           3.0473    8.6319    0.0038 H       1  LIG1        0.0624
     25 H          -0.4411   12.1311    0.0010 H       1  LIG1        0.0624
     26 C           2.1237   13.1596    0.0037 C.ar    1  LIG1        0.0465
     27 C           3.3956   13.7252    0.0042 C.ar    1  LIG1       -0.0364
     28 C           3.2543   15.1347    0.0048 C.ar    1  LIG1       -0.0438
     29 C           1.9022   15.4112    0.0046 C.ar    1  LIG1        0.0022
     30 N           1.2308   14.2162    0.0040 N.ar    1  LIG1       -0.3607
     31 H           0.2287   14.1256    0.0037 H       1  LIG1        0.1653
     32 H           1.3697   16.3504    0.0049 H       1  LIG1        0.0807
     33 H           4.3274   13.1783    0.0041 H       1  LIG1        0.0639
     34 H           4.0502   15.8653    0.0053 H       1  LIG1        0.0633
@<TRIPOS>BOND
     1     6     1    1
     2     1     2   ar
     3     1     5   ar
     4     7     2    1
     5     2     3   ar
     6     5     4   ar
     7     3     4   ar
     8     3     8    1
     9     4     9    1
    10    14    10    1
    11    23    21    1
    12     9    10   ar
    13     9    13   ar
    14    10    11   ar
    15    13    12   ar
    16    11    15    1
    17    11    12   ar
    18    25    22    1
    19    21    22   ar
    20    21    18   ar
    21    12    18    1
    22    22    19   ar
    23    18    16   ar
    24    19    26    1
    25    19    17   ar
    26    16    17   ar
    27    16    24    1
    28    26    30   ar
    29    26    27   ar
    30    17    20    1
    31    31    30    1
    32    30    29   ar
    33    33    27    1
    34    27    28   ar
    35    29    28   ar
    36    29    32    1
    37    28    34    1
