@<TRIPOS>MOLECULE
mol_data/opt/b3lyp/geoms/mol2/125-13-8.out
 30 33 0 0 0
SMALL
GASTEIGER

@<TRIPOS>ATOM
      1 C           0.1650    1.6326    0.0006 C.ar    1  LIG1        0.0926
      2 C           1.5269    1.6497   -0.0002 C.ar    1  LIG1       -0.0233
      3 C           1.9092    3.0257   -0.0003 C.ar    1  LIG1       -0.0154
      4 C           0.7457    3.7557    0.0001 C.ar    1  LIG1        0.1413
      5 O          -0.3292    2.9031    0.0006 O.2     1  LIG1       -0.4624
      6 H          -0.5702    0.8436    0.0010 H       1  LIG1        0.1029
      7 H           2.1804    0.7896   -0.0005 H       1  LIG1        0.0649
      8 H           2.9137    3.4238   -0.0007 H       1  LIG1        0.0655
      9 C           0.4457    5.1638    0.0001 C.ar    1  LIG1        0.0550
     10 C          -0.7915    5.7741    0.0007 C.ar    1  LIG1       -0.0433
     11 C          -0.7236    7.1871    0.0005 C.ar    1  LIG1       -0.0448
     12 C           0.5648    7.6832   -0.0001 C.ar    1  LIG1        0.0362
     13 S           1.7235    6.3618   -0.0006 S.2     1  LIG1       -0.0837
     14 H          -1.7146    5.2081    0.0012 H       1  LIG1        0.0630
     15 H          -1.5978    7.8274    0.0009 H       1  LIG1        0.0630
     16 C           0.9834    9.0634   -0.0004 C.ar    1  LIG1        0.0537
     17 C           0.2059   10.2333   -0.0003 C.ar    1  LIG1       -0.0352
     18 C           1.0768   11.3322   -0.0008 C.ar    1  LIG1       -0.0326
     19 C           2.3791   10.8324   -0.0010 C.ar    1  LIG1        0.0880
     20 N           2.2951    9.4564   -0.0009 N.ar    1  LIG1       -0.3512
     21 H           3.1158    8.8670   -0.0010 H       1  LIG1        0.1660
     22 H          -0.8737   10.2646    0.0000 H       1  LIG1        0.0639
     23 H           0.8172   12.3801   -0.0009 H       1  LIG1        0.0640
     24 C           3.6556   11.4899   -0.0014 C.ar    1  LIG1        0.2193
     25 N           4.7577   10.6971   -0.0016 N.ar    1  LIG1       -0.1243
     26 C           5.9457   12.6269   -0.0022 C.ar    1  LIG1        0.1605
     27 N           3.6829   12.8482   -0.0015 N.ar    1  LIG1       -0.1243
     28 N           5.9351   11.2882   -0.0021 N.ar    1  LIG1       -0.1338
     29 N           4.8641   13.4244   -0.0020 N.ar    1  LIG1       -0.1338
     30 H           6.9150   13.1133   -0.0028 H       1  LIG1        0.1085
@<TRIPOS>BOND
     1    30    26    1
     2    26    28   ar
     3    26    29   ar
     4    28    25   ar
     5    29    27   ar
     6    25    24   ar
     7    27    24   ar
     8    24    19    1
     9    19    20   ar
    10    19    18   ar
    11    21    20    1
    12    20    16   ar
    13    23    18    1
    14    18    17   ar
    15     8     3    1
    16    13    12   ar
    17    13     9   ar
    18     7     2    1
    19    16    17   ar
    20    16    12    1
    21     3     2   ar
    22     3     4   ar
    23    17    22    1
    24     2     1   ar
    25    12    11   ar
    26     4     9    1
    27     4     5   ar
    28     9    10   ar
    29    11    10   ar
    30    11    15    1
    31     5     1   ar
    32     1     6    1
    33    10    14    1
