@<TRIPOS>MOLECULE
mol_data/opt/b3lyp/geoms/mol2/125-412-.out
 33 36 0 0 0
SMALL
GASTEIGER

@<TRIPOS>ATOM
      1 C           0.1998    1.5626   -0.0013 C.ar    1  LIG1        0.0926
      2 C           1.5610    1.5961   -0.0012 C.ar    1  LIG1       -0.0233
      3 C           1.9269    2.9770   -0.0005 C.ar    1  LIG1       -0.0154
      4 C           0.7553    3.6937   -0.0004 C.ar    1  LIG1        0.1413
      5 O          -0.3092    2.8275   -0.0008 O.2     1  LIG1       -0.4624
      6 H          -0.5260    0.7649   -0.0017 H       1  LIG1        0.1029
      7 H           2.2246    0.7438   -0.0015 H       1  LIG1        0.0649
      8 H           2.9263    3.3874   -0.0003 H       1  LIG1        0.0655
      9 C           0.4395    5.0992    0.0002 C.ar    1  LIG1        0.0550
     10 C          -0.8048    5.6924    0.0005 C.ar    1  LIG1       -0.0434
     11 C          -0.7506    7.1072    0.0011 C.ar    1  LIG1       -0.0462
     12 C           0.5280    7.6266    0.0012 C.ar    1  LIG1        0.0200
     13 S           1.6996    6.3127    0.0006 S.2     1  LIG1       -0.0852
     14 H          -1.7225    5.1175    0.0003 H       1  LIG1        0.0630
     15 H          -1.6397    7.7263    0.0014 H       1  LIG1        0.0629
     16 C           2.3131    9.3935    0.0029 C.ar    1  LIG1       -0.0529
     17 C           2.7073   10.7242    0.0034 C.ar    1  LIG1       -0.0505
     18 C           0.9540    9.0257    0.0018 C.ar    1  LIG1       -0.0113
     19 C           1.7560   11.7591    0.0029 C.ar    1  LIG1        0.0173
     20 H           3.7626   10.9726    0.0043 H       1  LIG1        0.0625
     21 C           0.0053   10.0699    0.0012 C.ar    1  LIG1       -0.0529
     22 C           0.3950   11.3995    0.0017 C.ar    1  LIG1       -0.0505
     23 H          -1.0542    9.8377    0.0003 H       1  LIG1        0.0624
     24 H           3.0804    8.6247    0.0035 H       1  LIG1        0.0624
     25 H          -0.3673   12.1724    0.0012 H       1  LIG1        0.0625
     26 C           2.1590   13.1567    0.0034 C.ar    1  LIG1        0.1348
     27 C           1.4687   14.3439    0.0034 C.ar    1  LIG1       -0.0159
     28 C           2.4420   15.3895    0.0041 C.ar    1  LIG1       -0.0233
     29 C           3.6574   14.7754    0.0046 C.ar    1  LIG1        0.0926
     30 O           3.5059   13.4221    0.0042 O.2     1  LIG1       -0.4629
     31 H           4.6740   15.1354    0.0052 H       1  LIG1        0.1029
     32 H           0.3950   14.4608    0.0029 H       1  LIG1        0.0655
     33 H           2.2595   16.4542    0.0043 H       1  LIG1        0.0649
@<TRIPOS>BOND
     1     6     1    1
     2     7     2    1
     3     1     2   ar
     4     1     5   ar
     5     2     3   ar
     6     5     4   ar
     7     3     4   ar
     8     3     8    1
     9     4     9    1
    10     9    10   ar
    11     9    13   ar
    12    23    21    1
    13    14    10    1
    14    10    11   ar
    15    13    12   ar
    16    11    12   ar
    17    11    15    1
    18    21    22   ar
    19    21    18   ar
    20    25    22    1
    21    12    18    1
    22    22    19   ar
    23    18    16   ar
    24    19    26    1
    25    19    17   ar
    26    32    27    1
    27    16    17   ar
    28    16    24    1
    29    27    26   ar
    30    27    28   ar
    31    26    30   ar
    32    17    20    1
    33    28    33    1
    34    28    29   ar
    35    30    29   ar
    36    29    31    1
