@<TRIPOS>MOLECULE
mol_data/opt/b3lyp/geoms/mol2/125-.out
 16 17 0 0 0
SMALL
GASTEIGER

@<TRIPOS>ATOM
      1 C           0.2262    1.7590   -0.0001 C.ar    1  LIG1        0.0926
      2 C           1.5871    1.7880   -0.0001 C.ar    1  LIG1       -0.0233
      3 C           1.9568    3.1687   -0.0000 C.ar    1  LIG1       -0.0154
      4 C           0.7881    3.8878    0.0001 C.ar    1  LIG1        0.1413
      5 O          -0.2787    3.0259    0.0000 O.2     1  LIG1       -0.4624
      6 H          -0.5025    0.9636   -0.0002 H       1  LIG1        0.1029
      7 H           2.2488    0.9336   -0.0002 H       1  LIG1        0.0649
      8 H           2.9572    3.5763   -0.0000 H       1  LIG1        0.0655
      9 C           0.4749    5.2973    0.0002 C.ar    1  LIG1        0.0544
     10 C          -0.7677    5.8914    0.0004 C.ar    1  LIG1       -0.0440
     11 C          -0.7087    7.3142    0.0005 C.ar    1  LIG1       -0.0540
     12 C           0.5708    7.7957    0.0003 C.ar    1  LIG1       -0.0236
     13 S           1.7390    6.5098    0.0000 S.2     1  LIG1       -0.0936
     14 H           0.9056    8.8239    0.0004 H       1  LIG1        0.0693
     15 H          -1.6848    5.3163    0.0005 H       1  LIG1        0.0630
     16 H          -1.5846    7.9536    0.0006 H       1  LIG1        0.0623
@<TRIPOS>BOND
     1     7     2    1
     2     6     1    1
     3     2     1   ar
     4     2     3   ar
     5     1     5   ar
     6     3     8    1
     7     3     4   ar
     8     5     4   ar
     9    13     9   ar
    10    13    12   ar
    11     4     9    1
    12     9    10   ar
    13    12    14    1
    14    12    11   ar
    15    10    11   ar
    16    10    15    1
    17    11    16    1
