@<TRIPOS>MOLECULE
mol_data/opt/b3lyp/geoms/mol2/125-13.out
 24 26 0 0 0
SMALL
GASTEIGER

@<TRIPOS>ATOM
      1 C           0.2281    1.6651   -0.0003 C.ar    1  LIG1        0.0926
      2 C           1.5888    1.7046   -0.0001 C.ar    1  LIG1       -0.0233
      3 C           1.9493    3.0875   -0.0001 C.ar    1  LIG1       -0.0154
      4 C           0.7751    3.7993   -0.0000 C.ar    1  LIG1        0.1413
      5 O          -0.2862    2.9290   -0.0000 O.2     1  LIG1       -0.4624
      6 H          -0.4950    0.8649   -0.0005 H       1  LIG1        0.1029
      7 H           2.2562    0.8552   -0.0002 H       1  LIG1        0.0649
      8 H           2.9470    3.5020   -0.0001 H       1  LIG1        0.0655
      9 C           0.4547    5.2039    0.0002 C.ar    1  LIG1        0.0550
     10 C          -0.7882    5.7963    0.0004 C.ar    1  LIG1       -0.0433
     11 C          -0.7371    7.2136    0.0006 C.ar    1  LIG1       -0.0448
     12 C           0.5438    7.7276    0.0004 C.ar    1  LIG1        0.0361
     13 S           1.7175    6.4215    0.0000 S.2     1  LIG1       -0.0837
     14 H          -1.7055    5.2207    0.0006 H       1  LIG1        0.0630
     15 H          -1.6291    7.8308    0.0008 H       1  LIG1        0.0630
     16 C           0.9833    9.1040    0.0004 C.ar    1  LIG1        0.0531
     17 C           2.2574    9.6623    0.0007 C.ar    1  LIG1       -0.0359
     18 C           2.1176   11.0726    0.0004 C.ar    1  LIG1       -0.0438
     19 C           0.7662   11.3528    0.0005 C.ar    1  LIG1        0.0022
     20 N           0.0896   10.1596    0.0002 N.ar    1  LIG1       -0.3603
     21 H          -0.9125   10.0645   -0.0002 H       1  LIG1        0.1653
     22 H           0.2367   12.2936    0.0005 H       1  LIG1        0.0807
     23 H           3.1840    9.1057    0.0010 H       1  LIG1        0.0639
     24 H           2.9150   11.8016    0.0003 H       1  LIG1        0.0633
@<TRIPOS>BOND
     1     6     1    1
     2     1     2   ar
     3     1     5   ar
     4    21    20    1
     5     7     2    1
     6     3     2   ar
     7     3     8    1
     8     3     4   ar
     9     5     4   ar
    10     4     9    1
    11    13     9   ar
    12    13    12   ar
    13     9    10   ar
    14    20    16   ar
    15    20    19   ar
    16    24    18    1
    17    18    19   ar
    18    18    17   ar
    19    12    16    1
    20    12    11   ar
    21    10    11   ar
    22    10    14    1
    23    16    17   ar
    24    19    22    1
    25    11    15    1
    26    17    23    1
