@<TRIPOS>MOLECULE
mol_data/opt/b3lyp/geoms/mol2/125-8.out
 22 24 0 0 0
SMALL
GASTEIGER

@<TRIPOS>ATOM
      1 C           0.2166    1.7141    0.0001 C.ar    1  LIG1        0.0926
      2 C           1.5795    1.7397   -0.0002 C.ar    1  LIG1       -0.0233
      3 C           1.9515    3.1169   -0.0000 C.ar    1  LIG1       -0.0154
      4 C           0.7829    3.8396    0.0000 C.ar    1  LIG1        0.1413
      5 O          -0.2862    2.9787    0.0000 O.2     1  LIG1       -0.4624
      6 H          -0.5123    0.9191    0.0002 H       1  LIG1        0.1029
      7 H           2.2385    0.8840   -0.0003 H       1  LIG1        0.0649
      8 H           2.9530    3.5226   -0.0001 H       1  LIG1        0.0655
      9 C           0.4763    5.2460    0.0001 C.ar    1  LIG1        0.0551
     10 C          -0.7784    5.8331    0.0003 C.ar    1  LIG1       -0.0433
     11 C          -0.7258    7.2425    0.0003 C.ar    1  LIG1       -0.0431
     12 C           0.5629    7.7379    0.0001 C.ar    1  LIG1        0.0605
     13 S           1.7448    6.4461   -0.0000 S.2     1  LIG1       -0.0820
     14 H          -1.6925    5.2532    0.0005 H       1  LIG1        0.0630
     15 H          -1.5906    7.8944    0.0004 H       1  LIG1        0.0630
     16 C           0.9818    9.1203    0.0001 C.ar    1  LIG1        0.2099
     17 N           2.3126    9.3734    0.0000 N.ar    1  LIG1       -0.1253
     18 C           1.7328   11.5647    0.0001 C.ar    1  LIG1        0.1605
     19 N           0.0179   10.0749    0.0002 N.ar    1  LIG1       -0.1253
     20 N           2.6954   10.6336   -0.0000 N.ar    1  LIG1       -0.1339
     21 N           0.4117   11.3309    0.0002 N.ar    1  LIG1       -0.1339
     22 H           2.0492   12.6021   -0.0001 H       1  LIG1        0.1085
@<TRIPOS>BOND
     1     7     2    1
     2     2     3   ar
     3     2     1   ar
     4    22    18    1
     5     8     3    1
     6    13     9   ar
     7    13    12   ar
     8     3     4   ar
     9    20    17   ar
    10    20    18   ar
    11    17    16   ar
    12     4     5   ar
    13     4     9    1
    14     5     1   ar
    15     1     6    1
    16    16    12    1
    17    16    19   ar
    18     9    10   ar
    19    18    21   ar
    20    12    11   ar
    21    21    19   ar
    22    11    10   ar
    23    11    15    1
    24    10    14    1
