@<TRIPOS>MOLECULE
mol_data/opt/b3lyp/geoms/mol2/125-135-.out
 31 34 0 0 0
SMALL
GASTEIGER

@<TRIPOS>ATOM
      1 C           0.2954    1.5622   -0.0006 C.ar    1  LIG1        0.0926
      2 C           1.6557    1.6175   -0.0008 C.ar    1  LIG1       -0.0233
      3 C           2.0000    3.0044   -0.0006 C.ar    1  LIG1       -0.0154
      4 C           0.8173    3.7025   -0.0002 C.ar    1  LIG1        0.1413
      5 O          -0.2335    2.8197   -0.0002 O.2     1  LIG1       -0.4624
      6 H          -0.4180    0.7533   -0.0007 H       1  LIG1        0.1029
      7 H           2.3328    0.7759   -0.0011 H       1  LIG1        0.0649
      8 H           2.9930    3.4305   -0.0007 H       1  LIG1        0.0655
      9 C           0.4797    5.1024    0.0002 C.ar    1  LIG1        0.0550
     10 C          -0.7725    5.6773    0.0007 C.ar    1  LIG1       -0.0433
     11 C          -0.7421    7.0937    0.0010 C.ar    1  LIG1       -0.0448
     12 C           0.5325    7.6264    0.0007 C.ar    1  LIG1        0.0362
     13 S           1.7254    6.3370    0.0000 S.2     1  LIG1       -0.0837
     14 H          -1.6811    5.0881    0.0009 H       1  LIG1        0.0630
     15 H          -1.6430    7.6979    0.0015 H       1  LIG1        0.0630
     16 C           0.9484    9.0066    0.0009 C.ar    1  LIG1        0.0536
     17 C           2.2168    9.5849    0.0010 C.ar    1  LIG1       -0.0353
     18 C           2.0572   10.9847    0.0012 C.ar    1  LIG1       -0.0353
     19 C           0.6920   11.2629    0.0011 C.ar    1  LIG1        0.0536
     20 N           0.0403   10.0468    0.0010 N.ar    1  LIG1       -0.3533
     21 H          -0.9596    9.9338    0.0004 H       1  LIG1        0.1659
     22 H           3.1522    9.0436    0.0011 H       1  LIG1        0.0639
     23 H           2.8464   11.7229    0.0014 H       1  LIG1        0.0639
     24 C          -0.0242   12.5175    0.0011 C.ar    1  LIG1        0.0355
     25 C          -1.3851   12.7481    0.0018 C.ar    1  LIG1       -0.0455
     26 C          -1.7289   14.1301    0.0016 C.ar    1  LIG1       -0.0541
     27 C          -0.6366   14.9511    0.0008 C.ar    1  LIG1       -0.0237
     28 S           0.8438   14.0420    0.0003 S.2     1  LIG1       -0.0952
     29 H          -0.6035   16.0312    0.0005 H       1  LIG1        0.0693
     30 H          -2.1275   11.9572    0.0025 H       1  LIG1        0.0629
     31 H          -2.7494   14.4952    0.0020 H       1  LIG1        0.0623
@<TRIPOS>BOND
     1     7     2    1
     2     2     1   ar
     3     2     3   ar
     4     6     1    1
     5     8     3    1
     6     1     5   ar
     7     3     4   ar
     8     5     4   ar
     9     4     9    1
    10    13     9   ar
    11    13    12   ar
    12     9    10   ar
    13    28    27   ar
    14    28    24   ar
    15    21    20    1
    16    29    27    1
    17    10    14    1
    18    10    11   ar
    19    12    16    1
    20    12    11   ar
    21    27    26   ar
    22    16    20   ar
    23    16    17   ar
    24    20    19   ar
    25    11    15    1
    26    17    22    1
    27    17    18   ar
    28    19    24    1
    29    19    18   ar
    30    24    25   ar
    31    18    23    1
    32    26    25   ar
    33    26    31    1
    34    25    30    1
