@<TRIPOS>MOLECULE
mol_data/opt/b3lyp/geoms/mol2/125.out
 16 17 0 0 0
SMALL
GASTEIGER

@<TRIPOS>ATOM
      1 C           0.2241    1.7831    0.0001 C.ar    1  LIG1        0.0926
      2 C           1.5857    1.7834    0.0001 C.ar    1  LIG1       -0.0233
      3 C           1.9873    3.1551   -0.0001 C.ar    1  LIG1       -0.0154
      4 C           0.8347    3.9008   -0.0002 C.ar    1  LIG1        0.1413
      5 O          -0.2497    3.0622   -0.0001 O.2     1  LIG1       -0.4624
      6 H          -0.5228    1.0054    0.0002 H       1  LIG1        0.1029
      7 H           2.2279    0.9148    0.0002 H       1  LIG1        0.0649
      8 H           2.9965    3.5399   -0.0001 H       1  LIG1        0.0655
      9 C           0.5688    5.3197   -0.0004 C.ar    1  LIG1        0.0544
     10 C           1.4751    6.3582   -0.0008 C.ar    1  LIG1       -0.0440
     11 C           0.8585    7.6406   -0.0008 C.ar    1  LIG1       -0.0540
     12 C          -0.5081    7.5737   -0.0004 C.ar    1  LIG1       -0.0236
     13 S          -1.0720    5.9328   -0.0001 S.2     1  LIG1       -0.0936
     14 H          -1.2209    8.3861   -0.0004 H       1  LIG1        0.0693
     15 H           2.5480    6.2043   -0.0011 H       1  LIG1        0.0630
     16 H           1.4102    8.5735   -0.0011 H       1  LIG1        0.0623
@<TRIPOS>BOND
     1    16    11    1
     2    15    10    1
     3    11    10   ar
     4    11    12   ar
     5    10     9   ar
     6    12    14    1
     7    12    13   ar
     8     9     4    1
     9     9    13   ar
    10     4     5   ar
    11     4     3   ar
    12     8     3    1
    13     5     1   ar
    14     3     2   ar
    15     2     1   ar
    16     2     7    1
    17     1     6    1
