@<TRIPOS>MOLECULE
mol_data/opt/b3lyp/geoms/mol2/12513-.out
 24 26 0 0 0
SMALL
GASTEIGER

@<TRIPOS>ATOM
      1 C           0.2805    1.6958    0.0001 C.ar    1  LIG1        0.0926
      2 C           1.6422    1.7021    0.0003 C.ar    1  LIG1       -0.0233
      3 C           2.0389    3.0747   -0.0001 C.ar    1  LIG1       -0.0154
      4 C           0.8824    3.8168   -0.0001 C.ar    1  LIG1        0.1413
      5 O          -0.1987    2.9734    0.0001 O.2     1  LIG1       -0.4624
      6 H          -0.4635    0.9154    0.0002 H       1  LIG1        0.1029
      7 H           2.2879    0.8359    0.0005 H       1  LIG1        0.0649
      8 H           3.0466    3.4630   -0.0002 H       1  LIG1        0.0655
      9 C           0.6101    5.2313   -0.0003 C.ar    1  LIG1        0.0550
     10 C           1.5073    6.2774   -0.0008 C.ar    1  LIG1       -0.0433
     11 C           0.8877    7.5517   -0.0009 C.ar    1  LIG1       -0.0448
     12 C          -0.4925    7.5001   -0.0004 C.ar    1  LIG1        0.0361
     13 S          -1.0376    5.8335    0.0001 S.2     1  LIG1       -0.0837
     14 H           2.5816    6.1332   -0.0012 H       1  LIG1        0.0630
     15 H           1.4537    8.4773   -0.0013 H       1  LIG1        0.0630
     16 C          -1.4491    8.5833   -0.0004 C.ar    1  LIG1        0.0531
     17 C          -2.8402    8.5816   -0.0005 C.ar    1  LIG1       -0.0359
     18 C          -3.2799    9.9289   -0.0001 C.ar    1  LIG1       -0.0438
     19 C          -2.1559   10.7295   -0.0004 C.ar    1  LIG1        0.0022
     20 N          -1.0561    9.9095   -0.0002 N.ar    1  LIG1       -0.3603
     21 H          -0.1006   10.2259    0.0001 H       1  LIG1        0.1653
     22 H          -2.0499   11.8038   -0.0004 H       1  LIG1        0.0807
     23 H          -3.4645    7.6991   -0.0007 H       1  LIG1        0.0639
     24 H          -4.3033   10.2751    0.0001 H       1  LIG1        0.0633
@<TRIPOS>BOND
     1    15    11    1
     2    14    10    1
     3    11    10   ar
     4    11    12   ar
     5    10     9   ar
     6    23    17    1
     7    17    16   ar
     8    17    18   ar
     9    12    16    1
    10    12    13   ar
    11    22    19    1
    12    19    20   ar
    13    19    18   ar
    14    16    20   ar
    15     9     4    1
    16     9    13   ar
    17    20    21    1
    18     8     3    1
    19     4     3   ar
    20     4     5   ar
    21     3     2   ar
    22    18    24    1
    23     5     1   ar
    24     1     6    1
    25     1     2   ar
    26     2     7    1
