@<TRIPOS>MOLECULE
mol_data/opt/b3lyp/geoms/mol2/125138-.out
 30 33 0 0 0
SMALL
GASTEIGER

@<TRIPOS>ATOM
      1 C           0.3718    1.6575    0.0005 C.ar    1  LIG1        0.0926
      2 C           1.7338    1.6859   -0.0004 C.ar    1  LIG1       -0.0233
      3 C           2.1075    3.0641   -0.0006 C.ar    1  LIG1       -0.0154
      4 C           0.9383    3.7862   -0.0002 C.ar    1  LIG1        0.1413
      5 O          -0.1289    2.9256    0.0004 O.2     1  LIG1       -0.4624
      6 H          -0.3583    0.8641    0.0011 H       1  LIG1        0.1029
      7 H           2.3936    0.8305   -0.0007 H       1  LIG1        0.0649
      8 H           3.1087    3.4693   -0.0012 H       1  LIG1        0.0655
      9 C           0.6435    5.1950   -0.0003 C.ar    1  LIG1        0.0550
     10 C           1.5234    6.2590   -0.0011 C.ar    1  LIG1       -0.0433
     11 C           0.8846    7.5198   -0.0009 C.ar    1  LIG1       -0.0448
     12 C          -0.4949    7.4427    0.0001 C.ar    1  LIG1        0.0362
     13 S          -1.0125    5.7657    0.0007 S.2     1  LIG1       -0.0837
     14 H           2.5995    6.1312   -0.0018 H       1  LIG1        0.0630
     15 H           1.4208    8.4614   -0.0014 H       1  LIG1        0.0630
     16 C          -1.4395    8.5329    0.0005 C.ar    1  LIG1        0.0537
     17 C          -1.2066    9.9182    0.0006 C.ar    1  LIG1       -0.0352
     18 C          -2.4496   10.5667    0.0012 C.ar    1  LIG1       -0.0326
     19 C          -3.4351    9.5794    0.0012 C.ar    1  LIG1        0.0880
     20 N          -2.7975    8.3572    0.0009 N.ar    1  LIG1       -0.3512
     21 H          -3.3057    7.4837    0.0008 H       1  LIG1        0.1660
     22 H          -0.2334   10.3869    0.0005 H       1  LIG1        0.0639
     23 H          -2.6400   11.6294    0.0014 H       1  LIG1        0.0640
     24 C          -4.8686    9.6614    0.0015 C.ar    1  LIG1        0.2193
     25 N          -5.5541    8.4896    0.0015 N.ar    1  LIG1       -0.1243
     26 C          -7.4231    9.7713    0.0022 C.ar    1  LIG1        0.1605
     27 N          -5.4448   10.8918    0.0018 N.ar    1  LIG1       -0.1243
     28 N          -6.8701    8.5521    0.0019 N.ar    1  LIG1       -0.1338
     29 N          -6.7582   10.9391    0.0022 N.ar    1  LIG1       -0.1338
     30 H          -8.5064    9.8223    0.0028 H       1  LIG1        0.1085
@<TRIPOS>BOND
     1    14    10    1
     2    15    11    1
     3     8     3    1
     4    10    11   ar
     5    10     9   ar
     6    11    12   ar
     7     7     2    1
     8     3     2   ar
     9     3     4   ar
    10     2     1   ar
    11     9     4    1
    12     9    13   ar
    13     4     5   ar
    14    12    16    1
    15    12    13   ar
    16     5     1   ar
    17    22    17    1
    18    16    17   ar
    19    16    20   ar
    20     1     6    1
    21    17    18   ar
    22    21    20    1
    23    20    19   ar
    24    18    19   ar
    25    18    23    1
    26    19    24    1
    27    24    25   ar
    28    24    27   ar
    29    25    28   ar
    30    27    29   ar
    31    28    26   ar
    32    26    29   ar
    33    26    30    1
