@<TRIPOS>MOLECULE
mol_data/opt/b3lyp/geoms/mol2/125128.out
 29 32 0 0 0
SMALL
GASTEIGER

@<TRIPOS>ATOM
      1 C           0.4903    1.6437   -0.0001 C.ar    1  LIG1        0.0926
      2 C           1.8514    1.7109    0.0001 C.ar    1  LIG1       -0.0233
      3 C           2.1846    3.0989   -0.0002 C.ar    1  LIG1       -0.0154
      4 C           0.9949    3.7872   -0.0002 C.ar    1  LIG1        0.1413
      5 O          -0.0466    2.8958    0.0000 O.2     1  LIG1       -0.4624
      6 H          -0.2169    0.8296   -0.0000 H       1  LIG1        0.1029
      7 H           2.5353    0.8750    0.0003 H       1  LIG1        0.0649
      8 H           3.1735    3.5328   -0.0003 H       1  LIG1        0.0655
      9 C           0.6596    5.1870   -0.0003 C.ar    1  LIG1        0.0551
     10 C           1.5216    6.2689   -0.0007 C.ar    1  LIG1       -0.0433
     11 C           0.8542    7.5122   -0.0007 C.ar    1  LIG1       -0.0433
     12 C          -0.5238    7.3935   -0.0002 C.ar    1  LIG1        0.0551
     13 S          -1.0089    5.7107    0.0002 S.2     1  LIG1       -0.0821
     14 H           2.6002    6.1652   -0.0011 H       1  LIG1        0.0630
     15 H           1.3654    8.4679   -0.0011 H       1  LIG1        0.0630
     16 C          -1.4967    8.4487   -0.0001 C.ar    1  LIG1        0.1424
     17 C          -1.3923    9.8285    0.0001 C.ar    1  LIG1       -0.0146
     18 C          -2.7127   10.3316    0.0002 C.ar    1  LIG1       -0.0120
     19 C          -3.5516    9.2398    0.0002 C.ar    1  LIG1        0.1760
     20 O          -2.8102    8.0886   -0.0000 O.2     1  LIG1       -0.4511
     21 H          -0.4754   10.3986    0.0001 H       1  LIG1        0.0656
     22 H          -3.0322   11.3626    0.0003 H       1  LIG1        0.0657
     23 C          -4.9894    9.1372    0.0003 C.ar    1  LIG1        0.2381
     24 N          -5.6704   10.3116    0.0004 N.ar    1  LIG1       -0.1226
     25 C          -7.5393    9.0257    0.0004 C.ar    1  LIG1        0.1605
     26 N          -5.5594    7.9088    0.0004 N.ar    1  LIG1       -0.1226
     27 N          -6.9834   10.2480    0.0005 N.ar    1  LIG1       -0.1338
     28 N          -6.8785    7.8618    0.0005 N.ar    1  LIG1       -0.1338
     29 H          -8.6230    8.9787    0.0010 H       1  LIG1        0.1085
@<TRIPOS>BOND
     1    14    10    1
     2    15    11    1
     3    10    11   ar
     4    10     9   ar
     5    11    12   ar
     6     8     3    1
     7     9     4    1
     8     9    13   ar
     9    12    16    1
    10    12    13   ar
    11     3     4   ar
    12     3     2   ar
    13     4     5   ar
    14    16    20   ar
    15    16    17   ar
    16     1     6    1
    17     1     5   ar
    18     1     2   ar
    19    20    19   ar
    20    17    21    1
    21    17    18   ar
    22     2     7    1
    23    19    18   ar
    24    19    23    1
    25    18    22    1
    26    23    26   ar
    27    23    24   ar
    28    26    28   ar
    29    25    28   ar
    30    25    27   ar
    31    25    29    1
    32    24    27   ar
