@<TRIPOS>MOLECULE
mol_data/opt/b3lyp/geoms/mol2/1255.out
 23 25 0 0 0
SMALL
GASTEIGER

@<TRIPOS>ATOM
      1 C           0.2874    1.6962    0.0005 C.ar    1  LIG1        0.0926
      2 C           1.6494    1.7058    0.0000 C.ar    1  LIG1       -0.0233
      3 C           2.0421    3.0792   -0.0002 C.ar    1  LIG1       -0.0154
      4 C           0.8835    3.8179   -0.0001 C.ar    1  LIG1        0.1413
      5 O          -0.1952    2.9716    0.0002 O.2     1  LIG1       -0.4624
      6 H          -0.4539    0.9133    0.0008 H       1  LIG1        0.1029
      7 H           2.2974    0.8413    0.0000 H       1  LIG1        0.0649
      8 H           3.0488    3.4705   -0.0004 H       1  LIG1        0.0655
      9 C           0.6085    5.2315   -0.0004 C.ar    1  LIG1        0.0550
     10 C           1.5062    6.2796   -0.0009 C.ar    1  LIG1       -0.0434
     11 C           0.8871    7.5511   -0.0009 C.ar    1  LIG1       -0.0457
     12 C          -0.4938    7.4992   -0.0005 C.ar    1  LIG1        0.0266
     13 S          -1.0365    5.8302    0.0001 S.2     1  LIG1       -0.0847
     14 H           2.5805    6.1353   -0.0013 H       1  LIG1        0.0630
     15 H           1.4411    8.4823   -0.0014 H       1  LIG1        0.0629
     16 C          -1.4225    8.6126   -0.0004 C.ar    1  LIG1        0.0259
     17 C          -1.1263    9.9614   -0.0003 C.ar    1  LIG1       -0.0464
     18 C          -2.2765   10.7972   -0.0002 C.ar    1  LIG1       -0.0541
     19 C          -3.4492   10.0929   -0.0003 C.ar    1  LIG1       -0.0237
     20 S          -3.1632    8.3823   -0.0005 S.2     1  LIG1       -0.0961
     21 H          -4.4628   10.4681   -0.0002 H       1  LIG1        0.0693
     22 H          -0.1115   10.3410   -0.0003 H       1  LIG1        0.0629
     23 H          -2.2326   11.8804   -0.0001 H       1  LIG1        0.0623
@<TRIPOS>BOND
     1    15    11    1
     2    14    10    1
     3    11    10   ar
     4    11    12   ar
     5    10     9   ar
     6    12    16    1
     7    12    13   ar
     8    20    16   ar
     9    20    19   ar
    10    16    17   ar
    11     9     4    1
    12     9    13   ar
    13     8     3    1
    14    17    22    1
    15    17    18   ar
    16    19    18   ar
    17    19    21    1
    18    18    23    1
    19     3     4   ar
    20     3     2   ar
    21     4     5   ar
    22     7     2    1
    23     2     1   ar
    24     5     1   ar
    25     1     6    1
