@<TRIPOS>MOLECULE
mol_data/opt/b3lyp/geoms/mol2/1258-5-.out
 29 32 0 0 0
SMALL
GASTEIGER

@<TRIPOS>ATOM
      1 C           0.3373    1.6720    0.0001 C.ar    1  LIG1        0.0926
      2 C           1.7001    1.7022   -0.0004 C.ar    1  LIG1       -0.0233
      3 C           2.0698    3.0802   -0.0004 C.ar    1  LIG1       -0.0154
      4 C           0.8988    3.8005   -0.0003 C.ar    1  LIG1        0.1413
      5 O          -0.1660    2.9368   -0.0000 O.2     1  LIG1       -0.4624
      6 H          -0.3905    0.8765    0.0004 H       1  LIG1        0.1029
      7 H           2.3613    0.8480   -0.0006 H       1  LIG1        0.0649
      8 H           3.0701    3.4878   -0.0006 H       1  LIG1        0.0655
      9 C           0.6037    5.2091   -0.0003 C.ar    1  LIG1        0.0551
     10 C           1.5056    6.2613   -0.0007 C.ar    1  LIG1       -0.0433
     11 C           0.8799    7.5245   -0.0005 C.ar    1  LIG1       -0.0431
     12 C          -0.4994    7.4449   -0.0000 C.ar    1  LIG1        0.0605
     13 S          -1.0463    5.7831    0.0003 S.2     1  LIG1       -0.0820
     14 H           2.5799    6.1198   -0.0012 H       1  LIG1        0.0630
     15 H           1.4015    8.4735   -0.0008 H       1  LIG1        0.0630
     16 C          -1.4461    8.5360    0.0003 C.ar    1  LIG1        0.2099
     17 N          -2.7660    8.2295    0.0006 N.ar    1  LIG1       -0.1247
     18 C          -3.1455   10.4770    0.0007 C.ar    1  LIG1        0.2099
     19 N          -0.9611    9.8017    0.0001 N.ar    1  LIG1       -0.1247
     20 N          -3.6305    9.2132    0.0009 N.ar    1  LIG1       -0.1247
     21 N          -1.8269   10.7838    0.0004 N.ar    1  LIG1       -0.1247
     22 C          -4.0957   11.5712    0.0010 C.ar    1  LIG1        0.0598
     23 C          -5.4723   11.4926    0.0014 C.ar    1  LIG1       -0.0438
     24 C          -6.0966   12.7672    0.0015 C.ar    1  LIG1       -0.0540
     25 C          -5.1898   13.7968    0.0012 C.ar    1  LIG1       -0.0236
     26 S          -3.5540   13.2342    0.0008 S.2     1  LIG1       -0.0934
     27 H          -5.3907   14.8595    0.0011 H       1  LIG1        0.0693
     28 H          -5.9946   10.5440    0.0016 H       1  LIG1        0.0630
     29 H          -7.1700   12.9156    0.0018 H       1  LIG1        0.0623
@<TRIPOS>BOND
     1    14    10    1
     2    15    11    1
     3    10    11   ar
     4    10     9   ar
     5     8     3    1
     6     7     2    1
     7    11    12   ar
     8     3     2   ar
     9     3     4   ar
    10     2     1   ar
    11     9     4    1
    12     9    13   ar
    13     4     5   ar
    14     5     1   ar
    15    12    16    1
    16    12    13   ar
    17     1     6    1
    18    19    16   ar
    19    19    21   ar
    20    16    17   ar
    21    21    18   ar
    22    17    20   ar
    23    18    20   ar
    24    18    22    1
    25    26    22   ar
    26    26    25   ar
    27    22    23   ar
    28    27    25    1
    29    25    24   ar
    30    23    24   ar
    31    23    28    1
    32    24    29    1
