@<TRIPOS>MOLECULE
mol_data/opt/b3lyp/geoms/mol2/128-13.out
 23 25 0 0 0
SMALL
GASTEIGER

@<TRIPOS>ATOM
      1 C           0.2546    1.7380   -0.0002 C.ar    1  LIG1        0.0927
      2 C           1.6187    1.8030   -0.0002 C.ar    1  LIG1       -0.0232
      3 C           1.9472    3.1894   -0.0001 C.ar    1  LIG1       -0.0126
      4 C           0.7534    3.8676   -0.0001 C.ar    1  LIG1        0.1751
      5 O          -0.2879    2.9814   -0.0002 O.2     1  LIG1       -0.4597
      6 H          -0.4488    0.9198   -0.0002 H       1  LIG1        0.1029
      7 H           2.3021    0.9666   -0.0003 H       1  LIG1        0.0649
      8 H           2.9261    3.6441    0.0000 H       1  LIG1        0.0656
      9 C           0.4526    5.2843    0.0000 C.ar    1  LIG1        0.2381
     10 N          -0.8363    5.6845    0.0000 N.ar    1  LIG1       -0.1220
     11 C          -0.0026    7.8183    0.0002 C.ar    1  LIG1        0.2194
     12 N           1.5200    6.1223    0.0001 N.ar    1  LIG1       -0.1220
     13 N          -1.0645    6.9788    0.0001 N.ar    1  LIG1       -0.1236
     14 N           1.2929    7.4094    0.0002 N.ar    1  LIG1       -0.1236
     15 C          -0.2781    9.2315    0.0002 C.ar    1  LIG1        0.0875
     16 C           0.5622   10.3414    0.0001 C.ar    1  LIG1       -0.0333
     17 C          -0.2598   11.4894    0.0005 C.ar    1  LIG1       -0.0437
     18 C          -1.5787   11.0567    0.0001 C.ar    1  LIG1        0.0023
     19 N          -1.5774    9.6945    0.0002 N.ar    1  LIG1       -0.3582
     20 H          -2.3756    9.0767    0.0002 H       1  LIG1        0.1654
     21 H          -2.5022   11.6163    0.0001 H       1  LIG1        0.0807
     22 H           1.6411   10.3004    0.0001 H       1  LIG1        0.0640
     23 H           0.0652   12.5197    0.0008 H       1  LIG1        0.0633
@<TRIPOS>BOND
     1     7     2    1
     2     2     1   ar
     3     2     3   ar
     4     5     1   ar
     5     5     4   ar
     6     6     1    1
     7     4     3   ar
     8     4     9    1
     9     3     8    1
    10    10     9   ar
    11    10    13   ar
    12     9    12   ar
    13    22    16    1
    14    21    18    1
    15    13    11   ar
    16    12    14   ar
    17    16    15   ar
    18    16    17   ar
    19    18    19   ar
    20    18    17   ar
    21    20    19    1
    22    14    11   ar
    23    11    15    1
    24    15    19   ar
    25    17    23    1
