@<TRIPOS>MOLECULE
mol_data/opt/b3lyp/geoms/mol2/128-54-.out
 32 35 0 0 0
SMALL
GASTEIGER

@<TRIPOS>ATOM
      1 C           0.3319    1.6374    0.0007 C.ar    1  LIG1        0.0927
      2 C           1.6960    1.7126    0.0003 C.ar    1  LIG1       -0.0232
      3 C           2.0135    3.1008    0.0001 C.ar    1  LIG1       -0.0126
      4 C           0.8139    3.7699    0.0002 C.ar    1  LIG1        0.1751
      5 O          -0.2202    2.8756    0.0004 O.2     1  LIG1       -0.4597
      6 H          -0.3648    0.8137    0.0010 H       1  LIG1        0.1029
      7 H           2.3858    0.8814    0.0003 H       1  LIG1        0.0649
      8 H           2.9887    3.5632   -0.0001 H       1  LIG1        0.0656
      9 C           0.5021    5.1830   -0.0000 C.ar    1  LIG1        0.2381
     10 N          -0.7915    5.5720    0.0001 N.ar    1  LIG1       -0.1220
     11 C           0.0194    7.7115   -0.0004 C.ar    1  LIG1        0.2099
     12 N           1.5608    6.0301   -0.0003 N.ar    1  LIG1       -0.1220
     13 N          -1.0329    6.8625   -0.0001 N.ar    1  LIG1       -0.1246
     14 N           1.3178    7.3150   -0.0005 N.ar    1  LIG1       -0.1246
     15 C          -0.2534    9.1313   -0.0007 C.ar    1  LIG1        0.0604
     16 C           0.6580   10.1670   -0.0012 C.ar    1  LIG1       -0.0432
     17 C           0.0461   11.4389   -0.0013 C.ar    1  LIG1       -0.0462
     18 C          -1.3377   11.3937   -0.0010 C.ar    1  LIG1        0.0200
     19 S          -1.8930    9.7322   -0.0004 S.2     1  LIG1       -0.0850
     20 H           1.7271    9.9945   -0.0014 H       1  LIG1        0.0630
     21 H           0.6116   12.3624   -0.0017 H       1  LIG1        0.0629
     22 C          -3.6764   12.3058   -0.0021 C.ar    1  LIG1       -0.0535
     23 C          -4.5642   13.3778   -0.0021 C.ar    1  LIG1       -0.0612
     24 C          -2.2844   12.5157   -0.0010 C.ar    1  LIG1       -0.0113
     25 C          -4.0865   14.6890   -0.0011 C.ar    1  LIG1       -0.0617
     26 H          -5.6331   13.1865   -0.0030 H       1  LIG1        0.0618
     27 C          -1.8190   13.8451    0.0000 C.ar    1  LIG1       -0.0535
     28 C          -2.7085   14.9150   -0.0001 C.ar    1  LIG1       -0.0612
     29 H          -0.7532   14.0462    0.0010 H       1  LIG1        0.0624
     30 H          -4.7791   15.5251   -0.0012 H       1  LIG1        0.0618
     31 H          -4.0717   11.2944   -0.0030 H       1  LIG1        0.0624
     32 H          -2.3230   15.9303    0.0007 H       1  LIG1        0.0618
@<TRIPOS>BOND
     1    31    22    1
     2    26    23    1
     3    23    22   ar
     4    23    25   ar
     5    22    24   ar
     6    21    17    1
     7    20    16    1
     8    17    16   ar
     9    17    18   ar
    10    16    15   ar
    11    30    25    1
    12    25    28   ar
    13    24    18    1
    14    24    27   ar
    15    18    19   ar
    16    15    11    1
    17    15    19   ar
    18    14    11   ar
    19    14    12   ar
    20    11    13   ar
    21    12     9   ar
    22    13    10   ar
    23     8     3    1
    24    28    27   ar
    25    28    32    1
    26     9    10   ar
    27     9     4    1
    28    27    29    1
    29     3     4   ar
    30     3     2   ar
    31     4     5   ar
    32     7     2    1
    33     2     1   ar
    34     5     1   ar
    35     1     6    1
