@<TRIPOS>MOLECULE
mol_data/opt/b3lyp/geoms/mol2/128-4-4.out
 35 38 0 0 0
SMALL
GASTEIGER

@<TRIPOS>ATOM
      1 C           0.3275    1.5993    0.0004 C.ar    1  LIG1        0.0927
      2 C           1.6911    1.6832    0.0012 C.ar    1  LIG1       -0.0232
      3 C           1.9995    3.0733    0.0009 C.ar    1  LIG1       -0.0126
      4 C           0.7959    3.7346    0.0002 C.ar    1  LIG1        0.1751
      5 O          -0.2326    2.8338   -0.0001 O.2     1  LIG1       -0.4597
      6 H          -0.3639    0.7712    0.0002 H       1  LIG1        0.1029
      7 H           2.3859    0.8565    0.0017 H       1  LIG1        0.0649
      8 H           2.9716    3.5420    0.0013 H       1  LIG1        0.0656
      9 C           0.4759    5.1463   -0.0003 C.ar    1  LIG1        0.2381
     10 N          -0.8199    5.5277   -0.0009 N.ar    1  LIG1       -0.1220
     11 C          -0.0270    7.6775   -0.0011 C.ar    1  LIG1        0.2034
     12 N           1.5269    5.9995   -0.0000 N.ar    1  LIG1       -0.1220
     13 N          -1.0690    6.8178   -0.0013 N.ar    1  LIG1       -0.1251
     14 N           1.2687    7.2832   -0.0004 N.ar    1  LIG1       -0.1251
     15 C          -1.6361    9.5901   -0.0024 C.ar    1  LIG1       -0.0504
     16 C          -1.9012   10.9524   -0.0029 C.ar    1  LIG1       -0.0534
     17 C          -0.3136    9.1196   -0.0016 C.ar    1  LIG1        0.0227
     18 C          -0.8700   11.9132   -0.0025 C.ar    1  LIG1       -0.0178
     19 H          -2.9391   11.2626   -0.0036 H       1  LIG1        0.0624
     20 C           0.7276   10.0609   -0.0013 C.ar    1  LIG1       -0.0504
     21 C           0.4506   11.4209   -0.0017 C.ar    1  LIG1       -0.0534
     22 H           1.7543    9.7140   -0.0006 H       1  LIG1        0.0625
     23 H          -2.4512    8.8758   -0.0027 H       1  LIG1        0.0625
     24 H           1.2903   12.1053   -0.0013 H       1  LIG1        0.0624
     25 C          -0.1272   14.3320   -0.0035 C.ar    1  LIG1       -0.0540
     26 C          -0.3973   15.6980   -0.0040 C.ar    1  LIG1       -0.0612
     27 C          -1.1609   13.3756   -0.0030 C.ar    1  LIG1       -0.0179
     28 C          -1.7140   16.1582   -0.0039 C.ar    1  LIG1       -0.0617
     29 H           0.4276   16.4045   -0.0044 H       1  LIG1        0.0618
     30 C          -2.4818   13.8640   -0.0030 C.ar    1  LIG1       -0.0540
     31 C          -2.7546   15.2295   -0.0034 C.ar    1  LIG1       -0.0612
     32 H          -3.3200   13.1774   -0.0025 H       1  LIG1        0.0624
     33 H          -1.9256   17.2231   -0.0043 H       1  LIG1        0.0618
     34 H           0.9100   14.0180   -0.0037 H       1  LIG1        0.0624
     35 H          -3.7870   15.5669   -0.0034 H       1  LIG1        0.0618
@<TRIPOS>BOND
     1    29    26    1
     2    33    28    1
     3    26    28   ar
     4    26    25   ar
     5    28    31   ar
     6    34    25    1
     7    19    16    1
     8    25    27   ar
     9    31    35    1
    10    31    30   ar
    11    27    30   ar
    12    27    18    1
    13    30    32    1
    14    16    18   ar
    15    16    15   ar
    16    23    15    1
    17    18    21   ar
    18    15    17   ar
    19    21    24    1
    20    21    20   ar
    21    17    20   ar
    22    17    11    1
    23    13    11   ar
    24    13    10   ar
    25    20    22    1
    26    11    14   ar
    27    10     9   ar
    28    14    12   ar
    29     9    12   ar
    30     9     4    1
    31     5     4   ar
    32     5     1   ar
    33     4     3   ar
    34     6     1    1
    35     1     2   ar
    36     3     2   ar
    37     3     8    1
    38     2     7    1
