@<TRIPOS>MOLECULE
mol_data/opt/b3lyp/geoms/mol2/128-512-.out
 29 32 0 0 0
SMALL
GASTEIGER

@<TRIPOS>ATOM
      1 C           0.3015    1.6801    0.0003 C.ar    1  LIG1        0.0927
      2 C           1.6658    1.7520   -0.0002 C.ar    1  LIG1       -0.0232
      3 C           1.9867    3.1395   -0.0003 C.ar    1  LIG1       -0.0126
      4 C           0.7888    3.8116   -0.0001 C.ar    1  LIG1        0.1751
      5 O          -0.2475    2.9198    0.0002 O.2     1  LIG1       -0.4597
      6 H          -0.3972    0.8581    0.0005 H       1  LIG1        0.1029
      7 H           2.3534    0.9191   -0.0004 H       1  LIG1        0.0649
      8 H           2.9630    3.5996   -0.0005 H       1  LIG1        0.0656
      9 C           0.4809    5.2256   -0.0001 C.ar    1  LIG1        0.2381
     10 N          -0.8115    5.6186    0.0002 N.ar    1  LIG1       -0.1220
     11 C           0.0064    7.7558   -0.0002 C.ar    1  LIG1        0.2099
     12 N           1.5424    6.0697   -0.0004 N.ar    1  LIG1       -0.1220
     13 N          -1.0488    6.9097    0.0002 N.ar    1  LIG1       -0.1246
     14 N           1.3041    7.3551   -0.0004 N.ar    1  LIG1       -0.1246
     15 C          -0.2639    9.1746   -0.0002 C.ar    1  LIG1        0.0605
     16 C           0.6467   10.2122   -0.0006 C.ar    1  LIG1       -0.0431
     17 C           0.0382   11.4853   -0.0005 C.ar    1  LIG1       -0.0433
     18 C          -1.3450   11.4236   -0.0001 C.ar    1  LIG1        0.0551
     19 S          -1.9108    9.7703    0.0002 S.2     1  LIG1       -0.0820
     20 H           1.7154   10.0374   -0.0009 H       1  LIG1        0.0630
     21 H           0.5792   12.4232   -0.0008 H       1  LIG1        0.0630
     22 C          -2.2696   12.5269    0.0000 C.ar    1  LIG1        0.1413
     23 C          -3.6402   12.6249    0.0000 C.ar    1  LIG1       -0.0154
     24 C          -3.9499   14.0178    0.0001 C.ar    1  LIG1       -0.0233
     25 C          -2.7549   14.6730    0.0002 C.ar    1  LIG1        0.0926
     26 O          -1.7224   13.7858    0.0002 O.2     1  LIG1       -0.4624
     27 H          -2.4780   15.7154    0.0003 H       1  LIG1        0.1029
     28 H          -4.3392   11.8008   -0.0001 H       1  LIG1        0.0655
     29 H          -4.9308   14.4699    0.0001 H       1  LIG1        0.0649
@<TRIPOS>BOND
     1    20    16    1
     2    21    17    1
     3    16    17   ar
     4    16    15   ar
     5    17    18   ar
     6     8     3    1
     7     7     2    1
     8    14    12   ar
     9    14    11   ar
    10    12     9   ar
    11     3     2   ar
    12     3     4   ar
    13     2     1   ar
    14    15    11    1
    15    15    19   ar
    16    11    13   ar
    17    18    22    1
    18    18    19   ar
    19    28    23    1
    20     9     4    1
    21     9    10   ar
    22     4     5   ar
    23    23    22   ar
    24    23    24   ar
    25    22    26   ar
    26    29    24    1
    27    24    25   ar
    28    13    10   ar
    29     5     1   ar
    30    26    25   ar
    31    25    27    1
    32     1     6    1
