@<TRIPOS>MOLECULE
mol_data/opt/b3lyp/geoms/mol2/128-5-.out
 22 24 0 0 0
SMALL
GASTEIGER

@<TRIPOS>ATOM
      1 C           0.2904    1.7212   -0.0001 C.ar    1  LIG1        0.0927
      2 C           1.6539    1.8079   -0.0002 C.ar    1  LIG1       -0.0232
      3 C           1.9596    3.1988   -0.0001 C.ar    1  LIG1       -0.0126
      4 C           0.7545    3.8575   -0.0001 C.ar    1  LIG1        0.1751
      5 O          -0.2721    2.9546   -0.0001 O.2     1  LIG1       -0.4597
      6 H          -0.3992    0.8915   -0.0001 H       1  LIG1        0.1029
      7 H           2.3506    0.9827   -0.0003 H       1  LIG1        0.0649
      8 H           2.9310    3.6695   -0.0001 H       1  LIG1        0.0656
      9 C           0.4310    5.2682    0.0000 C.ar    1  LIG1        0.2381
     10 N          -0.8680    5.6449    0.0001 N.ar    1  LIG1       -0.1220
     11 C          -0.0817    7.7906    0.0001 C.ar    1  LIG1        0.2099
     12 N           1.4795    6.1243    0.0000 N.ar    1  LIG1       -0.1220
     13 N          -1.1273    6.9319    0.0001 N.ar    1  LIG1       -0.1246
     14 N           1.2169    7.4066    0.0001 N.ar    1  LIG1       -0.1246
     15 C          -0.3672    9.2113    0.0002 C.ar    1  LIG1        0.0598
     16 C          -1.6034    9.8223    0.0003 C.ar    1  LIG1       -0.0438
     17 C          -1.5171   11.2388    0.0003 C.ar    1  LIG1       -0.0540
     18 C          -0.2200   11.6863    0.0002 C.ar    1  LIG1       -0.0236
     19 S           0.9247   10.3900    0.0002 S.2     1  LIG1       -0.0934
     20 H           0.1298   12.7097    0.0002 H       1  LIG1        0.0693
     21 H          -2.5255    9.2546    0.0004 H       1  LIG1        0.0630
     22 H          -2.3772   11.8978    0.0004 H       1  LIG1        0.0623
@<TRIPOS>BOND
     1     7     2    1
     2     2     3   ar
     3     2     1   ar
     4     5     1   ar
     5     5     4   ar
     6     3     8    1
     7     3     4   ar
     8     1     6    1
     9     4     9    1
    10     9    12   ar
    11     9    10   ar
    12    12    14   ar
    13    10    13   ar
    14    14    11   ar
    15    13    11   ar
    16    11    15    1
    17    19    15   ar
    18    19    18   ar
    19    15    16   ar
    20    20    18    1
    21    18    17   ar
    22    16    17   ar
    23    16    21    1
    24    17    22    1
