@<TRIPOS>MOLECULE
mol_data/opt/b3lyp/geoms/mol2/128-12-8-.out
 28 31 0 0 0
SMALL
GASTEIGER

@<TRIPOS>ATOM
      1 C           0.1061    1.6799    0.0000 C.ar    1  LIG1        0.0927
      2 C           1.4732    1.6840   -0.0001 C.ar    1  LIG1       -0.0232
      3 C           1.8619    3.0526    0.0000 C.ar    1  LIG1       -0.0126
      4 C           0.6978    3.7834   -0.0001 C.ar    1  LIG1        0.1751
      5 O          -0.3817    2.9436   -0.0001 O.2     1  LIG1       -0.4597
      6 H          -0.6317    0.8926    0.0000 H       1  LIG1        0.1029
      7 H           2.1187    0.8181   -0.0001 H       1  LIG1        0.0649
      8 H           2.8597    3.4643    0.0001 H       1  LIG1        0.0656
      9 C           0.4619    5.2087   -0.0000 C.ar    1  LIG1        0.2381
     10 N          -0.8135    5.6642   -0.0001 N.ar    1  LIG1       -0.1219
     11 C           0.1125    7.7499   -0.0001 C.ar    1  LIG1        0.2381
     12 N           1.5625    5.9989   -0.0000 N.ar    1  LIG1       -0.1219
     13 N          -0.9866    6.9642   -0.0001 N.ar    1  LIG1       -0.1219
     14 N           1.3866    7.2974   -0.0000 N.ar    1  LIG1       -0.1219
     15 C          -0.1269    9.1799   -0.0001 C.ar    1  LIG1        0.1761
     16 C          -1.3020    9.9002   -0.0001 C.ar    1  LIG1       -0.0119
     17 C          -0.9281   11.2641   -0.0001 C.ar    1  LIG1       -0.0119
     18 C           0.4494   11.2857   -0.0001 C.ar    1  LIG1        0.1761
     19 O           0.9433   10.0177   -0.0000 O.2     1  LIG1       -0.4483
     20 H          -2.2952    9.4783   -0.0001 H       1  LIG1        0.0657
     21 H          -1.5683   12.1330   -0.0002 H       1  LIG1        0.0657
     22 C           1.3838   12.3938   -0.0001 C.ar    1  LIG1        0.2381
     23 N           0.8319   13.6297   -0.0001 N.ar    1  LIG1       -0.1226
     24 C           2.9684   14.3893   -0.0002 C.ar    1  LIG1        0.1605
     25 N           2.7089   12.1315   -0.0001 N.ar    1  LIG1       -0.1226
     26 N           1.6537   14.6579   -0.0001 N.ar    1  LIG1       -0.1338
     27 N           3.5234   13.1709   -0.0001 N.ar    1  LIG1       -0.1338
     28 H           3.6435   15.2386    0.0001 H       1  LIG1        0.1085
@<TRIPOS>BOND
     1    24    26   ar
     2    24    27   ar
     3    24    28    1
     4    21    17    1
     5     5     4   ar
     6     5     1   ar
     7     7     2    1
     8    17    16   ar
     9    17    18   ar
    10    20    16    1
    11    13    10   ar
    12    13    11   ar
    13    10     9   ar
    14    23    26   ar
    15    23    22   ar
    16     2     1   ar
    17     2     3   ar
    18    16    15   ar
    19    22    25   ar
    20    22    18    1
    21    25    27   ar
    22    18    19   ar
    23    11    15    1
    24    11    14   ar
    25    15    19   ar
    26     4     9    1
    27     4     3   ar
    28     9    12   ar
    29    14    12   ar
    30     1     6    1
    31     3     8    1
