@<TRIPOS>MOLECULE
mol_data/opt/b3lyp/geoms/mol2/128-84-.out
 31 34 0 0 0
SMALL
GASTEIGER

@<TRIPOS>ATOM
      1 C           0.3054    1.6849    0.0003 C.ar    1  LIG1        0.0927
      2 C           1.6704    1.7722    0.0004 C.ar    1  LIG1       -0.0232
      3 C           1.9742    3.1613    0.0004 C.ar    1  LIG1       -0.0126
      4 C           0.7669    3.8194    0.0001 C.ar    1  LIG1        0.1751
      5 O          -0.2588    2.9150   -0.0001 O.2     1  LIG1       -0.4597
      6 H          -0.3822    0.8534    0.0003 H       1  LIG1        0.1029
      7 H           2.3671    0.9472    0.0005 H       1  LIG1        0.0649
      8 H           2.9445    3.6341    0.0006 H       1  LIG1        0.0656
      9 C           0.4458    5.2269   -0.0000 C.ar    1  LIG1        0.2381
     10 N          -0.8529    5.6054   -0.0003 N.ar    1  LIG1       -0.1219
     11 C          -0.0568    7.7413   -0.0004 C.ar    1  LIG1        0.2435
     12 N           1.4984    6.0811    0.0001 N.ar    1  LIG1       -0.1219
     13 N          -1.1038    6.8960   -0.0005 N.ar    1  LIG1       -0.1217
     14 N           1.2390    7.3653   -0.0001 N.ar    1  LIG1       -0.1217
     15 C          -0.3478    9.1974   -0.0006 C.ar    1  LIG1        0.2435
     16 N           0.6997   10.0429   -0.0005 N.ar    1  LIG1       -0.1218
     17 C          -0.8525   11.7240   -0.0009 C.ar    1  LIG1        0.2034
     18 N          -1.6400    9.5755   -0.0007 N.ar    1  LIG1       -0.1218
     19 N           0.4412   11.3304   -0.0007 N.ar    1  LIG1       -0.1251
     20 N          -1.8958   10.8633   -0.0009 N.ar    1  LIG1       -0.1251
     21 C          -2.4712   13.6226   -0.0014 C.ar    1  LIG1       -0.0509
     22 C          -2.7395   14.9881   -0.0016 C.ar    1  LIG1       -0.0611
     23 C          -1.1413   13.1675   -0.0011 C.ar    1  LIG1        0.0226
     24 C          -1.6904   15.9107   -0.0015 C.ar    1  LIG1       -0.0617
     25 H          -3.7687   15.3338   -0.0018 H       1  LIG1        0.0618
     26 C          -0.0891   14.0994   -0.0010 C.ar    1  LIG1       -0.0509
     27 C          -0.3669   15.4630   -0.0012 C.ar    1  LIG1       -0.0611
     28 H           0.9336   13.7412   -0.0008 H       1  LIG1        0.0625
     29 H          -1.9036   16.9759   -0.0016 H       1  LIG1        0.0618
     30 H          -3.2773   12.8980   -0.0015 H       1  LIG1        0.0625
     31 H           0.4499   16.1785   -0.0011 H       1  LIG1        0.0618
@<TRIPOS>BOND
     1    25    22    1
     2    29    24    1
     3    22    24   ar
     4    22    21   ar
     5    30    21    1
     6    24    27   ar
     7    21    23   ar
     8    27    31    1
     9    27    26   ar
    10    23    26   ar
    11    23    17    1
    12    26    28    1
    13    20    17   ar
    14    20    18   ar
    15    17    19   ar
    16    18    15   ar
    17    19    16   ar
    18    15    16   ar
    19    15    11    1
    20    13    11   ar
    21    13    10   ar
    22    11    14   ar
    23    10     9   ar
    24    14    12   ar
    25     5     4   ar
    26     5     1   ar
    27     9    12   ar
    28     9     4    1
    29     4     3   ar
    30     6     1    1
    31     1     2   ar
    32     2     3   ar
    33     2     7    1
    34     3     8    1
