@<TRIPOS>MOLECULE
mol_data/opt/b3lyp/geoms/mol2/128-124.out
 32 35 0 0 0
SMALL
GASTEIGER

@<TRIPOS>ATOM
      1 C           0.5536    1.6107   -0.0004 C.ar    1  LIG1        0.0927
      2 C           1.9104    1.7707   -0.0003 C.ar    1  LIG1       -0.0232
      3 C           2.1407    3.1760   -0.0005 C.ar    1  LIG1       -0.0126
      4 C           0.9019    3.7693   -0.0002 C.ar    1  LIG1        0.1751
      5 O          -0.0745    2.8124    0.0000 O.2     1  LIG1       -0.4597
      6 H          -0.0909    0.7454   -0.0004 H       1  LIG1        0.1029
      7 H           2.6504    0.9841   -0.0003 H       1  LIG1        0.0649
      8 H           3.0852    3.6981   -0.0006 H       1  LIG1        0.0656
      9 C           0.5038    5.1607   -0.0001 C.ar    1  LIG1        0.2381
     10 N          -0.8101    5.4708    0.0002 N.ar    1  LIG1       -0.1219
     11 C          -0.1335    7.6499    0.0001 C.ar    1  LIG1        0.2381
     12 N           1.5109    6.0704   -0.0003 N.ar    1  LIG1       -0.1219
     13 N          -1.1375    6.7452    0.0003 N.ar    1  LIG1       -0.1219
     14 N           1.1877    7.3358   -0.0002 N.ar    1  LIG1       -0.1219
     15 C          -0.4544    9.0571    0.0002 C.ar    1  LIG1        0.1760
     16 C           0.3421   10.1787    0.0000 C.ar    1  LIG1       -0.0120
     17 C          -0.5344   11.2908    0.0002 C.ar    1  LIG1       -0.0151
     18 C          -1.8192   10.7876    0.0005 C.ar    1  LIG1        0.1358
     19 O          -1.7697    9.4248    0.0005 O.2     1  LIG1       -0.4516
     20 H           1.4214   10.1796   -0.0002 H       1  LIG1        0.0657
     21 H          -0.2550   12.3337    0.0001 H       1  LIG1        0.0656
     22 C          -3.2695   12.8051    0.0009 C.ar    1  LIG1       -0.0511
     23 C          -4.5292   13.3953    0.0012 C.ar    1  LIG1       -0.0611
     24 C          -3.1382   11.4046    0.0008 C.ar    1  LIG1        0.0173
     25 C          -5.6791   12.6017    0.0014 C.ar    1  LIG1       -0.0617
     26 H          -4.6145   14.4779    0.0013 H       1  LIG1        0.0618
     27 C          -4.3004   10.6124    0.0010 C.ar    1  LIG1       -0.0511
     28 C          -5.5576   11.2106    0.0013 C.ar    1  LIG1       -0.0611
     29 H          -4.2067    9.5322    0.0009 H       1  LIG1        0.0625
     30 H          -6.6612   13.0646    0.0016 H       1  LIG1        0.0618
     31 H          -2.3832   13.4319    0.0008 H       1  LIG1        0.0625
     32 H          -6.4465   10.5869    0.0014 H       1  LIG1        0.0618
@<TRIPOS>BOND
     1     8     3    1
     2     3     2   ar
     3     3     4   ar
     4     6     1    1
     5     1     2   ar
     6     1     5   ar
     7    12    14   ar
     8    12     9   ar
     9     7     2    1
    10    14    11   ar
    11    20    16    1
    12     4     9    1
    13     4     5   ar
    14     9    10   ar
    15    16    15   ar
    16    16    17   ar
    17    11    15    1
    18    11    13   ar
    19    21    17    1
    20    15    19   ar
    21    17    18   ar
    22    10    13   ar
    23    19    18   ar
    24    18    24    1
    25    31    22    1
    26    24    22   ar
    27    24    27   ar
    28    29    27    1
    29    22    23   ar
    30    27    28   ar
    31    23    26    1
    32    23    25   ar
    33    28    25   ar
    34    28    32    1
    35    25    30    1
