@<TRIPOS>MOLECULE
mol_data/opt/b3lyp/geoms/mol2/128-4.out
 25 27 0 0 0
SMALL
GASTEIGER

@<TRIPOS>ATOM
      1 C           0.3004    1.7057   -0.0005 C.ar    1  LIG1        0.0927
      2 C           1.6642    1.7900   -0.0005 C.ar    1  LIG1       -0.0232
      3 C           1.9721    3.1803   -0.0001 C.ar    1  LIG1       -0.0126
      4 C           0.7681    3.8410   -0.0001 C.ar    1  LIG1        0.1751
      5 O          -0.2600    2.9397   -0.0005 O.2     1  LIG1       -0.4597
      6 H          -0.3905    0.8770   -0.0008 H       1  LIG1        0.1029
      7 H           2.3593    0.9635   -0.0006 H       1  LIG1        0.0649
      8 H           2.9441    3.6496    0.0001 H       1  LIG1        0.0656
      9 C           0.4475    5.2527    0.0002 C.ar    1  LIG1        0.2381
     10 N          -0.8483    5.6333    0.0001 N.ar    1  LIG1       -0.1220
     11 C          -0.0566    7.7836    0.0007 C.ar    1  LIG1        0.2034
     12 N           1.4979    6.1062    0.0005 N.ar    1  LIG1       -0.1220
     13 N          -1.0974    6.9238    0.0004 N.ar    1  LIG1       -0.1251
     14 N           1.2384    7.3901    0.0007 N.ar    1  LIG1       -0.1251
     15 C           0.7064   10.1622    0.0014 C.ar    1  LIG1       -0.0509
     16 C           0.4297   11.5265    0.0016 C.ar    1  LIG1       -0.0611
     17 C          -0.3446    9.2298    0.0009 C.ar    1  LIG1        0.0226
     18 C          -0.8927   11.9764    0.0015 C.ar    1  LIG1       -0.0617
     19 H           1.2477   12.2406    0.0020 H       1  LIG1        0.0618
     20 C          -1.6731    9.6873    0.0008 C.ar    1  LIG1       -0.0509
     21 C          -1.9411   11.0532    0.0011 C.ar    1  LIG1       -0.0611
     22 H          -2.4800    8.9638    0.0005 H       1  LIG1        0.0625
     23 H          -1.1054   13.0415    0.0017 H       1  LIG1        0.0618
     24 H           1.7293    9.8040    0.0015 H       1  LIG1        0.0625
     25 H          -2.9706   11.3988    0.0009 H       1  LIG1        0.0618
@<TRIPOS>BOND
     1     6     1    1
     2     7     2    1
     3     1     2   ar
     4     1     5   ar
     5     2     3   ar
     6     5     4   ar
     7     4     3   ar
     8     4     9    1
     9     3     8    1
    10    10     9   ar
    11    10    13   ar
    12     9    12   ar
    13    13    11   ar
    14    12    14   ar
    15    22    20    1
    16    11    14   ar
    17    11    17    1
    18    20    17   ar
    19    20    21   ar
    20    25    21    1
    21    17    15   ar
    22    21    18   ar
    23    15    24    1
    24    15    16   ar
    25    18    16   ar
    26    18    23    1
    27    16    19    1
