@<TRIPOS>MOLECULE
mol_data/opt/b3lyp/geoms/mol2/128-.out
 15 16 0 0 0
SMALL
GASTEIGER

@<TRIPOS>ATOM
      1 C           0.2296    1.7874   -0.0001 C.ar    1  LIG1        0.0927
      2 C           1.5956    1.8351    0.0000 C.ar    1  LIG1       -0.0232
      3 C           1.9397    3.2161   -0.0000 C.ar    1  LIG1       -0.0126
      4 C           0.7534    3.9082   -0.0001 C.ar    1  LIG1        0.1751
      5 O          -0.2983    3.0345   -0.0001 O.2     1  LIG1       -0.4597
      6 H          -0.4827    0.9769   -0.0001 H       1  LIG1        0.1029
      7 H           2.2686    0.9905    0.0001 H       1  LIG1        0.0649
      8 H           2.9238    3.6595    0.0000 H       1  LIG1        0.0656
      9 C           0.4704    5.3277   -0.0001 C.ar    1  LIG1        0.2380
     10 N          -0.8182    5.7366   -0.0001 N.ar    1  LIG1       -0.1226
     11 C           0.0379    7.8418   -0.0001 C.ar    1  LIG1        0.1605
     12 N           1.5477    6.1492   -0.0001 N.ar    1  LIG1       -0.1226
     13 N          -1.0334    7.0397   -0.0001 N.ar    1  LIG1       -0.1338
     14 N           1.3197    7.4454   -0.0001 N.ar    1  LIG1       -0.1338
     15 H          -0.1460    8.9109   -0.0002 H       1  LIG1        0.1085
@<TRIPOS>BOND
     1    15    11    1
     2     5     1   ar
     3     5     4   ar
     4    13    10   ar
     5    13    11   ar
     6     6     1    1
     7    14    12   ar
     8    14    11   ar
     9    12     9   ar
    10    10     9   ar
    11     9     4    1
    12     1     2   ar
    13     4     3   ar
    14     3     2   ar
    15     3     8    1
    16     2     7    1
