@<TRIPOS>MOLECULE
mol_data/opt/b3lyp/geoms/mol2/128-12-.out
 22 24 0 0 0
SMALL
GASTEIGER

@<TRIPOS>ATOM
      1 C           0.2220    1.7586   -0.0000 C.ar    1  LIG1        0.0927
      2 C           1.5876    1.8030   -0.0001 C.ar    1  LIG1       -0.0232
      3 C           1.9363    3.1836    0.0000 C.ar    1  LIG1       -0.0126
      4 C           0.7522    3.8796   -0.0001 C.ar    1  LIG1        0.1751
      5 O          -0.3020    3.0088   -0.0002 O.2     1  LIG1       -0.4597
      6 H          -0.4930    0.9506   -0.0000 H       1  LIG1        0.1029
      7 H           2.2583    0.9565   -0.0001 H       1  LIG1        0.0649
      8 H           2.9217    3.6243    0.0001 H       1  LIG1        0.0656
      9 C           0.4732    5.2998   -0.0000 C.ar    1  LIG1        0.2381
     10 N          -0.8145    5.7162   -0.0001 N.ar    1  LIG1       -0.1219
     11 C           0.0449    7.8325   -0.0001 C.ar    1  LIG1        0.2381
     12 N           1.5475    6.1223    0.0000 N.ar    1  LIG1       -0.1219
     13 N          -1.0295    7.0101   -0.0001 N.ar    1  LIG1       -0.1219
     14 N           1.3327    7.4161   -0.0000 N.ar    1  LIG1       -0.1219
     15 C          -0.2341    9.2527   -0.0001 C.ar    1  LIG1        0.1751
     16 C          -1.4180    9.9488   -0.0001 C.ar    1  LIG1       -0.0126
     17 C          -1.0692   11.3293   -0.0001 C.ar    1  LIG1       -0.0232
     18 C           0.2964   11.3735   -0.0001 C.ar    1  LIG1        0.0927
     19 O           0.8203   10.1234    0.0000 O.2     1  LIG1       -0.4597
     20 H           1.0116   12.1815   -0.0001 H       1  LIG1        0.1029
     21 H          -2.4034    9.5083   -0.0001 H       1  LIG1        0.0656
     22 H          -1.7398   12.1759   -0.0001 H       1  LIG1        0.0649
@<TRIPOS>BOND
     1     5     4   ar
     2     5     1   ar
     3    22    17    1
     4    13    10   ar
     5    13    11   ar
     6    10     9   ar
     7    21    16    1
     8    17    18   ar
     9    17    16   ar
    10    20    18    1
    11    18    19   ar
    12    16    15   ar
    13     7     2    1
    14     2     1   ar
    15     2     3   ar
    16    11    15    1
    17    11    14   ar
    18     4     9    1
    19     4     3   ar
    20    15    19   ar
    21     9    12   ar
    22     1     6    1
    23    14    12   ar
    24     3     8    1
