@<TRIPOS>MOLECULE
mol_data/opt/b3lyp/geoms/mol2/128.out
 15 16 0 0 0
SMALL
GASTEIGER

@<TRIPOS>ATOM
      1 C           0.2296    1.7874   -0.0001 C.ar    1  LIG1        0.0927
      2 C           1.5956    1.8351    0.0000 C.ar    1  LIG1       -0.0232
      3 C           1.9397    3.2161   -0.0000 C.ar    1  LIG1       -0.0126
      4 C           0.7534    3.9082   -0.0001 C.ar    1  LIG1        0.1751
      5 O          -0.2983    3.0344   -0.0001 O.2     1  LIG1       -0.4597
      6 H          -0.4827    0.9768   -0.0001 H       1  LIG1        0.1029
      7 H           2.2687    0.9905    0.0001 H       1  LIG1        0.0649
      8 H           2.9238    3.6595    0.0000 H       1  LIG1        0.0656
      9 C           0.4704    5.3277   -0.0001 C.ar    1  LIG1        0.2380
     10 N           1.5477    6.1492   -0.0001 N.ar    1  LIG1       -0.1226
     11 C           0.0378    7.8418   -0.0002 C.ar    1  LIG1        0.1605
     12 N          -0.8182    5.7365   -0.0001 N.ar    1  LIG1       -0.1226
     13 N           1.3196    7.4454   -0.0001 N.ar    1  LIG1       -0.1338
     14 N          -1.0334    7.0396   -0.0001 N.ar    1  LIG1       -0.1338
     15 H          -0.1461    8.9108   -0.0001 H       1  LIG1        0.1085
@<TRIPOS>BOND
     1    11    14   ar
     2    11    13   ar
     3    11    15    1
     4    14    12   ar
     5    13    10   ar
     6    12     9   ar
     7    10     9   ar
     8     5     4   ar
     9     5     1   ar
    10     9     4    1
    11     6     1    1
    12     4     3   ar
    13     1     2   ar
    14     3     2   ar
    15     3     8    1
    16     2     7    1
