@<TRIPOS>MOLECULE
mol_data/opt/b3lyp/geoms/mol2/12813-4.out
 33 36 0 0 0
SMALL
GASTEIGER

@<TRIPOS>ATOM
      1 C           0.3353    1.6812    0.0001 C.ar    1  LIG1        0.0927
      2 C           1.6968    1.7904    0.0003 C.ar    1  LIG1       -0.0232
      3 C           1.9798    3.1865    0.0004 C.ar    1  LIG1       -0.0126
      4 C           0.7646    3.8261    0.0000 C.ar    1  LIG1        0.1751
      5 O          -0.2470    2.9062   -0.0003 O.2     1  LIG1       -0.4597
      6 H          -0.3413    0.8409    0.0001 H       1  LIG1        0.1029
      7 H           2.4071    0.9767    0.0005 H       1  LIG1        0.0649
      8 H           2.9437    3.6721    0.0007 H       1  LIG1        0.0656
      9 C           0.4168    5.2316   -0.0002 C.ar    1  LIG1        0.2381
     10 N           1.4487    6.1061    0.0000 N.ar    1  LIG1       -0.1220
     11 C          -0.1471    7.7437   -0.0005 C.ar    1  LIG1        0.2194
     12 N          -0.8913    5.5850   -0.0005 N.ar    1  LIG1       -0.1220
     13 N           1.1620    7.3839   -0.0001 N.ar    1  LIG1       -0.1236
     14 N          -1.1788    6.8633   -0.0007 N.ar    1  LIG1       -0.1236
     15 C          -0.4405    9.1509   -0.0006 C.ar    1  LIG1        0.0879
     16 C          -1.6473    9.8482   -0.0008 C.ar    1  LIG1       -0.0326
     17 C          -1.3351   11.2175   -0.0009 C.ar    1  LIG1       -0.0357
     18 C           0.0604   11.3510   -0.0006 C.ar    1  LIG1        0.0470
     19 N           0.5743   10.0811   -0.0005 N.ar    1  LIG1       -0.3516
     20 H           1.5464    9.8112   -0.0001 H       1  LIG1        0.1660
     21 H          -2.6260    9.3928   -0.0009 H       1  LIG1        0.0640
     22 H          -2.0448   12.0316   -0.0012 H       1  LIG1        0.0639
     23 C           2.3033   12.4766   -0.0007 C.ar    1  LIG1       -0.0526
     24 C           3.0820   13.6311   -0.0007 C.ar    1  LIG1       -0.0611
     25 C           0.8979   12.5502   -0.0006 C.ar    1  LIG1       -0.0017
     26 C           2.4788   14.8893   -0.0005 C.ar    1  LIG1       -0.0617
     27 H           4.1646   13.5452   -0.0008 H       1  LIG1        0.0618
     28 C           0.3050   13.8271   -0.0004 C.ar    1  LIG1       -0.0526
     29 C           1.0850   14.9788   -0.0003 C.ar    1  LIG1       -0.0611
     30 H          -0.7761   13.9169   -0.0002 H       1  LIG1        0.0624
     31 H           3.0866   15.7888   -0.0004 H       1  LIG1        0.0618
     32 H           2.8055   11.5137   -0.0009 H       1  LIG1        0.0624
     33 H           0.6021   15.9516   -0.0001 H       1  LIG1        0.0618
@<TRIPOS>BOND
     1    22    17    1
     2    32    23    1
     3    21    16    1
     4    17    16   ar
     5    17    18   ar
     6    27    24    1
     7    16    15   ar
     8    23    24   ar
     9    23    25   ar
    10    14    12   ar
    11    14    11   ar
    12    24    26   ar
    13    15    11    1
    14    15    19   ar
    15    18    25    1
    16    18    19   ar
    17    25    28   ar
    18    12     9   ar
    19    11    13   ar
    20    19    20    1
    21    26    31    1
    22    26    29   ar
    23    28    29   ar
    24    28    30    1
    25    29    33    1
    26     5     4   ar
    27     5     1   ar
    28     9     4    1
    29     9    10   ar
    30    13    10   ar
    31     4     3   ar
    32     6     1    1
    33     1     2   ar
    34     2     3   ar
    35     2     7    1
    36     3     8    1
