@<TRIPOS>MOLECULE
mol_data/opt/b3lyp/geoms/mol2/12813-.out
 23 25 0 0 0
SMALL
GASTEIGER

@<TRIPOS>ATOM
      1 C           0.2942    1.7335    0.0002 C.ar    1  LIG1        0.0927
      2 C           1.6573    1.8193    0.0001 C.ar    1  LIG1       -0.0232
      3 C           1.9642    3.2106    0.0000 C.ar    1  LIG1       -0.0126
      4 C           0.7601    3.8704   -0.0000 C.ar    1  LIG1        0.1751
      5 O          -0.2670    2.9683   -0.0000 O.2     1  LIG1       -0.4597
      6 H          -0.3967    0.9048    0.0003 H       1  LIG1        0.1029
      7 H           2.3535    0.9936    0.0001 H       1  LIG1        0.0649
      8 H           2.9363    3.6798    0.0000 H       1  LIG1        0.0656
      9 C           0.4360    5.2823   -0.0002 C.ar    1  LIG1        0.2381
     10 N           1.4823    6.1391   -0.0002 N.ar    1  LIG1       -0.1220
     11 C          -0.0855    7.8036   -0.0004 C.ar    1  LIG1        0.2194
     12 N          -0.8652    5.6573   -0.0002 N.ar    1  LIG1       -0.1220
     13 N           1.2165    7.4218   -0.0003 N.ar    1  LIG1       -0.1236
     14 N          -1.1311    6.9412   -0.0003 N.ar    1  LIG1       -0.1236
     15 C          -0.3558    9.2178   -0.0004 C.ar    1  LIG1        0.0875
     16 C          -1.5494    9.9343   -0.0003 C.ar    1  LIG1       -0.0333
     17 C          -1.2148   11.3060   -0.0007 C.ar    1  LIG1       -0.0437
     18 C           0.1703   11.3966   -0.0004 C.ar    1  LIG1        0.0023
     19 N           0.6772   10.1323   -0.0006 N.ar    1  LIG1       -0.3582
     20 H           1.6484    9.8575   -0.0005 H       1  LIG1        0.1654
     21 H           0.8184   12.2604   -0.0005 H       1  LIG1        0.0807
     22 H          -2.5349    9.4934   -0.0001 H       1  LIG1        0.0640
     23 H          -1.9008   12.1406   -0.0009 H       1  LIG1        0.0633
@<TRIPOS>BOND
     1    23    17    1
     2    17    18   ar
     3    17    16   ar
     4    19    20    1
     5    19    18   ar
     6    19    15   ar
     7    21    18    1
     8    15    11    1
     9    15    16   ar
    10    11    13   ar
    11    11    14   ar
    12    13    10   ar
    13    14    12   ar
    14    16    22    1
    15    10     9   ar
    16    12     9   ar
    17     9     4    1
    18     4     5   ar
    19     4     3   ar
    20     5     1   ar
    21     8     3    1
    22     3     2   ar
    23     2     7    1
    24     2     1   ar
    25     1     6    1
