@<TRIPOS>MOLECULE
mol_data/opt/b3lyp/geoms/mol2/12812-12-.out
 29 32 0 0 0
SMALL
GASTEIGER

@<TRIPOS>ATOM
      1 C           0.1025    1.6691    0.0001 C.ar    1  LIG1        0.0927
      2 C           1.4687    1.6753   -0.0001 C.ar    1  LIG1       -0.0232
      3 C           1.8561    3.0457    0.0000 C.ar    1  LIG1       -0.0126
      4 C           0.6923    3.7749   -0.0001 C.ar    1  LIG1        0.1751
      5 O          -0.3861    2.9339   -0.0002 O.2     1  LIG1       -0.4597
      6 H          -0.6350    0.8818    0.0001 H       1  LIG1        0.1029
      7 H           2.1154    0.8103   -0.0001 H       1  LIG1        0.0649
      8 H           2.8535    3.4586    0.0001 H       1  LIG1        0.0656
      9 C           0.4537    5.2024   -0.0001 C.ar    1  LIG1        0.2381
     10 N           1.5512    5.9940   -0.0000 N.ar    1  LIG1       -0.1219
     11 C           0.0984    7.7471   -0.0001 C.ar    1  LIG1        0.2381
     12 N          -0.8220    5.6558   -0.0001 N.ar    1  LIG1       -0.1219
     13 N           1.3752    7.2930   -0.0000 N.ar    1  LIG1       -0.1219
     14 N          -1.0003    6.9543   -0.0002 N.ar    1  LIG1       -0.1219
     15 C          -0.1412    9.1698   -0.0001 C.ar    1  LIG1        0.1761
     16 C          -1.3095    9.8978   -0.0001 C.ar    1  LIG1       -0.0119
     17 C          -0.9342   11.2617   -0.0001 C.ar    1  LIG1       -0.0121
     18 C           0.4464   11.2847   -0.0001 C.ar    1  LIG1        0.1707
     19 O           0.9343   10.0157   -0.0000 O.2     1  LIG1       -0.4485
     20 H          -2.3050    9.4806   -0.0001 H       1  LIG1        0.0657
     21 H          -1.5878   12.1215   -0.0002 H       1  LIG1        0.0657
     22 C           1.3911   12.3680   -0.0000 C.ar    1  LIG1        0.1697
     23 C           1.2341   13.7333   -0.0000 C.ar    1  LIG1       -0.0128
     24 C           2.5483   14.2880   -0.0000 C.ar    1  LIG1       -0.0232
     25 C           3.4080   13.2293   -0.0000 C.ar    1  LIG1        0.0927
     26 O           2.7221   12.0547    0.0001 O.2     1  LIG1       -0.4598
     27 H           4.4829   13.1434   -0.0001 H       1  LIG1        0.1029
     28 H           0.2965   14.2698   -0.0001 H       1  LIG1        0.0656
     29 H           2.8164   15.3343   -0.0000 H       1  LIG1        0.0649
@<TRIPOS>BOND
     1    21    17    1
     2     5     4   ar
     3     5     1   ar
     4    14    12   ar
     5    14    11   ar
     6    12     9   ar
     7    20    16    1
     8    17    16   ar
     9    17    18   ar
    10     7     2    1
    11    11    15    1
    12    11    13   ar
    13    16    15   ar
    14     2     3   ar
    15     2     1   ar
    16    15    19   ar
    17     9     4    1
    18     9    10   ar
    19     4     3   ar
    20    28    23    1
    21    27    25    1
    22    18    22    1
    23    18    19   ar
    24    13    10   ar
    25    25    24   ar
    26    25    26   ar
    27    29    24    1
    28    23    22   ar
    29    23    24   ar
    30    22    26   ar
    31     3     8    1
    32     1     6    1
