@<TRIPOS>MOLECULE
mol_data/opt/b3lyp/geoms/mol2/1284.out
 25 27 0 0 0
SMALL
GASTEIGER

@<TRIPOS>ATOM
      1 C           0.3005    1.7056   -0.0005 C.ar    1  LIG1        0.0927
      2 C           1.6642    1.7900   -0.0005 C.ar    1  LIG1       -0.0232
      3 C           1.9720    3.1803   -0.0001 C.ar    1  LIG1       -0.0126
      4 C           0.7680    3.8410   -0.0001 C.ar    1  LIG1        0.1751
      5 O          -0.2600    2.9397   -0.0005 O.2     1  LIG1       -0.4597
      6 H          -0.3904    0.8770   -0.0007 H       1  LIG1        0.1029
      7 H           2.3593    0.9635   -0.0006 H       1  LIG1        0.0649
      8 H           2.9440    3.6496    0.0001 H       1  LIG1        0.0656
      9 C           0.4474    5.2526    0.0001 C.ar    1  LIG1        0.2381
     10 N           1.4978    6.1062    0.0004 N.ar    1  LIG1       -0.1220
     11 C          -0.0567    7.7836    0.0006 C.ar    1  LIG1        0.2034
     12 N          -0.8484    5.6333    0.0001 N.ar    1  LIG1       -0.1220
     13 N           1.2383    7.3901    0.0007 N.ar    1  LIG1       -0.1251
     14 N          -1.0975    6.9237    0.0003 N.ar    1  LIG1       -0.1251
     15 C           0.7062   10.1622    0.0014 C.ar    1  LIG1       -0.0509
     16 C           0.4295   11.5265    0.0016 C.ar    1  LIG1       -0.0611
     17 C          -0.3448    9.2297    0.0009 C.ar    1  LIG1        0.0226
     18 C          -0.8929   11.9763    0.0015 C.ar    1  LIG1       -0.0617
     19 H           1.2475   12.2406    0.0020 H       1  LIG1        0.0618
     20 C          -1.6733    9.6873    0.0008 C.ar    1  LIG1       -0.0509
     21 C          -1.9413   11.0532    0.0011 C.ar    1  LIG1       -0.0611
     22 H          -2.4801    8.9638    0.0004 H       1  LIG1        0.0625
     23 H          -1.1056   13.0414    0.0017 H       1  LIG1        0.0618
     24 H           1.7291    9.8040    0.0015 H       1  LIG1        0.0625
     25 H          -2.9708   11.3987    0.0009 H       1  LIG1        0.0618
@<TRIPOS>BOND
     1     6     1    1
     2     7     2    1
     3     1     2   ar
     4     1     5   ar
     5     2     3   ar
     6     5     4   ar
     7     4     3   ar
     8     4     9    1
     9     3     8    1
    10    12     9   ar
    11    12    14   ar
    12     9    10   ar
    13    14    11   ar
    14    10    13   ar
    15    22    20    1
    16    11    13   ar
    17    11    17    1
    18    20    17   ar
    19    20    21   ar
    20    25    21    1
    21    17    15   ar
    22    21    18   ar
    23    15    24    1
    24    15    16   ar
    25    18    16   ar
    26    18    23    1
    27    16    19    1
