@<TRIPOS>MOLECULE
mol_data/opt/b3lyp/geoms/mol2/1284-13.out
 33 36 0 0 0
SMALL
GASTEIGER

@<TRIPOS>ATOM
      1 C           0.3202    1.6304    0.0006 C.ar    1  LIG1        0.0927
      2 C           1.6836    1.7146    0.0014 C.ar    1  LIG1       -0.0232
      3 C           1.9919    3.1051    0.0009 C.ar    1  LIG1       -0.0126
      4 C           0.7883    3.7663    0.0003 C.ar    1  LIG1        0.1751
      5 O          -0.2400    2.8652    0.0002 O.2     1  LIG1       -0.4597
      6 H          -0.3714    0.8022    0.0005 H       1  LIG1        0.1029
      7 H           2.3787    0.8880    0.0020 H       1  LIG1        0.0649
      8 H           2.9640    3.5740    0.0011 H       1  LIG1        0.0656
      9 C           0.4679    5.1782   -0.0003 C.ar    1  LIG1        0.2381
     10 N           1.5183    6.0319   -0.0002 N.ar    1  LIG1       -0.1220
     11 C          -0.0360    7.7107   -0.0013 C.ar    1  LIG1        0.2034
     12 N          -0.8280    5.5595   -0.0008 N.ar    1  LIG1       -0.1220
     13 N           1.2607    7.3155   -0.0007 N.ar    1  LIG1       -0.1251
     14 N          -1.0780    6.8489   -0.0013 N.ar    1  LIG1       -0.1251
     15 C          -1.6479    9.6170   -0.0025 C.ar    1  LIG1       -0.0503
     16 C          -1.9172   10.9775   -0.0031 C.ar    1  LIG1       -0.0520
     17 C          -0.3229    9.1499   -0.0018 C.ar    1  LIG1        0.0227
     18 C          -0.8813   11.9348   -0.0029 C.ar    1  LIG1       -0.0017
     19 H          -2.9578   11.2893   -0.0037 H       1  LIG1        0.0624
     20 C           0.7200   10.0945   -0.0017 C.ar    1  LIG1       -0.0503
     21 C           0.4447   11.4519   -0.0022 C.ar    1  LIG1       -0.0520
     22 H           1.7462    9.7458   -0.0012 H       1  LIG1        0.0625
     23 H          -2.4596    8.8989   -0.0027 H       1  LIG1        0.0625
     24 H           1.2698   12.1560   -0.0020 H       1  LIG1        0.0624
     25 C          -1.1442   13.3674   -0.0035 C.ar    1  LIG1        0.0465
     26 C          -0.2721   14.4537   -0.0041 C.ar    1  LIG1       -0.0364
     27 C          -1.0423   15.6406   -0.0048 C.ar    1  LIG1       -0.0438
     28 C          -2.3720   15.2659   -0.0037 C.ar    1  LIG1        0.0022
     29 N          -2.4223   13.8983   -0.0034 N.ar    1  LIG1       -0.3607
     30 H          -3.2721   13.3592   -0.0030 H       1  LIG1        0.1653
     31 H          -3.2749   15.8579   -0.0036 H       1  LIG1        0.0807
     32 H           0.8064   14.3949   -0.0043 H       1  LIG1        0.0639
     33 H          -0.6701   16.6549   -0.0056 H       1  LIG1        0.0633
@<TRIPOS>BOND
     1    33    27    1
     2    27    26   ar
     3    27    28   ar
     4    32    26    1
     5    26    25   ar
     6    28    31    1
     7    28    29   ar
     8    19    16    1
     9    25    29   ar
    10    25    18    1
    11    29    30    1
    12    16    18   ar
    13    16    15   ar
    14    18    21   ar
    15    23    15    1
    16    15    17   ar
    17    21    24    1
    18    21    20   ar
    19    17    20   ar
    20    17    11    1
    21    20    22    1
    22    14    11   ar
    23    14    12   ar
    24    11    13   ar
    25    12     9   ar
    26    13    10   ar
    27     9    10   ar
    28     9     4    1
    29     5     4   ar
    30     5     1   ar
    31     4     3   ar
    32     6     1    1
    33     1     2   ar
    34     3     8    1
    35     3     2   ar
    36     2     7    1
