@<TRIPOS>MOLECULE
mol_data/opt/b3lyp/geoms/mol2/12844-.out
 35 38 0 0 0
SMALL
GASTEIGER

@<TRIPOS>ATOM
      1 C           0.3515    1.5955   -0.0014 C.ar    1  LIG1        0.0927
      2 C           1.7144    1.6913   -0.0008 C.ar    1  LIG1       -0.0232
      3 C           2.0106    3.0841   -0.0000 C.ar    1  LIG1       -0.0126
      4 C           0.8012    3.7349   -0.0003 C.ar    1  LIG1        0.1751
      5 O          -0.2194    2.8250   -0.0012 O.2     1  LIG1       -0.4597
      6 H          -0.3329    0.7614   -0.0020 H       1  LIG1        0.1029
      7 H           2.4165    0.8707   -0.0009 H       1  LIG1        0.0649
      8 H           2.9787    3.5613    0.0007 H       1  LIG1        0.0656
      9 C           0.4688    5.1436    0.0001 C.ar    1  LIG1        0.2381
     10 N           1.5125    6.0060    0.0009 N.ar    1  LIG1       -0.1220
     11 C          -0.0561    7.6706    0.0009 C.ar    1  LIG1        0.2034
     12 N          -0.8302    5.5138   -0.0004 N.ar    1  LIG1       -0.1220
     13 N           1.2431    7.2874    0.0013 N.ar    1  LIG1       -0.1251
     14 N          -1.0904    6.8018    0.0001 N.ar    1  LIG1       -0.1251
     15 C           0.6781   10.0606    0.0024 C.ar    1  LIG1       -0.0504
     16 C           0.3894   11.4182    0.0028 C.ar    1  LIG1       -0.0534
     17 C          -0.3550    9.1103    0.0014 C.ar    1  LIG1        0.0227
     18 C          -0.9353   11.8993    0.0023 C.ar    1  LIG1       -0.0178
     19 H           1.2232   12.1097    0.0037 H       1  LIG1        0.0624
     20 C          -1.6814    9.5697    0.0009 C.ar    1  LIG1       -0.0504
     21 C          -1.9582   10.9296    0.0013 C.ar    1  LIG1       -0.0534
     22 H          -2.4904    8.8484    0.0001 H       1  LIG1        0.0625
     23 H           1.7078    9.7226    0.0028 H       1  LIG1        0.0625
     24 H          -2.9986   11.2310    0.0008 H       1  LIG1        0.0624
     25 C          -2.5642   13.8357    0.0035 C.ar    1  LIG1       -0.0540
     26 C          -2.8491   15.1987    0.0039 C.ar    1  LIG1       -0.0612
     27 C          -1.2390   13.3591    0.0028 C.ar    1  LIG1       -0.0179
     28 C          -1.8170   16.1367    0.0037 C.ar    1  LIG1       -0.0617
     29 H          -3.8845   15.5268    0.0045 H       1  LIG1        0.0618
     30 C          -0.2139   14.3247    0.0026 C.ar    1  LIG1       -0.0540
     31 C          -0.4963   15.6883    0.0030 C.ar    1  LIG1       -0.0612
     32 H           0.8259   14.0202    0.0020 H       1  LIG1        0.0624
     33 H          -2.0382   17.1997    0.0041 H       1  LIG1        0.0618
     34 H          -3.3961   13.1416    0.0038 H       1  LIG1        0.0624
     35 H           0.3223   16.4022    0.0029 H       1  LIG1        0.0618
@<TRIPOS>BOND
     1     6     1    1
     2     1     5   ar
     3     1     2   ar
     4     5     4   ar
     5     7     2    1
     6     2     3   ar
     7    12    14   ar
     8    12     9   ar
     9     4     3   ar
    10     4     9    1
    11     3     8    1
    12    14    11   ar
    13    22    20    1
    14     9    10   ar
    15    24    21    1
    16    20    21   ar
    17    20    17   ar
    18    11    13   ar
    19    11    17    1
    20    10    13   ar
    21    21    18   ar
    22    17    15   ar
    23    32    30    1
    24    18    27    1
    25    18    16   ar
    26    15    23    1
    27    15    16   ar
    28    30    27   ar
    29    30    31   ar
    30    27    25   ar
    31    16    19    1
    32    35    31    1
    33    31    28   ar
    34    25    34    1
    35    25    26   ar
    36    28    26   ar
    37    28    33    1
    38    26    29    1
