@<TRIPOS>MOLECULE
mol_data/opt/b3lyp/geoms/mol2/12858-.out
 28 31 0 0 0
SMALL
GASTEIGER

@<TRIPOS>ATOM
      1 C           0.3145    1.6897    0.0002 C.ar    1  LIG1        0.0927
      2 C           1.6793    1.7679   -0.0002 C.ar    1  LIG1       -0.0232
      3 C           1.9931    3.1557   -0.0002 C.ar    1  LIG1       -0.0126
      4 C           0.7910    3.8221   -0.0001 C.ar    1  LIG1        0.1751
      5 O          -0.2409    2.9252    0.0001 O.2     1  LIG1       -0.4597
      6 H          -0.3796    0.8638    0.0004 H       1  LIG1        0.1029
      7 H           2.3707    0.9383   -0.0003 H       1  LIG1        0.0649
      8 H           2.9673    3.6205   -0.0003 H       1  LIG1        0.0656
      9 C           0.4766    5.2325   -0.0001 C.ar    1  LIG1        0.2381
     10 N           1.5334    6.0827   -0.0003 N.ar    1  LIG1       -0.1220
     11 C          -0.0131    7.7565   -0.0002 C.ar    1  LIG1        0.2099
     12 N          -0.8197    5.6179    0.0001 N.ar    1  LIG1       -0.1220
     13 N           1.2845    7.3670   -0.0004 N.ar    1  LIG1       -0.1246
     14 N          -1.0625    6.9076   -0.0000 N.ar    1  LIG1       -0.1246
     15 C          -0.2925    9.1810   -0.0003 C.ar    1  LIG1        0.0605
     16 C           0.6303   10.2113   -0.0006 C.ar    1  LIG1       -0.0431
     17 C           0.0220   11.4832   -0.0005 C.ar    1  LIG1       -0.0431
     18 C          -1.3589   11.4123   -0.0002 C.ar    1  LIG1        0.0605
     19 S          -1.9345    9.7661    0.0001 S.2     1  LIG1       -0.0818
     20 H           1.6978   10.0321   -0.0009 H       1  LIG1        0.0630
     21 H           0.5531   12.4267   -0.0007 H       1  LIG1        0.0630
     22 C          -2.2901   12.5258   -0.0000 C.ar    1  LIG1        0.2099
     23 N          -3.6114   12.2388    0.0001 N.ar    1  LIG1       -0.1253
     24 C          -3.9320   14.4823    0.0001 C.ar    1  LIG1        0.1605
     25 N          -1.7737   13.7771   -0.0001 N.ar    1  LIG1       -0.1253
     26 N          -4.4563   13.2497    0.0002 N.ar    1  LIG1       -0.1339
     27 N          -2.6250   14.7825    0.0000 N.ar    1  LIG1       -0.1339
     28 H          -4.6281   15.3143    0.0004 H       1  LIG1        0.1085
@<TRIPOS>BOND
     1    20    16    1
     2    21    17    1
     3    16    17   ar
     4    16    15   ar
     5    17    18   ar
     6    13    10   ar
     7    13    11   ar
     8     8     3    1
     9    10     9   ar
    10    15    11    1
    11    15    19   ar
    12     7     2    1
    13    11    14   ar
    14     3     2   ar
    15     3     4   ar
    16    18    22    1
    17    18    19   ar
    18     2     1   ar
    19     9     4    1
    20     9    12   ar
    21    25    22   ar
    22    25    27   ar
    23     4     5   ar
    24    22    23   ar
    25    14    12   ar
    26    27    24   ar
    27    24    26   ar
    28    24    28    1
    29     5     1   ar
    30    23    26   ar
    31     1     6    1
