@<TRIPOS>MOLECULE
mol_data/opt/b3lyp/geoms/mol2/1285.out
 22 24 0 0 0
SMALL
GASTEIGER

@<TRIPOS>ATOM
      1 C           0.2620    1.7356    0.0002 C.ar    1  LIG1        0.0927
      2 C           1.6267    1.8008    0.0000 C.ar    1  LIG1       -0.0232
      3 C           1.9543    3.1866   -0.0001 C.ar    1  LIG1       -0.0126
      4 C           0.7597    3.8644   -0.0000 C.ar    1  LIG1        0.1751
      5 O          -0.2810    2.9777    0.0000 O.2     1  LIG1       -0.4597
      6 H          -0.4407    0.9169    0.0004 H       1  LIG1        0.1029
      7 H           2.3101    0.9646    0.0000 H       1  LIG1        0.0649
      8 H           2.9330    3.6418   -0.0001 H       1  LIG1        0.0656
      9 C           0.4588    5.2800   -0.0001 C.ar    1  LIG1        0.2381
     10 N           1.5236    6.1186   -0.0003 N.ar    1  LIG1       -0.1220
     11 C          -0.0044    7.8119   -0.0003 C.ar    1  LIG1        0.2099
     12 N          -0.8317    5.6790   -0.0001 N.ar    1  LIG1       -0.1220
     13 N           1.2898    7.4060   -0.0004 N.ar    1  LIG1       -0.1246
     14 N          -1.0623    6.9718   -0.0002 N.ar    1  LIG1       -0.1246
     15 C          -0.2679    9.2368   -0.0004 C.ar    1  LIG1        0.0598
     16 C           0.6518   10.2644   -0.0007 C.ar    1  LIG1       -0.0438
     17 C           0.0440   11.5468   -0.0007 C.ar    1  LIG1       -0.0540
     18 C          -1.3265   11.4785   -0.0004 C.ar    1  LIG1       -0.0236
     19 S          -1.9058    9.8490   -0.0002 S.2     1  LIG1       -0.0934
     20 H          -2.0324   12.2978   -0.0004 H       1  LIG1        0.0693
     21 H           1.7191   10.0816   -0.0008 H       1  LIG1        0.0630
     22 H           0.5965   12.4789   -0.0009 H       1  LIG1        0.0623
@<TRIPOS>BOND
     1    22    17    1
     2    21    16    1
     3    17    16   ar
     4    17    18   ar
     5    16    15   ar
     6    18    20    1
     7    18    19   ar
     8    15    11    1
     9    15    19   ar
    10    13    11   ar
    11    13    10   ar
    12    11    14   ar
    13    10     9   ar
    14    14    12   ar
    15     8     3    1
    16     9    12   ar
    17     9     4    1
    18     3     4   ar
    19     3     2   ar
    20     4     5   ar
    21     7     2    1
    22     2     1   ar
    23     5     1   ar
    24     1     6    1
