@<TRIPOS>MOLECULE
mol_data/opt/b3lyp/geoms/mol2/1288-.out
 21 23 0 0 0
SMALL
GASTEIGER

@<TRIPOS>ATOM
      1 C           0.2703    1.7456   -0.0000 C.ar    1  LIG1        0.0927
      2 C           1.6365    1.8213   -0.0000 C.ar    1  LIG1       -0.0232
      3 C           1.9518    3.2071    0.0000 C.ar    1  LIG1       -0.0126
      4 C           0.7495    3.8756   -0.0001 C.ar    1  LIG1        0.1751
      5 O          -0.2837    2.9796   -0.0002 O.2     1  LIG1       -0.4597
      6 H          -0.4240    0.9195   -0.0000 H       1  LIG1        0.1029
      7 H           2.3262    0.9903   -0.0000 H       1  LIG1        0.0649
      8 H           2.9262    3.6717    0.0001 H       1  LIG1        0.0656
      9 C           0.4406    5.2843   -0.0001 C.ar    1  LIG1        0.2381
     10 N           1.5008    6.1303   -0.0000 N.ar    1  LIG1       -0.1219
     11 C          -0.0410    7.8009   -0.0001 C.ar    1  LIG1        0.2435
     12 N          -0.8557    5.6736   -0.0001 N.ar    1  LIG1       -0.1219
     13 N           1.2511    7.4162   -0.0000 N.ar    1  LIG1       -0.1217
     14 N          -1.0951    6.9661   -0.0002 N.ar    1  LIG1       -0.1217
     15 C          -0.3209    9.2629   -0.0001 C.ar    1  LIG1        0.2434
     16 N          -1.6121    9.6446   -0.0001 N.ar    1  LIG1       -0.1224
     17 C          -0.7991   11.7631   -0.0001 C.ar    1  LIG1        0.1605
     18 N           0.7381   10.0942   -0.0001 N.ar    1  LIG1       -0.1224
     19 N          -1.8575   10.9424   -0.0001 N.ar    1  LIG1       -0.1338
     20 N           0.4874   11.3912   -0.0001 N.ar    1  LIG1       -0.1338
     21 H          -1.0031   12.8291   -0.0001 H       1  LIG1        0.1085
@<TRIPOS>BOND
     1    14    12   ar
     2    14    11   ar
     3     5     4   ar
     4     5     1   ar
     5    12     9   ar
     6    17    20   ar
     7    17    19   ar
     8    17    21    1
     9    18    20   ar
    10    18    15   ar
    11    15    11    1
    12    15    16   ar
    13    11    13   ar
    14     9     4    1
    15     9    10   ar
    16    19    16   ar
    17     4     3   ar
    18    13    10   ar
    19     6     1    1
    20     1     2   ar
    21     2     7    1
    22     2     3   ar
    23     3     8    1
