@<TRIPOS>MOLECULE
mol_data/opt/b3lyp/geoms/mol2/12aa12aa12aa-12aa-.out
 30 33 0 0 0
SMALL
GASTEIGER

@<TRIPOS>ATOM
      1 C           0.3594    1.6291   -0.0001 C.ar    1  LIG1        0.0927
      2 C           1.7194    1.7094   -0.0000 C.ar    1  LIG1       -0.0232
      3 C           2.0385    3.1012   -0.0001 C.ar    1  LIG1       -0.0128
      4 C           0.8400    3.7730   -0.0001 C.ar    1  LIG1        0.1697
      5 O          -0.1931    2.8755   -0.0001 O.2     1  LIG1       -0.4598
      6 H          -0.3391    0.8075   -0.0002 H       1  LIG1        0.1029
      7 H           2.4122    0.8807    0.0000 H       1  LIG1        0.0649
      8 H           3.0221    3.5475   -0.0000 H       1  LIG1        0.0656
      9 C           0.5100    5.1725   -0.0001 C.ar    1  LIG1        0.1707
     10 C           1.2814    6.3112   -0.0001 C.ar    1  LIG1       -0.0121
     11 C           0.3841    7.4127   -0.0001 C.ar    1  LIG1       -0.0121
     12 C          -0.8834    6.8809   -0.0001 C.ar    1  LIG1        0.1707
     13 O          -0.8160    5.5134   -0.0001 O.2     1  LIG1       -0.4486
     14 H           2.3609    6.3495   -0.0000 H       1  LIG1        0.0657
     15 H           0.6286    8.4642   -0.0001 H       1  LIG1        0.0657
     16 C          -2.1921    7.4610   -0.0002 C.ar    1  LIG1        0.1707
     17 C          -3.4596    6.9292   -0.0001 C.ar    1  LIG1       -0.0121
     18 C          -4.3569    8.0307   -0.0002 C.ar    1  LIG1       -0.0121
     19 C          -3.5855    9.1694   -0.0002 C.ar    1  LIG1        0.1707
     20 O          -2.2596    8.8285   -0.0002 O.2     1  LIG1       -0.4486
     21 H          -3.7041    5.8778   -0.0001 H       1  LIG1        0.0657
     22 H          -5.4364    7.9925   -0.0002 H       1  LIG1        0.0657
     23 C          -3.9155   10.5689   -0.0003 C.ar    1  LIG1        0.1697
     24 C          -5.1140   11.2407   -0.0003 C.ar    1  LIG1       -0.0128
     25 C          -4.7949   12.6326   -0.0003 C.ar    1  LIG1       -0.0232
     26 C          -3.4350   12.7129   -0.0003 C.ar    1  LIG1        0.0927
     27 O          -2.8825   11.4664   -0.0003 O.2     1  LIG1       -0.4598
     28 H          -2.7364   13.5344   -0.0004 H       1  LIG1        0.1029
     29 H          -6.0976   10.7945   -0.0003 H       1  LIG1        0.0656
     30 H          -5.4877   13.4613   -0.0004 H       1  LIG1        0.0649
@<TRIPOS>BOND
     1    28    26    1
     2    30    25    1
     3    26    25   ar
     4    26    27   ar
     5    25    24   ar
     6    24    29    1
     7    24    23   ar
     8    27    23   ar
     9    23    19    1
    10    19    20   ar
    11    19    18   ar
    12    20    16   ar
    13    18    22    1
    14    18    17   ar
    15     6     1    1
    16    16    17   ar
    17    16    12    1
    18    13    12   ar
    19    13     9   ar
    20    17    21    1
    21    12    11   ar
    22     1     5   ar
    23     1     2   ar
    24     5     4   ar
    25     9     4    1
    26     9    10   ar
    27     4     3   ar
    28    11    15    1
    29    11    10   ar
    30    10    14    1
    31     3     2   ar
    32     3     8    1
    33     2     7    1
