@<TRIPOS>MOLECULE
mol_data/opt/b3lyp/geoms/mol2/12aa12aa12aa-12aa.out
 30 33 0 0 0
SMALL
GASTEIGER

@<TRIPOS>ATOM
      1 C           0.3940    1.6474   -0.0001 C.ar    1  LIG1        0.0927
      2 C           1.7528    1.7454   -0.0000 C.ar    1  LIG1       -0.0232
      3 C           2.0538    3.1413   -0.0000 C.ar    1  LIG1       -0.0128
      4 C           0.8465    3.7973   -0.0001 C.ar    1  LIG1        0.1697
      5 O          -0.1747    2.8865   -0.0001 O.2     1  LIG1       -0.4598
      6 H          -0.2937    0.8168   -0.0002 H       1  LIG1        0.1029
      7 H           2.4564    0.9258    0.0000 H       1  LIG1        0.0649
      8 H           3.0314    3.6003   -0.0000 H       1  LIG1        0.0656
      9 C           0.4987    5.1925   -0.0001 C.ar    1  LIG1        0.1707
     10 C           1.2557    6.3407   -0.0001 C.ar    1  LIG1       -0.0121
     11 C           0.3442    7.4306   -0.0001 C.ar    1  LIG1       -0.0121
     12 C          -0.9166    6.8832   -0.0001 C.ar    1  LIG1        0.1707
     13 O          -0.8315    5.5167   -0.0001 O.2     1  LIG1       -0.4486
     14 H           2.3346    6.3928   -0.0000 H       1  LIG1        0.0657
     15 H           0.5770    8.4846   -0.0001 H       1  LIG1        0.0657
     16 C          -2.2331    7.4457   -0.0002 C.ar    1  LIG1        0.1707
     17 C          -3.4929    6.8972   -0.0001 C.ar    1  LIG1       -0.0121
     18 C          -4.4078    7.9857   -0.0002 C.ar    1  LIG1       -0.0121
     19 C          -3.6525    9.1328   -0.0002 C.ar    1  LIG1        0.1707
     20 O          -2.3196    8.8141   -0.0002 O.2     1  LIG1       -0.4486
     21 H          -3.7213    5.8421   -0.0001 H       1  LIG1        0.0657
     22 H          -5.4864    7.9404   -0.0002 H       1  LIG1        0.0657
     23 C          -3.9820   10.5291   -0.0003 C.ar    1  LIG1        0.1697
     24 C          -3.2276   11.6750   -0.0002 C.ar    1  LIG1       -0.0128
     25 C          -4.1540   12.7635   -0.0003 C.ar    1  LIG1       -0.0232
     26 C          -5.3979   12.2093   -0.0004 C.ar    1  LIG1        0.0927
     27 O          -5.3143   10.8467   -0.0004 O.2     1  LIG1       -0.4598
     28 H          -6.3963   12.6168   -0.0005 H       1  LIG1        0.1029
     29 H          -2.1493   11.7241   -0.0002 H       1  LIG1        0.0656
     30 H          -3.9220   13.8185   -0.0003 H       1  LIG1        0.0649
@<TRIPOS>BOND
     1    28    26    1
     2    26    27   ar
     3    26    25   ar
     4    27    23   ar
     5    25    30    1
     6    25    24   ar
     7    23    24   ar
     8    23    19    1
     9    24    29    1
    10    19    20   ar
    11    19    18   ar
    12    20    16   ar
    13     6     1    1
    14    18    22    1
    15    18    17   ar
    16    16    17   ar
    17    16    12    1
    18     1     5   ar
    19     1     2   ar
    20    17    21    1
    21    13    12   ar
    22    13     9   ar
    23    12    11   ar
    24     5     4   ar
    25     9     4    1
    26     9    10   ar
    27     4     3   ar
    28    11    15    1
    29    11    10   ar
    30    10    14    1
    31     3     2   ar
    32     3     8    1
    33     2     7    1
