@<TRIPOS>MOLECULE
mol_data/opt/b3lyp/geoms/mol2/12aa12aa12aa.out
 23 25 0 0 0
SMALL
GASTEIGER

@<TRIPOS>ATOM
      1 C           0.4287    1.6671   -0.0002 C.ar    1  LIG1        0.0927
      2 C           1.7854    1.7914    0.0000 C.ar    1  LIG1       -0.0232
      3 C           2.0583    3.1931   -0.0000 C.ar    1  LIG1       -0.0128
      4 C           0.8382    3.8248   -0.0000 C.ar    1  LIG1        0.1697
      5 O          -0.1641    2.8942   -0.0000 O.2     1  LIG1       -0.4598
      6 H          -0.2429    0.8226   -0.0002 H       1  LIG1        0.1029
      7 H           2.5055    0.9854    0.0001 H       1  LIG1        0.0649
      8 H           3.0264    3.6715   -0.0000 H       1  LIG1        0.0656
      9 C           0.4629    5.2138   -0.0000 C.ar    1  LIG1        0.1707
     10 C           1.1998    6.3749   -0.0001 C.ar    1  LIG1       -0.0121
     11 C           0.2671    7.4461   -0.0001 C.ar    1  LIG1       -0.0121
     12 C          -0.9843    6.8759   -0.0001 C.ar    1  LIG1        0.1707
     13 O          -0.8711    5.5133   -0.0000 O.2     1  LIG1       -0.4486
     14 H           2.2773    6.4481   -0.0000 H       1  LIG1        0.0657
     15 H           0.4877    8.5033   -0.0002 H       1  LIG1        0.0657
     16 C          -2.3085    7.4386   -0.0002 C.ar    1  LIG1        0.1697
     17 C          -2.7664    8.7340   -0.0002 C.ar    1  LIG1       -0.0128
     18 C          -4.1923    8.6564   -0.0003 C.ar    1  LIG1       -0.0232
     19 C          -4.5020    7.3297   -0.0003 C.ar    1  LIG1        0.0927
     20 O          -3.3681    6.5738   -0.0001 O.2     1  LIG1       -0.4598
     21 H          -5.4309    6.7806   -0.0003 H       1  LIG1        0.1029
     22 H          -2.1595    9.6271   -0.0002 H       1  LIG1        0.0656
     23 H          -4.8916    9.4805   -0.0004 H       1  LIG1        0.0649
@<TRIPOS>BOND
     1    23    18    1
     2    21    19    1
     3    18    19   ar
     4    18    17   ar
     5    19    20   ar
     6     6     1    1
     7    22    17    1
     8    17    16   ar
     9    15    11    1
    10     1     5   ar
    11     1     2   ar
    12    16    12    1
    13    16    20   ar
    14    11    12   ar
    15    11    10   ar
    16    12    13   ar
    17    10     9   ar
    18    10    14    1
    19     9     4    1
    20     9    13   ar
    21     4     3   ar
    22     4     5   ar
    23     3     8    1
    24     3     2   ar
    25     2     7    1
