@<TRIPOS>MOLECULE
mol_data/opt/b3lyp/geoms/mol2/12aa12aa12aa12aa-.out
 30 33 0 0 0
SMALL
GASTEIGER

@<TRIPOS>ATOM
      1 C           0.6805    1.6477   -0.0000 C.ar    1  LIG1        0.0927
      2 C           2.0317    1.8222   -0.0001 C.ar    1  LIG1       -0.0232
      3 C           2.2528    3.2328   -0.0000 C.ar    1  LIG1       -0.0128
      4 C           1.0103    3.8193   -0.0001 C.ar    1  LIG1        0.1697
      5 O           0.0426    2.8523   -0.0001 O.2     1  LIG1       -0.4598
      6 H           0.0406    0.7796   -0.0000 H       1  LIG1        0.1029
      7 H           2.7807    1.0437   -0.0000 H       1  LIG1        0.0649
      8 H           3.2030    3.7465    0.0000 H       1  LIG1        0.0656
      9 C           0.5844    5.1928   -0.0001 C.ar    1  LIG1        0.1707
     10 C           1.2777    6.3810   -0.0001 C.ar    1  LIG1       -0.0121
     11 C           0.3074    7.4169   -0.0001 C.ar    1  LIG1       -0.0121
     12 C          -0.9238    6.8011   -0.0001 C.ar    1  LIG1        0.1707
     13 O          -0.7601    5.4429   -0.0001 O.2     1  LIG1       -0.4486
     14 H           2.3519    6.4938   -0.0000 H       1  LIG1        0.0657
     15 H           0.4896    8.4815   -0.0001 H       1  LIG1        0.0657
     16 C          -2.2640    7.3133   -0.0002 C.ar    1  LIG1        0.1707
     17 C          -2.7726    8.5922   -0.0002 C.ar    1  LIG1       -0.0121
     18 C          -4.1879    8.4679   -0.0003 C.ar    1  LIG1       -0.0121
     19 C          -4.4600    7.1211   -0.0003 C.ar    1  LIG1        0.1707
     20 O          -3.2921    6.4088   -0.0002 O.2     1  LIG1       -0.4486
     21 H          -2.1983    9.5070   -0.0002 H       1  LIG1        0.0657
     22 H          -4.9195    9.2615   -0.0003 H       1  LIG1        0.0657
     23 C          -5.6770    6.3615   -0.0003 C.ar    1  LIG1        0.1697
     24 C          -5.9456    5.0164   -0.0003 C.ar    1  LIG1       -0.0128
     25 C          -7.3697    4.8941   -0.0003 C.ar    1  LIG1       -0.0232
     26 C          -7.8648    6.1629   -0.0004 C.ar    1  LIG1        0.0927
     27 O          -6.8475    7.0733   -0.0004 O.2     1  LIG1       -0.4598
     28 H          -8.8613    6.5751   -0.0005 H       1  LIG1        0.1029
     29 H          -5.2118    4.2247   -0.0002 H       1  LIG1        0.0656
     30 H          -7.9466    3.9807   -0.0003 H       1  LIG1        0.0649
@<TRIPOS>BOND
     1    28    26    1
     2    26    27   ar
     3    26    25   ar
     4    27    23   ar
     5    25    30    1
     6    25    24   ar
     7    23    19    1
     8    23    24   ar
     9    22    18    1
    10    19    18   ar
    11    19    20   ar
    12    18    17   ar
    13    24    29    1
    14    20    16   ar
    15    17    21    1
    16    17    16   ar
    17    16    12    1
    18    12    13   ar
    19    12    11   ar
    20    13     9   ar
    21    11    15    1
    22    11    10   ar
    23     5     4   ar
    24     5     1   ar
    25     9     4    1
    26     9    10   ar
    27     4     3   ar
    28    10    14    1
    29     2     7    1
    30     2     1   ar
    31     2     3   ar
    32     1     6    1
    33     3     8    1
