@<TRIPOS>MOLECULE
mol_data/opt/b3lyp/geoms/mol2/12aa12aa.out
 16 17 0 0 0
SMALL
GASTEIGER

@<TRIPOS>ATOM
      1 C           0.2458    1.7728   -0.0001 C.ar    1  LIG1        0.0927
      2 C           1.6066    1.8265    0.0000 C.ar    1  LIG1       -0.0232
      3 C           1.9517    3.2130    0.0000 C.ar    1  LIG1       -0.0128
      4 C           0.7673    3.9065   -0.0001 C.ar    1  LIG1        0.1696
      5 O          -0.2824    3.0296   -0.0001 O.2     1  LIG1       -0.4598
      6 H          -0.4687    0.9648   -0.0001 H       1  LIG1        0.1029
      7 H           2.2840    0.9843    0.0000 H       1  LIG1        0.0649
      8 H           2.9434    3.6405    0.0000 H       1  LIG1        0.0656
      9 C           0.4624    5.3156   -0.0001 C.ar    1  LIG1        0.1696
     10 C           1.2541    6.4367   -0.0001 C.ar    1  LIG1       -0.0128
     11 C           0.3667    7.5565   -0.0002 C.ar    1  LIG1       -0.0232
     12 C          -0.8946    7.0429   -0.0002 C.ar    1  LIG1        0.0927
     13 O          -0.8559    5.6801   -0.0001 O.2     1  LIG1       -0.4598
     14 H          -1.8792    7.4832   -0.0003 H       1  LIG1        0.1029
     15 H           2.3339    6.4574   -0.0000 H       1  LIG1        0.0656
     16 H           0.6354    8.6034   -0.0002 H       1  LIG1        0.0649
@<TRIPOS>BOND
     1    14    12    1
     2    12    11   ar
     3    12    13   ar
     4    16    11    1
     5    11    10   ar
     6    13     9   ar
     7     9    10   ar
     8     9     4    1
     9     6     1    1
    10     5     1   ar
    11     5     4   ar
    12    10    15    1
    13     1     2   ar
    14     4     3   ar
    15     2     3   ar
    16     2     7    1
    17     3     8    1
