@<TRIPOS>MOLECULE
mol_data/opt/b3lyp/geoms/mol2/12aa12aa12aa12aa.out
 30 33 0 0 0
SMALL
GASTEIGER

@<TRIPOS>ATOM
      1 C           0.7689    1.6502   -0.0000 C.ar    1  LIG1        0.0927
      2 C           2.1173    1.8464   -0.0001 C.ar    1  LIG1       -0.0232
      3 C           2.3155    3.2604   -0.0000 C.ar    1  LIG1       -0.0128
      4 C           1.0633    3.8265   -0.0001 C.ar    1  LIG1        0.1697
      5 O           0.1119    2.8440   -0.0001 O.2     1  LIG1       -0.4598
      6 H           0.1429    0.7720   -0.0001 H       1  LIG1        0.1029
      7 H           2.8787    1.0801   -0.0000 H       1  LIG1        0.0649
      8 H           3.2571    3.7895    0.0000 H       1  LIG1        0.0656
      9 C           0.6152    5.1929   -0.0001 C.ar    1  LIG1        0.1707
     10 C           1.2898    6.3920   -0.0001 C.ar    1  LIG1       -0.0121
     11 C           0.3029    7.4121   -0.0001 C.ar    1  LIG1       -0.0121
     12 C          -0.9183    6.7764   -0.0001 C.ar    1  LIG1        0.1707
     13 O          -0.7328    5.4214   -0.0001 O.2     1  LIG1       -0.4486
     14 H           2.3620    6.5218   -0.0000 H       1  LIG1        0.0657
     15 H           0.4681    8.4795   -0.0001 H       1  LIG1        0.0657
     16 C          -2.2657    7.2698   -0.0002 C.ar    1  LIG1        0.1707
     17 C          -2.7875    8.5439   -0.0002 C.ar    1  LIG1       -0.0121
     18 C          -4.1997    8.4024   -0.0003 C.ar    1  LIG1       -0.0121
     19 C          -4.4591    7.0512   -0.0003 C.ar    1  LIG1        0.1707
     20 O          -3.2824    6.3552   -0.0002 O.2     1  LIG1       -0.4486
     21 H          -2.2242    9.4655   -0.0002 H       1  LIG1        0.0657
     22 H          -4.9346    9.1940   -0.0003 H       1  LIG1        0.0657
     23 C          -5.6838    6.2975   -0.0003 C.ar    1  LIG1        0.1697
     24 C          -7.0053    6.6740   -0.0004 C.ar    1  LIG1       -0.0128
     25 C          -7.7672    5.4664   -0.0004 C.ar    1  LIG1       -0.0232
     26 C          -6.8645    4.4457   -0.0003 C.ar    1  LIG1        0.0927
     27 O          -5.5919    4.9329   -0.0003 O.2     1  LIG1       -0.4598
     28 H          -6.9537    3.3710   -0.0003 H       1  LIG1        0.1029
     29 H          -7.3825    7.6861   -0.0004 H       1  LIG1        0.0656
     30 H          -8.8435    5.3731   -0.0004 H       1  LIG1        0.0649
@<TRIPOS>BOND
     1    30    25    1
     2    25    24   ar
     3    25    26   ar
     4    29    24    1
     5    24    23   ar
     6    26    28    1
     7    26    27   ar
     8    23    27   ar
     9    23    19    1
    10    22    18    1
    11    19    18   ar
    12    19    20   ar
    13    18    17   ar
    14    20    16   ar
    15    17    21    1
    16    17    16   ar
    17    16    12    1
    18    12    13   ar
    19    12    11   ar
    20    13     9   ar
    21     5     4   ar
    22     5     1   ar
    23    11    15    1
    24    11    10   ar
    25     9     4    1
    26     9    10   ar
    27     4     3   ar
    28     6     1    1
    29     2     1   ar
    30     2     7    1
    31     2     3   ar
    32    10    14    1
    33     3     8    1
