@<TRIPOS>MOLECULE
mol_data/opt/b3lyp/geoms/mol2/12aa4fd-4al-12di4ah-12dh-13li-6ll.out
 100 107 0 0 0
SMALL
GASTEIGER

@<TRIPOS>ATOM
      1 C           3.6888    2.2224   -2.8212 C.ar    1  LIG1        0.0926
      2 C           4.2914    1.9876   -1.6233 C.ar    1  LIG1       -0.0233
      3 C           4.0158    3.1269   -0.8068 C.ar    1  LIG1       -0.0158
      4 C           3.2590    3.9850   -1.5670 C.ar    1  LIG1        0.1383
      5 O           3.0575    3.4274   -2.8080 O.2     1  LIG1       -0.4628
      6 H           3.6160    1.6648   -3.7418 H       1  LIG1        0.1029
      7 H           4.8629    1.1122   -1.3513 H       1  LIG1        0.0649
      8 H           4.3319    3.2977    0.2084 H       1  LIG1        0.0655
      9 C           2.7608    5.9883   -0.1281 C.ar    1  LIG1        0.1281
     10 C           2.1638    7.2369    0.0371 C.ar    1  LIG1       -0.0105
     11 C           2.6558    5.2915   -1.3544 C.ar    1  LIG1        0.0599
     12 C           1.4385    7.8663   -0.9812 C.ar    1  LIG1        0.0031
     13 H           2.2399    7.7273    1.0042 H       1  LIG1        0.0661
     14 C           1.9335    5.9176   -2.3767 C.ar    1  LIG1       -0.0296
     15 C           1.3319    7.1732   -2.2144 C.ar    1  LIG1        0.0604
     16 H           1.8444    5.4150   -3.3317 H       1  LIG1        0.0639
     17 O           3.4496    5.3957    0.8849 O.3     1  LIG1       -0.5060
     18 H           3.4464    5.9761    1.6581 H       1  LIG1        0.2922
     19 N           0.0844    8.1277   -4.2831 N.1     1  LIG1       -0.1908
     20 C           0.6459    7.7216   -3.3474 C.1     1  LIG1        0.0998
     21 C           1.5461   10.1673    0.0005 C.ar    1  LIG1       -0.0531
     22 C           0.9746   11.4057    0.2583 C.ar    1  LIG1       -0.0469
     23 C           0.8401    9.2003   -0.7317 C.ar    1  LIG1       -0.0130
     24 C          -0.3046   11.7474   -0.2122 C.ar    1  LIG1        0.0602
     25 H           1.5339   12.1335    0.8346 H       1  LIG1        0.0626
     26 C          -0.4429    9.5200   -1.1994 C.ar    1  LIG1       -0.0115
     27 C          -1.0101   10.7761   -0.9727 C.ar    1  LIG1        0.1313
     28 H          -1.0043    8.7785   -1.7488 H       1  LIG1        0.0660
     29 H           2.5520    9.9609    0.3494 H       1  LIG1        0.0624
     30 O          -2.2242   11.1329   -1.4654 O.3     1  LIG1       -0.4944
     31 C          -2.8674   10.2601   -2.3914 C.3     1  LIG1        0.0788
     32 H          -3.7359   10.8092   -2.7568 H       1  LIG1        0.0660
     33 H          -2.2107   10.0089   -3.2315 H       1  LIG1        0.0660
     34 H          -3.2043    9.3366   -1.9046 H       1  LIG1        0.0660
     35 C          -0.8387   13.0730    0.0698 C.ar    1  LIG1        0.1567
     36 C          -0.2316   14.2996    0.3020 C.ar    1  LIG1        0.1010
     37 C          -1.2711   15.2615    0.5592 C.ar    1  LIG1        0.0133
     38 C          -2.4508   14.5569    0.4716 C.ar    1  LIG1        0.1399
     39 O          -2.1761   13.2408    0.1752 O.2     1  LIG1       -0.4531
     40 N           2.2861   14.8744    0.2426 N.1     1  LIG1       -0.1907
     41 C           1.1547   14.5966    0.2606 C.1     1  LIG1        0.1032
     42 C          -1.0428   16.7197    0.8213 C.3     1  LIG1       -0.0349
     43 H          -1.1844   16.9700    1.8793 H       1  LIG1        0.0279
     44 H          -1.7266   17.3438    0.2388 H       1  LIG1        0.0279
     45 H          -0.0199   16.9973    0.5553 H       1  LIG1        0.0279
     46 C          -4.2867   16.1216    1.1473 C.ar    1  LIG1       -0.0503
     47 C          -5.6360   16.3961    1.2413 C.ar    1  LIG1       -0.0486
     48 C          -3.8611   14.8945    0.5933 C.ar    1  LIG1        0.0194
     49 C          -6.6344   15.4942    0.8081 C.ar    1  LIG1        0.0393
     50 H          -5.9376   17.3411    1.6769 H       1  LIG1        0.0625
     51 C          -4.8299   13.9860    0.1611 C.ar    1  LIG1       -0.0297
     52 C          -6.2097   14.2447    0.2484 C.ar    1  LIG1        0.0360
     53 H          -4.5086   13.0431   -0.2692 H       1  LIG1        0.0643
     54 H          -3.5721   16.8417    1.5223 H       1  LIG1        0.0625
     55 N          -7.0713   13.2939   -0.2534 N.pl3   1  LIG1       -0.3574
     56 H          -8.0546   13.3238   -0.0306 H       1  LIG1        0.1423
     57 H          -6.6829   12.3746   -0.3942 H       1  LIG1        0.1423
     58 C          -8.0247   15.8619    0.9686 C.ar    1  LIG1        0.1567
     59 C          -8.6920   16.9655    1.5036 C.ar    1  LIG1        0.1187
     60 C         -10.1059   16.7168    1.3789 C.ar    1  LIG1        0.0908
     61 C         -10.2294   15.4820    0.7896 C.ar    1  LIG1        0.1772
     62 O          -8.9697   14.9871    0.5294 O.2     1  LIG1       -0.4499
     63 N          -7.8298   19.1641    2.5380 N.1     1  LIG1       -0.1907
     64 C          -8.1737   18.1541    2.0661 C.1     1  LIG1        0.1048
     65 N         -11.1509   17.5498    1.8044 N.pl3   1  LIG1       -0.3540
     66 H         -10.8088   18.4045    2.2308 H       1  LIG1        0.1425
     67 H         -11.7973   17.7834    1.0567 H       1  LIG1        0.1425
     68 C         -11.3457   14.6560    0.4464 C.ar    1  LIG1        0.1269
     69 C         -11.4241   13.4767   -0.2986 C.ar    1  LIG1        0.1518
     70 C         -12.7638   13.0205   -0.2979 C.ar    1  LIG1        0.0174
     71 C         -13.5015   13.9474    0.4619 C.ar    1  LIG1        0.0588
     72 N         -12.6180   14.9235    0.8821 N.ar    1  LIG1       -0.3484
     73 H         -12.8700   15.6195    1.5721 H       1  LIG1        0.1661
     74 O         -10.3643   12.8360   -0.8991 O.3     1  LIG1       -0.4926
     75 C         -10.0802   13.2984   -2.2254 C.3     1  LIG1        0.0789
     76 H          -9.2282   12.7170   -2.5829 H       1  LIG1        0.0660
     77 H         -10.9388   13.1419   -2.8895 H       1  LIG1        0.0660
     78 H          -9.8135   14.3612   -2.2243 H       1  LIG1        0.0660
     79 C         -13.1937   11.7493   -0.9686 C.3     1  LIG1       -0.0342
     80 H         -13.7898   11.9236   -1.8739 H       1  LIG1        0.0279
     81 H         -13.7837   11.1105   -0.3025 H       1  LIG1        0.0279
     82 H         -12.3054   11.1864   -1.2672 H       1  LIG1        0.0279
     83 C         -15.4539   14.8645    1.8090 C.ar    1  LIG1        0.2240
     84 C         -14.9174   13.9956    0.8169 C.ar    1  LIG1        0.0636
     85 C         -15.8586   13.1641    0.1827 C.ar    1  LIG1       -0.0042
     86 C         -17.2064   13.1992    0.5482 C.ar    1  LIG1        0.1390
     87 C         -17.5976   14.0877    1.5507 C.ar    1  LIG1        0.0730
     88 N         -16.7280   14.9019    2.1559 N.ar    1  LIG1       -0.2171
     89 H         -15.5285   12.5028   -0.6034 H       1  LIG1        0.0663
     90 H         -18.6385   14.1367    1.8588 H       1  LIG1        0.0868
     91 O         -14.5946   15.7200    2.4449 O.3     1  LIG1       -0.4792
     92 C         -15.1342   16.5503    3.4787 C.3     1  LIG1        0.0804
     93 H         -14.2864   17.1277    3.8497 H       1  LIG1        0.0660
     94 H         -15.9096   17.2132    3.0861 H       1  LIG1        0.0660
     95 H         -15.5659   15.9454    4.2801 H       1  LIG1        0.0660
     96 O         -18.1926   12.4324   -0.0040 O.3     1  LIG1       -0.4936
     97 C         -17.8341   11.5137   -1.0234 C.3     1  LIG1        0.0789
     98 H         -18.7561   11.0056   -1.3091 H       1  LIG1        0.0660
     99 H         -17.4181   12.0236   -1.9022 H       1  LIG1        0.0660
    100 H         -17.1102   10.7704   -0.6643 H       1  LIG1        0.0660
@<TRIPOS>BOND
     1    19    20    3
     2     6     1    1
     3    20    15    1
     4    16    14    1
     5    33    31    1
     6    77    75    1
     7     1     5   ar
     8     1     2   ar
     9     5     4   ar
    10    32    31    1
    11    76    75    1
    12    31    34    1
    13    31    30    1
    14    14    15   ar
    15    14    11   ar
    16    75    78    1
    17    75    74    1
    18    15    12   ar
    19    99    97    1
    20    80    79    1
    21    28    26    1
    22     2     7    1
    23     2     3   ar
    24     4    11    1
    25     4     3   ar
    26    30    27    1
    27    11     9   ar
    28    98    97    1
    29    82    79    1
    30    26    27   ar
    31    26    23   ar
    32    97   100    1
    33    97    96    1
    34    12    23    1
    35    12    10   ar
    36    27    24   ar
    37    79    81    1
    38    79    70    1
    39    74    69    1
    40     3     8    1
    41    23    21   ar
    42    89    85    1
    43    57    55    1
    44    69    70   ar
    45    69    68   ar
    46    70    71   ar
    47    53    51    1
    48    55    56    1
    49    55    52    1
    50    24    35    1
    51    24    22   ar
    52     9    10   ar
    53     9    17    1
    54    96    86    1
    55    21    22   ar
    56    21    29    1
    57    10    13    1
    58    35    39   ar
    59    35    36   ar
    60    51    52   ar
    61    51    48   ar
    62    39    38   ar
    63    85    86   ar
    64    85    84   ar
    65    44    42    1
    66    40    41    3
    67    52    49   ar
    68    22    25    1
    69    41    36    1
    70    36    37   ar
    71    68    61    1
    72    68    72   ar
    73    71    84    1
    74    71    72   ar
    75    38    37   ar
    76    38    48    1
    77    62    61   ar
    78    62    58   ar
    79    86    87   ar
    80    45    42    1
    81    37    42    1
    82    48    46   ar
    83    61    60   ar
    84    49    58    1
    85    49    47   ar
    86    84    83   ar
    87    42    43    1
    88    72    73    1
    89    17    18    1
    90    58    59   ar
    91    67    65    1
    92    46    47   ar
    93    46    54    1
    94    47    50    1
    95    60    59   ar
    96    60    65    1
    97    59    64    1
    98    87    90    1
    99    87    88   ar
   100    65    66    1
   101    83    88   ar
   102    83    91    1
   103    64    63    3
   104    91    92    1
   105    94    92    1
   106    92    93    1
   107    92    95    1
