@<TRIPOS>MOLECULE
mol_data/opt/b3lyp/geoms/mol2/12aa12aa-12aa-12aa.out
 30 33 0 0 0
SMALL
GASTEIGER

@<TRIPOS>ATOM
      1 C          -0.0822    1.7116   -0.0000 C.ar    1  LIG1        0.0927
      2 C           1.2773    1.6313   -0.0001 C.ar    1  LIG1       -0.0232
      3 C           1.7608    2.9764   -0.0000 C.ar    1  LIG1       -0.0128
      4 C           0.6510    3.7826   -0.0001 C.ar    1  LIG1        0.1697
      5 O          -0.4844    3.0162   -0.0001 O.2     1  LIG1       -0.4598
      6 H          -0.8731    0.9784   -0.0000 H       1  LIG1        0.1029
      7 H           1.8663    0.7257   -0.0001 H       1  LIG1        0.0649
      8 H           2.7868    3.3117    0.0000 H       1  LIG1        0.0656
      9 C           0.4679    5.2055   -0.0001 C.ar    1  LIG1        0.1707
     10 C          -0.6434    6.0131   -0.0001 C.ar    1  LIG1       -0.0121
     11 C          -0.1683    7.3520   -0.0001 C.ar    1  LIG1       -0.0121
     12 C           1.2062    7.2831   -0.0001 C.ar    1  LIG1        0.1707
     13 O           1.6019    5.9717   -0.0001 O.2     1  LIG1       -0.4486
     14 H          -1.6695    5.6777   -0.0001 H       1  LIG1        0.0657
     15 H          -0.7615    8.2546   -0.0001 H       1  LIG1        0.0657
     16 C           2.2289    8.2892   -0.0001 C.ar    1  LIG1        0.1707
     17 C           2.1825    9.6646   -0.0002 C.ar    1  LIG1       -0.0121
     18 C           3.5290   10.1178   -0.0002 C.ar    1  LIG1       -0.0121
     19 C           4.3183    8.9934   -0.0002 C.ar    1  LIG1        0.1707
     20 O           3.5337    7.8721   -0.0002 O.2     1  LIG1       -0.4486
     21 H           1.2897   10.2725   -0.0002 H       1  LIG1        0.0657
     22 H           3.8811   11.1382   -0.0002 H       1  LIG1        0.0657
     23 C           5.7380    8.7871   -0.0002 C.ar    1  LIG1        0.1697
     24 C           6.5259    7.6642   -0.0001 C.ar    1  LIG1       -0.0128
     25 C           7.8787    8.1257   -0.0001 C.ar    1  LIG1       -0.0232
     26 C           7.8207    9.4863   -0.0002 C.ar    1  LIG1        0.0927
     27 O           6.5228    9.9098   -0.0003 O.2     1  LIG1       -0.4598
     28 H           8.5667   10.2651   -0.0003 H       1  LIG1        0.1029
     29 H           6.1739    6.6438    0.0000 H       1  LIG1        0.0656
     30 H           8.7746    7.5220   -0.0001 H       1  LIG1        0.0649
@<TRIPOS>BOND
     1    28    26    1
     2    27    26   ar
     3    27    23   ar
     4    26    25   ar
     5    22    18    1
     6    18    19   ar
     7    18    17   ar
     8    21    17    1
     9    19    23    1
    10    19    20   ar
    11    17    16   ar
    12    23    24   ar
    13    20    16   ar
    14    16    12    1
    15    12    13   ar
    16    12    11   ar
    17    25    24   ar
    18    25    30    1
    19    13     9   ar
    20    15    11    1
    21     5     4   ar
    22     5     1   ar
    23    11    10   ar
    24     9    10   ar
    25     9     4    1
    26    10    14    1
    27    24    29    1
    28     4     3   ar
    29     2     7    1
    30     2     1   ar
    31     2     3   ar
    32     1     6    1
    33     3     8    1
