@<TRIPOS>MOLECULE
mol_data/opt/b3lyp/geoms/mol2/12aa12aa-12aa-12aa-.out
 30 33 0 0 0
SMALL
GASTEIGER

@<TRIPOS>ATOM
      1 C          -0.1530    1.7104   -0.0001 C.ar    1  LIG1        0.0927
      2 C           1.2055    1.6145   -0.0001 C.ar    1  LIG1       -0.0232
      3 C           1.7048    2.9538   -0.0000 C.ar    1  LIG1       -0.0128
      4 C           0.6043    3.7725   -0.0001 C.ar    1  LIG1        0.1697
      5 O          -0.5402    3.0196   -0.0001 O.2     1  LIG1       -0.4598
      6 H          -0.9523    0.9864   -0.0001 H       1  LIG1        0.1029
      7 H           1.7840    0.7021   -0.0001 H       1  LIG1        0.0649
      8 H           2.7345    3.2779    0.0000 H       1  LIG1        0.0656
      9 C           0.4389    5.1976   -0.0001 C.ar    1  LIG1        0.1707
     10 C          -0.6615    6.0202   -0.0001 C.ar    1  LIG1       -0.0121
     11 C          -0.1678    7.3524   -0.0001 C.ar    1  LIG1       -0.0121
     12 C           1.2057    7.2643   -0.0001 C.ar    1  LIG1        0.1707
     13 O           1.5828    5.9480   -0.0001 O.2     1  LIG1       -0.4486
     14 H          -1.6920    5.6989   -0.0001 H       1  LIG1        0.0657
     15 H          -0.7486    8.2631   -0.0001 H       1  LIG1        0.0657
     16 C           2.2424    8.2561   -0.0001 C.ar    1  LIG1        0.1707
     17 C           2.2132    9.6324   -0.0002 C.ar    1  LIG1       -0.0121
     18 C           3.5648   10.0657   -0.0002 C.ar    1  LIG1       -0.0121
     19 C           4.3417    8.9303   -0.0002 C.ar    1  LIG1        0.1707
     20 O           3.5399    7.8224   -0.0001 O.2     1  LIG1       -0.4486
     21 H           1.3291   10.2529   -0.0002 H       1  LIG1        0.0657
     22 H           3.9228   11.0847   -0.0002 H       1  LIG1        0.0657
     23 C           5.7652    8.7270   -0.0002 C.ar    1  LIG1        0.1697
     24 C           6.8273    9.5988   -0.0002 C.ar    1  LIG1       -0.0128
     25 C           8.0074    8.7949   -0.0002 C.ar    1  LIG1       -0.0232
     26 C           7.5865    7.4991   -0.0001 C.ar    1  LIG1        0.0927
     27 O           6.2247    7.4385   -0.0001 O.2     1  LIG1       -0.4598
     28 H           8.0969    6.5491   -0.0001 H       1  LIG1        0.1029
     29 H           6.7700   10.6773   -0.0002 H       1  LIG1        0.0656
     30 H           9.0316    9.1383   -0.0002 H       1  LIG1        0.0649
@<TRIPOS>BOND
     1    29    24    1
     2    30    25    1
     3    24    25   ar
     4    24    23   ar
     5    22    18    1
     6    25    26   ar
     7    18    17   ar
     8    18    19   ar
     9    21    17    1
    10    17    16   ar
    11    23    19    1
    12    23    27   ar
    13    19    20   ar
    14    16    20   ar
    15    16    12    1
    16     5     4   ar
    17     5     1   ar
    18    12    13   ar
    19    12    11   ar
    20    26    27   ar
    21    26    28    1
    22    13     9   ar
    23    11    15    1
    24    11    10   ar
    25     9    10   ar
    26     9     4    1
    27    10    14    1
    28     4     3   ar
    29     6     1    1
    30     2     1   ar
    31     2     7    1
    32     2     3   ar
    33     3     8    1
