@<TRIPOS>MOLECULE
mol_data/opt/b3lyp/geoms/mol2/12aa12aa-12aa.out
 23 25 0 0 0
SMALL
GASTEIGER

@<TRIPOS>ATOM
      1 C           0.1632    1.7599    0.0000 C.ar    1  LIG1        0.0927
      2 C           1.5249    1.7455   -0.0000 C.ar    1  LIG1       -0.0232
      3 C           1.9425    3.1127    0.0000 C.ar    1  LIG1       -0.0128
      4 C           0.7952    3.8644   -0.0001 C.ar    1  LIG1        0.1697
      5 O          -0.3013    3.0436   -0.0001 O.2     1  LIG1       -0.4598
      6 H          -0.5910    0.9894    0.0001 H       1  LIG1        0.1029
      7 H           2.1569    0.8695   -0.0000 H       1  LIG1        0.0649
      8 H           2.9516    3.4964    0.0001 H       1  LIG1        0.0656
      9 C           0.5418    5.2771   -0.0001 C.ar    1  LIG1        0.1707
     10 C          -0.6072    6.0282   -0.0001 C.ar    1  LIG1       -0.0121
     11 C          -0.2000    7.3917   -0.0001 C.ar    1  LIG1       -0.0121
     12 C           1.1728    7.3896   -0.0002 C.ar    1  LIG1        0.1707
     13 O           1.6375    6.1003   -0.0001 O.2     1  LIG1       -0.4486
     14 H          -1.6148    5.6405   -0.0001 H       1  LIG1        0.0657
     15 H          -0.8299    8.2685   -0.0001 H       1  LIG1        0.0657
     16 C           2.1594    8.4320   -0.0002 C.ar    1  LIG1        0.1697
     17 C           3.5311    8.4312   -0.0001 C.ar    1  LIG1       -0.0128
     18 C           3.9316    9.8036   -0.0001 C.ar    1  LIG1       -0.0232
     19 C           2.7851   10.5383   -0.0002 C.ar    1  LIG1        0.0927
     20 O           1.6927    9.7196   -0.0003 O.2     1  LIG1       -0.4598
     21 H           2.5770   11.5962   -0.0002 H       1  LIG1        0.1029
     22 H           4.1644    7.5570   -0.0001 H       1  LIG1        0.0656
     23 H           4.9406   10.1894   -0.0001 H       1  LIG1        0.0649
@<TRIPOS>BOND
     1    20    19   ar
     2    20    16   ar
     3    21    19    1
     4    19    18   ar
     5    16    12    1
     6    16    17   ar
     7    12    13   ar
     8    12    11   ar
     9    13     9   ar
    10    18    17   ar
    11    18    23    1
    12    10    11   ar
    13    10    14    1
    14    10     9   ar
    15    11    15    1
    16     5     4   ar
    17     5     1   ar
    18    17    22    1
    19     9     4    1
    20     4     3   ar
    21     2     7    1
    22     2     3   ar
    23     2     1   ar
    24     3     8    1
    25     1     6    1
