@<TRIPOS>MOLECULE
mol_data/opt/b3lyp/geoms/mol2/12aa12aa-12aa12aa.out
 30 33 0 0 0
SMALL
GASTEIGER

@<TRIPOS>ATOM
      1 C           0.2131    1.6762   -0.0001 C.ar    1  LIG1        0.0927
      2 C           1.5749    1.6857   -0.0000 C.ar    1  LIG1       -0.0232
      3 C           1.9685    3.0599   -0.0000 C.ar    1  LIG1       -0.0128
      4 C           0.8078    3.7914   -0.0001 C.ar    1  LIG1        0.1697
      5 O          -0.2740    2.9514   -0.0001 O.2     1  LIG1       -0.4598
      6 H          -0.5276    0.8924   -0.0002 H       1  LIG1        0.1029
      7 H           2.2222    0.8210    0.0000 H       1  LIG1        0.0649
      8 H           2.9706    3.4609    0.0000 H       1  LIG1        0.0656
      9 C           0.5306    5.1991   -0.0001 C.ar    1  LIG1        0.1707
     10 C          -0.6313    5.9313   -0.0001 C.ar    1  LIG1       -0.0121
     11 C          -0.2482    7.3007   -0.0001 C.ar    1  LIG1       -0.0121
     12 C           1.1257    7.3220   -0.0001 C.ar    1  LIG1        0.1707
     13 O           1.6125    6.0402   -0.0001 O.2     1  LIG1       -0.4486
     14 H          -1.6321    5.5267   -0.0000 H       1  LIG1        0.0657
     15 H          -0.8923    8.1670   -0.0001 H       1  LIG1        0.0657
     16 C           2.0918    8.3784   -0.0001 C.ar    1  LIG1        0.1707
     17 C           3.4662    8.4012   -0.0001 C.ar    1  LIG1       -0.0121
     18 C           3.8456    9.7704   -0.0001 C.ar    1  LIG1       -0.0121
     19 C           2.6816   10.5030   -0.0002 C.ar    1  LIG1        0.1707
     20 O           1.6045    9.6579   -0.0002 O.2     1  LIG1       -0.4486
     21 H           4.1139    7.5376   -0.0000 H       1  LIG1        0.0657
     22 H           4.8495   10.1689   -0.0001 H       1  LIG1        0.0657
     23 C           2.4217   11.9171   -0.0002 C.ar    1  LIG1        0.1697
     24 C           3.2497   13.0135   -0.0002 C.ar    1  LIG1       -0.0128
     25 C           2.3987   14.1601   -0.0003 C.ar    1  LIG1       -0.0232
     26 C           1.1209   13.6877   -0.0003 C.ar    1  LIG1        0.0927
     27 O           1.1153   12.3243   -0.0003 O.2     1  LIG1       -0.4598
     28 H           0.1513   14.1597   -0.0004 H       1  LIG1        0.1029
     29 H           4.3297   12.9997   -0.0002 H       1  LIG1        0.0656
     30 H           2.7005   15.1973   -0.0003 H       1  LIG1        0.0649
@<TRIPOS>BOND
     1    28    26    1
     2    26    25   ar
     3    26    27   ar
     4    30    25    1
     5    25    24   ar
     6    27    23   ar
     7    24    23   ar
     8    24    29    1
     9    23    19    1
    10     6     1    1
    11    20    19   ar
    12    20    16   ar
    13    19    18   ar
    14     5     1   ar
    15     5     4   ar
    16     1     2   ar
    17    13    12   ar
    18    13     9   ar
    19    16    12    1
    20    16    17   ar
    21    12    11   ar
    22    18    22    1
    23    18    17   ar
    24     9     4    1
    25     9    10   ar
    26     4     3   ar
    27    11    15    1
    28    11    10   ar
    29    10    14    1
    30    17    21    1
    31     3     2   ar
    32     3     8    1
    33     2     7    1
