@<TRIPOS>MOLECULE
mol_data/opt/b3lyp/geoms/mol2/12aa12aa-.out
 16 17 0 0 0
SMALL
GASTEIGER

@<TRIPOS>ATOM
      1 C           0.2052    1.8077   -0.0000 C.ar    1  LIG1        0.0927
      2 C           1.5666    1.8082   -0.0000 C.ar    1  LIG1       -0.0232
      3 C           1.9687    3.1808    0.0000 C.ar    1  LIG1       -0.0128
      4 C           0.8136    3.9184   -0.0001 C.ar    1  LIG1        0.1696
      5 O          -0.2734    3.0863   -0.0001 O.2     1  LIG1       -0.4598
      6 H          -0.5406    1.0285   -0.0000 H       1  LIG1        0.1029
      7 H           2.2092    0.9391    0.0000 H       1  LIG1        0.0649
      8 H           2.9728    3.5761    0.0001 H       1  LIG1        0.0656
      9 C           0.5446    5.3315   -0.0001 C.ar    1  LIG1        0.1696
     10 C          -0.6105    6.0692   -0.0001 C.ar    1  LIG1       -0.0128
     11 C          -0.2084    7.4417   -0.0001 C.ar    1  LIG1       -0.0232
     12 C           1.1530    7.4422   -0.0002 C.ar    1  LIG1        0.0927
     13 O           1.6316    6.1636   -0.0002 O.2     1  LIG1       -0.4598
     14 H           1.8989    8.2214   -0.0002 H       1  LIG1        0.1029
     15 H          -1.6146    5.6738   -0.0000 H       1  LIG1        0.0656
     16 H          -0.8509    8.3109   -0.0002 H       1  LIG1        0.0649
@<TRIPOS>BOND
     1    14    12    1
     2    12    13   ar
     3    12    11   ar
     4    13     9   ar
     5    16    11    1
     6    11    10   ar
     7     9    10   ar
     8     9     4    1
     9     5     4   ar
    10     5     1   ar
    11    10    15    1
    12     4     3   ar
    13     6     1    1
    14     1     2   ar
    15     2     3   ar
    16     2     7    1
    17     3     8    1
