@<TRIPOS>MOLECULE
mol_data/opt/b3lyp/geoms/mol2/12ad12il4aa-4ia-.out
 47 50 0 0 0
SMALL
GASTEIGER

@<TRIPOS>ATOM
      1 C           0.5485    1.7169    1.2750 C.ar    1  LIG1        0.0940
      2 C           1.7703    1.6255    0.6954 C.ar    1  LIG1       -0.0057
      3 C           2.0684    2.9405    0.1900 C.ar    1  LIG1        0.1004
      4 C           0.9898    3.7460    0.5275 C.ar    1  LIG1        0.1873
      5 O           0.0648    2.9922    1.1845 O.2     1  LIG1       -0.4585
      6 H          -0.0942    1.0071    1.7705 H       1  LIG1        0.1030
      7 H           2.3924    0.7480    0.6064 H       1  LIG1        0.0662
      8 N           4.1167    3.5836   -1.2445 N.1     1  LIG1       -0.1907
      9 C           3.1946    3.3028   -0.5903 C.1     1  LIG1        0.1031
     10 C           0.6889    5.1362    0.3297 C.ar    1  LIG1        0.1784
     11 C           1.4676    6.2690    0.2254 C.ar    1  LIG1        0.0408
     12 C           0.5333    7.3374    0.0504 C.ar    1  LIG1        0.1692
     13 C          -0.7435    6.8121    0.0780 C.ar    1  LIG1        0.1775
     14 O          -0.6428    5.4600    0.2507 O.2     1  LIG1       -0.4476
     15 C           2.9497    6.4272    0.3634 C.3     1  LIG1       -0.0325
     16 H           3.1769    7.4424    0.7000 H       1  LIG1        0.0280
     17 H           3.4793    6.2496   -0.5783 H       1  LIG1        0.0280
     18 H           3.3571    5.7228    1.0937 H       1  LIG1        0.0280
     19 O           0.8575    8.6622   -0.0521 O.3     1  LIG1       -0.4910
     20 C           1.3447    9.0536   -1.3434 C.3     1  LIG1        0.0790
     21 H           1.5823   10.1163   -1.2723 H       1  LIG1        0.0660
     22 H           2.2484    8.4970   -1.6156 H       1  LIG1        0.0660
     23 H           0.5805    8.8973   -2.1136 H       1  LIG1        0.0660
     24 C          -2.2741    8.7723   -0.0693 C.ar    1  LIG1       -0.0504
     25 C          -3.5548    9.3018   -0.1752 C.ar    1  LIG1       -0.0534
     26 C          -2.0780    7.3788   -0.0262 C.ar    1  LIG1        0.0210
     27 C          -4.6887    8.4743   -0.2395 C.ar    1  LIG1       -0.0176
     28 H          -3.6764   10.3789   -0.2286 H       1  LIG1        0.0624
     29 C          -3.2079    6.5428   -0.0877 C.ar    1  LIG1       -0.0504
     30 C          -4.4831    7.0845   -0.1945 C.ar    1  LIG1       -0.0534
     31 H          -3.0775    5.4671   -0.0473 H       1  LIG1        0.0625
     32 H          -1.4163    9.4322   -0.0122 H       1  LIG1        0.0625
     33 H          -5.3426    6.4215   -0.2296 H       1  LIG1        0.0624
     34 C          -6.5999   10.0114    0.4646 C.ar    1  LIG1       -0.0427
     35 C          -7.9068   10.4611    0.2331 C.ar    1  LIG1       -0.0583
     36 C          -6.0638    9.0256   -0.3973 C.ar    1  LIG1       -0.0150
     37 C          -8.6824    9.9680   -0.8144 C.ar    1  LIG1       -0.0615
     38 H          -8.3262   11.2090    0.9016 H       1  LIG1        0.0620
     39 C          -6.8620    8.5258   -1.4410 C.ar    1  LIG1       -0.0538
     40 C          -8.1569    8.9894   -1.6566 C.ar    1  LIG1       -0.0612
     41 H          -6.4419    7.7737   -2.1025 H       1  LIG1        0.0624
     42 H          -9.6915   10.3405   -0.9649 H       1  LIG1        0.0618
     43 C          -5.8343   10.5728    1.6432 C.3     1  LIG1       -0.0391
     44 H          -6.5260   10.9464    2.4035 H       1  LIG1        0.0278
     45 H          -5.1922   11.4131    1.3533 H       1  LIG1        0.0278
     46 H          -5.1890    9.8224    2.1067 H       1  LIG1        0.0278
     47 H          -8.7474    8.5911   -2.4764 H       1  LIG1        0.0618
@<TRIPOS>BOND
     1    47    40    1
     2    23    20    1
     3    41    39    1
     4    40    39   ar
     5    40    37   ar
     6    22    20    1
     7    39    36   ar
     8    20    21    1
     9    20    19    1
    10     8     9    3
    11    42    37    1
    12    37    35   ar
    13     9     3    1
    14    17    15    1
    15    36    27    1
    16    36    34   ar
    17    27    30   ar
    18    27    25   ar
    19    33    30    1
    20    28    25    1
    21    30    29   ar
    22    25    24   ar
    23    29    31    1
    24    29    26   ar
    25    24    26   ar
    26    24    32    1
    27    19    12    1
    28    26    13    1
    29    12    13   ar
    30    12    11   ar
    31    13    14   ar
    32     3     4   ar
    33     3     2   ar
    34    11    10   ar
    35    11    15    1
    36    35    34   ar
    37    35    38    1
    38    14    10   ar
    39    10     4    1
    40    15    16    1
    41    15    18    1
    42    34    43    1
    43     4     5   ar
    44     7     2    1
    45     2     1   ar
    46     5     1   ar
    47     1     6    1
    48    45    43    1
    49    43    46    1
    50    43    44    1
