@<TRIPOS>MOLECULE
mol_data/opt/b3lyp/geoms/mol2/12ad6el-13ll12ai-.out
 51 54 0 0 0
SMALL
GASTEIGER

@<TRIPOS>ATOM
      1 C          -0.0203    1.3062    0.0942 C.ar    1  LIG1        0.0939
      2 C           1.2846    1.2606   -0.2701 C.ar    1  LIG1       -0.0058
      3 C           1.7055    2.6304   -0.3918 C.ar    1  LIG1        0.0974
      4 C           0.6019    3.4196   -0.0845 C.ar    1  LIG1        0.1548
      5 O          -0.4395    2.5994    0.2114 O.2     1  LIG1       -0.4615
      6 H          -0.7626    0.5525    0.3022 H       1  LIG1        0.1030
      7 H           1.8907    0.3843   -0.4429 H       1  LIG1        0.0662
      8 N           4.0657    3.4217   -1.0811 N.1     1  LIG1       -0.1907
      9 C           2.9977    3.0683   -0.7768 C.1     1  LIG1        0.1030
     10 C          -0.8493    5.5039   -0.1380 C.ar    1  LIG1        0.1248
     11 C           0.4076    4.8592   -0.0225 C.ar    1  LIG1        0.0558
     12 C           1.5309    5.6897    0.1562 C.ar    1  LIG1       -0.0044
     13 C           1.4091    7.0703    0.1883 C.ar    1  LIG1        0.1483
     14 C           0.1131    7.6425    0.0296 C.ar    1  LIG1        0.1337
     15 N          -0.9563    6.8412   -0.1053 N.ar    1  LIG1       -0.2324
     16 H           2.5032    5.2377    0.2902 H       1  LIG1        0.0663
     17 C          -2.0880    4.8091   -0.3360 C.1     1  LIG1       -0.0491
     18 C          -3.1623    4.2848   -0.5176 C.1     1  LIG1       -0.1124
     19 H          -4.1033    3.8111   -0.6752 H       1  LIG1        0.1232
     20 O           2.4455    7.9115    0.3983 O.3     1  LIG1       -0.4929
     21 C           3.7617    7.3701    0.4677 C.3     1  LIG1        0.0789
     22 H           4.4288    8.2282    0.5489 H       1  LIG1        0.0660
     23 H           3.8849    6.7286    1.3489 H       1  LIG1        0.0660
     24 H           4.0087    6.7973   -0.4332 H       1  LIG1        0.0660
     25 C          -0.2032    9.0641    0.0344 C.ar    1  LIG1        0.1151
     26 C           0.4877   10.2902   -0.0446 C.ar    1  LIG1        0.1892
     27 C          -0.4761   11.3266   -0.0259 C.ar    1  LIG1        0.1906
     28 C          -1.7414   10.7391    0.0556 C.ar    1  LIG1        0.1285
     29 N          -1.5450    9.3895    0.0904 N.ar    1  LIG1       -0.3446
     30 H          -2.2569    8.6720    0.0961 H       1  LIG1        0.1663
     31 O           1.8271   10.5083   -0.1974 O.3     1  LIG1       -0.4895
     32 C           2.4690   11.0169    0.9767 C.3     1  LIG1        0.0791
     33 H           3.5045   11.2235    0.6966 H       1  LIG1        0.0660
     34 H           1.9921   11.9415    1.3202 H       1  LIG1        0.0660
     35 H           2.4486   10.2705    1.7787 H       1  LIG1        0.0660
     36 O          -0.2351   12.6751   -0.0508 O.3     1  LIG1       -0.4894
     37 C           0.3319   13.1441   -1.2832 C.3     1  LIG1        0.0791
     38 H           0.4982   14.2159   -1.1562 H       1  LIG1        0.0660
     39 H           1.2815   12.6435   -1.4944 H       1  LIG1        0.0660
     40 H          -0.3599   12.9774   -2.1176 H       1  LIG1        0.0660
     41 C          -3.0435   11.3425    0.1110 C.ar    1  LIG1        0.1548
     42 C          -3.4797   12.6408    0.1652 C.ar    1  LIG1       -0.0114
     43 C          -4.9136   12.5966    0.1989 C.ar    1  LIG1       -0.0121
     44 C          -5.2403   11.2727    0.1641 C.ar    1  LIG1        0.0955
     45 O          -4.1187   10.4907    0.1101 O.2     1  LIG1       -0.4611
     46 H          -6.1811   10.7445    0.1709 H       1  LIG1        0.1032
     47 H          -2.8435   13.5128    0.1895 H       1  LIG1        0.0658
     48 C          -5.8562   13.7606    0.2625 C.3     1  LIG1       -0.0367
     49 H          -6.8974   13.4268    0.2833 H       1  LIG1        0.0278
     50 H          -5.7342   14.4212   -0.6033 H       1  LIG1        0.0278
     51 H          -5.6816   14.3667    1.1585 H       1  LIG1        0.0278
@<TRIPOS>BOND
     1    40    37    1
     2    39    37    1
     3    37    38    1
     4    37    36    1
     5     8     9    3
     6     9     3    1
     7    19    18    1
     8    50    48    1
     9    18    17    3
    10     7     2    1
    11    24    21    1
    12     3     2   ar
    13     3     4   ar
    14    17    10    1
    15     2     1   ar
    16    31    26    1
    17    31    32    1
    18    10    15   ar
    19    10    11   ar
    20    15    14   ar
    21     4    11    1
    22     4     5   ar
    23    36    27    1
    24    26    27   ar
    25    26    25   ar
    26    27    28   ar
    27    11    12   ar
    28    14    25    1
    29    14    13   ar
    30    25    29   ar
    31    28    29   ar
    32    28    41    1
    33    29    30    1
    34     1     5   ar
    35     1     6    1
    36    45    41   ar
    37    45    44   ar
    38    41    42   ar
    39    12    13   ar
    40    12    16    1
    41    44    46    1
    42    44    43   ar
    43    42    47    1
    44    42    43   ar
    45    13    20    1
    46    43    48    1
    47    48    49    1
    48    48    51    1
    49    20    21    1
    50    21    22    1
    51    21    23    1
    52    33    32    1
    53    32    34    1
    54    32    35    1
