@<TRIPOS>MOLECULE
mol_data/opt/b3lyp/geoms/mol2/12ad4if-4if-12ee-.out
 49 52 0 0 0
SMALL
GASTEIGER

@<TRIPOS>ATOM
      1 C           1.0402    1.8492    1.5205 C.ar    1  LIG1        0.0939
      2 C           1.3816    1.4819    0.2623 C.ar    1  LIG1       -0.0058
      3 C           1.3631    2.6924   -0.5193 C.ar    1  LIG1        0.0973
      4 C           1.0176    3.7227    0.3380 C.ar    1  LIG1        0.1524
      5 O           0.8146    3.1954    1.5813 O.2     1  LIG1       -0.4616
      6 H           0.9238    1.3106    2.4474 H       1  LIG1        0.1030
      7 H           1.6113    0.4898   -0.0959 H       1  LIG1        0.0662
      8 N           1.7123    2.8019   -3.0763 N.1     1  LIG1       -0.1907
      9 C           1.5582    2.7675   -1.9228 C.1     1  LIG1        0.1030
     10 C           1.5979    6.0289   -0.5393 C.ar    1  LIG1       -0.0390
     11 C           1.2291    7.3788   -0.5918 C.ar    1  LIG1       -0.0469
     12 C           0.7617    5.1587    0.1934 C.ar    1  LIG1        0.0249
     13 C           0.0999    7.9089    0.0389 C.ar    1  LIG1        0.0242
     14 H           1.8585    8.0593   -1.1577 H       1  LIG1        0.0628
     15 C          -0.3702    5.6721    0.8521 C.ar    1  LIG1       -0.0086
     16 C          -0.7078    7.0192    0.7763 C.ar    1  LIG1        0.1252
     17 H          -0.9977    4.9944    1.4249 H       1  LIG1        0.0661
     18 C           2.8720    5.5910   -1.2224 C.3     1  LIG1       -0.0390
     19 H           3.5582    6.4368   -1.3171 H       1  LIG1        0.0278
     20 H           2.6877    5.2003   -2.2282 H       1  LIG1        0.0278
     21 H           3.3845    4.8044   -0.6613 H       1  LIG1        0.0278
     22 O          -1.8131    7.5226    1.4046 O.3     1  LIG1       -0.5061
     23 H          -2.2426    6.8132    1.9007 H       1  LIG1        0.2922
     24 C           0.6444   10.3699    0.3627 C.ar    1  LIG1       -0.0417
     25 C           0.2632   11.6990    0.1714 C.ar    1  LIG1       -0.0440
     26 C          -0.2349    9.3575   -0.0790 C.ar    1  LIG1       -0.0080
     27 C          -0.9474   12.0798   -0.4289 C.ar    1  LIG1        0.0601
     28 H           0.9328   12.4839    0.5054 H       1  LIG1        0.0629
     29 C          -1.4525    9.7200   -0.6668 C.ar    1  LIG1       -0.0114
     30 C          -1.8215   11.0519   -0.8447 C.ar    1  LIG1        0.1281
     31 H          -2.1371    8.9381   -0.9862 H       1  LIG1        0.0660
     32 C           1.9619   10.0698    1.0438 C.3     1  LIG1       -0.0391
     33 H           2.2982   10.9362    1.6195 H       1  LIG1        0.0278
     34 H           2.7561    9.8292    0.3272 H       1  LIG1        0.0278
     35 H           1.8805    9.2195    1.7264 H       1  LIG1        0.0278
     36 O          -3.0221   11.3901   -1.3969 O.3     1  LIG1       -0.5060
     37 H          -3.5170   10.5800   -1.5773 H       1  LIG1        0.2922
     38 C          -1.2678   13.4965   -0.5739 C.ar    1  LIG1        0.1548
     39 C          -0.9434   14.6119    0.1784 C.ar    1  LIG1        0.0858
     40 C          -1.5329   15.7507   -0.5088 C.ar    1  LIG1        0.0783
     41 C          -2.1590   15.2306   -1.6068 C.ar    1  LIG1        0.1092
     42 O          -2.0068   13.8865   -1.6567 O.2     1  LIG1       -0.4603
     43 H          -2.7289   15.6815   -2.4034 H       1  LIG1        0.1042
     44 C          -0.2183   14.6725    1.3926 C.1     1  LIG1       -0.0646
     45 C           0.3985   14.7564    2.4308 C.1     1  LIG1       -0.1138
     46 H           0.9304   14.8303    3.3506 H       1  LIG1        0.1232
     47 C          -1.4764   17.1116   -0.1179 C.1     1  LIG1       -0.0653
     48 C          -1.4262   18.2723    0.2183 C.1     1  LIG1       -0.1138
     49 H          -1.3809   19.2939    0.5164 H       1  LIG1        0.1232
@<TRIPOS>BOND
     1     8     9    3
     2    43    41    1
     3    20    18    1
     4     9     3    1
     5    42    41   ar
     6    42    38   ar
     7    41    40   ar
     8    37    36    1
     9    36    30    1
    10    19    18    1
    11    18    21    1
    12    18    10    1
    13    14    11    1
    14    31    29    1
    15    30    29   ar
    16    30    27   ar
    17    29    26   ar
    18    11    10   ar
    19    11    13   ar
    20    38    27    1
    21    38    39   ar
    22    10    12   ar
    23     3     2   ar
    24     3     4   ar
    25    40    47    1
    26    40    39   ar
    27    27    25   ar
    28    47    48    3
    29     7     2    1
    30    26    13    1
    31    26    24   ar
    32    13    16   ar
    33    25    24   ar
    34    25    28    1
    35    39    44    1
    36    12     4    1
    37    12    15   ar
    38    48    49    1
    39     2     1   ar
    40    34    32    1
    41     4     5   ar
    42    24    32    1
    43    16    15   ar
    44    16    22    1
    45    15    17    1
    46    32    33    1
    47    32    35    1
    48    44    45    3
    49    22    23    1
    50     1     5   ar
    51     1     6    1
    52    45    46    1
