@<TRIPOS>MOLECULE
mol_data/opt/b3lyp/geoms/mol2/12ad6dh4ei-13id-6ff-13dd12el12df-.out
 92 99 0 0 0
SMALL
GASTEIGER

@<TRIPOS>ATOM
      1 C           2.0652    2.1403    2.3817 C.ar    1  LIG1        0.0939
      2 C           1.3551    1.4786    1.4332 C.ar    1  LIG1       -0.0058
      3 C           0.6421    2.4893    0.7015 C.ar    1  LIG1        0.0974
      4 C           0.9797    3.7090    1.2721 C.ar    1  LIG1        0.1549
      5 O           1.8477    3.4814    2.2896 O.2     1  LIG1       -0.4615
      6 H           2.7407    1.8282    3.1618 H       1  LIG1        0.1030
      7 H           1.3206    0.4142    1.2586 H       1  LIG1        0.0662
      8 N          -0.9574    2.0707   -1.2835 N.1     1  LIG1       -0.1907
      9 C          -0.2426    2.2610   -0.3840 C.1     1  LIG1        0.1030
     10 C           0.7138    6.1398    1.9383 C.ar    1  LIG1        0.1515
     11 C           0.5929    5.0865    0.9947 C.ar    1  LIG1        0.0561
     12 C           0.0630    5.4239   -0.2523 C.ar    1  LIG1       -0.0255
     13 C          -0.3258    6.7355   -0.5574 C.ar    1  LIG1        0.0517
     14 C          -0.1044    7.7282    0.4435 C.ar    1  LIG1        0.0942
     15 N           0.3739    7.4007    1.6435 N.ar    1  LIG1       -0.2337
     16 H          -0.0645    4.6571   -1.0081 H       1  LIG1        0.0644
     17 N           1.4994    5.8367    4.4005 N.1     1  LIG1       -0.1893
     18 C           1.1626    5.9480    3.2931 C.1     1  LIG1        0.1198
     19 N          -0.9647    7.0023   -1.7456 N.pl3   1  LIG1       -0.3563
     20 H          -0.9424    6.2641   -2.4350 H       1  LIG1        0.1424
     21 H          -0.8457    7.9221   -2.1433 H       1  LIG1        0.1424
     22 C          -0.0487    9.9990   -0.7631 C.ar    1  LIG1        0.0345
     23 C          -0.4678   11.3403   -0.7882 C.ar    1  LIG1       -0.0363
     24 C          -0.4852    9.1636    0.2922 C.ar    1  LIG1        0.0178
     25 C          -1.2826   11.8882    0.2076 C.ar    1  LIG1        0.0027
     26 H          -0.1439   11.9647   -1.6131 H       1  LIG1        0.0637
     27 C          -1.2770    9.7329    1.2967 C.ar    1  LIG1       -0.0478
     28 C          -1.6873   11.0666    1.2893 C.ar    1  LIG1       -0.0406
     29 H          -1.5628    9.0995    2.1300 H       1  LIG1        0.0627
     30 C           0.8377    9.5478   -1.7911 C.1     1  LIG1       -0.0690
     31 C           1.5799    9.1949   -2.6805 C.1     1  LIG1       -0.1139
     32 H           2.2540    8.8850   -3.4459 H       1  LIG1        0.1232
     33 C          -2.5161   11.5861    2.4418 C.3     1  LIG1       -0.0391
     34 H          -2.3740   10.9596    3.3255 H       1  LIG1        0.0278
     35 H          -3.5913   11.5734    2.2188 H       1  LIG1        0.0278
     36 H          -2.2464   12.6124    2.7049 H       1  LIG1        0.0278
     37 C          -1.6639   13.3084    0.0992 C.ar    1  LIG1        0.0514
     38 C          -0.8912   14.4339   -0.1549 C.ar    1  LIG1       -0.0072
     39 C          -1.7871   15.5514   -0.1672 C.ar    1  LIG1        0.0806
     40 C          -3.0868   15.0880    0.0741 C.ar    1  LIG1        0.0700
     41 N          -2.9778   13.7261    0.2192 N.ar    1  LIG1       -0.3528
     42 H          -3.7525   13.1299    0.4705 H       1  LIG1        0.1660
     43 C           0.5916   14.5120   -0.3584 C.3     1  LIG1       -0.0365
     44 H           1.0060   15.3862    0.1524 H       1  LIG1        0.0279
     45 H           0.8516   14.6106   -1.4192 H       1  LIG1        0.0279
     46 H           1.0918   13.6206    0.0265 H       1  LIG1        0.0279
     47 N          -1.0583   17.9918   -0.6007 N.1     1  LIG1       -0.1908
     48 C          -1.4022   16.8958   -0.4065 C.1     1  LIG1        0.1016
     49 C          -5.6027   15.1833   -0.1229 C.ar    1  LIG1        0.2225
     50 C          -4.3599   15.7927    0.2048 C.ar    1  LIG1        0.0644
     51 C          -4.4361   17.0986    0.6800 C.ar    1  LIG1       -0.0037
     52 C          -5.6653   17.7507    0.8674 C.ar    1  LIG1        0.1451
     53 C          -6.8424   17.0240    0.5789 C.ar    1  LIG1        0.1334
     54 N          -6.7557   15.7680    0.0706 N.ar    1  LIG1       -0.2072
     55 H          -3.5416   17.6513    0.9424 H       1  LIG1        0.0663
     56 O          -5.6699   13.9105   -0.6400 O.3     1  LIG1       -0.4919
     57 H          -4.9219   13.7834   -1.2421 H       1  LIG1        0.2937
     58 O          -5.5572   19.0177    1.3138 O.3     1  LIG1       -0.5045
     59 H          -6.3961   19.4487    1.5394 H       1  LIG1        0.2922
     60 C          -8.2408   17.4557    0.7199 C.ar    1  LIG1        0.0880
     61 C          -8.9407   18.5568    1.2387 C.ar    1  LIG1        0.0966
     62 C         -10.3469   18.3168    1.0522 C.ar    1  LIG1        0.0980
     63 C         -10.4676   17.0640    0.4409 C.ar    1  LIG1        0.1028
     64 N          -9.1949   16.5945    0.2550 N.ar    1  LIG1       -0.3484
     65 H          -8.9288   15.7062   -0.1558 H       1  LIG1        0.1661
     66 N          -7.9653   20.6657    2.3601 N.1     1  LIG1       -0.1908
     67 C          -8.4131   19.7152    1.8530 C.1     1  LIG1        0.1027
     68 N         -12.1626   20.0658    1.5988 N.1     1  LIG1       -0.1908
     69 C         -11.3641   19.2541    1.3570 C.1     1  LIG1        0.1027
     70 C         -11.5878   16.2778   -0.0003 C.ar    1  LIG1        0.1722
     71 C         -12.9263   16.1869    0.3521 C.ar    1  LIG1        0.1142
     72 C         -13.4680   15.1329   -0.4721 C.ar    1  LIG1        0.1849
     73 C         -12.4360   14.6602   -1.2546 C.ar    1  LIG1        0.2146
     74 O         -11.2861   15.3489   -0.9550 O.2     1  LIG1       -0.4451
     75 C         -13.5928   16.8638    1.3991 C.1     1  LIG1       -0.0621
     76 C         -14.1642   17.4244    2.3059 C.1     1  LIG1       -0.1137
     77 H         -14.6431   17.9453    3.1031 H       1  LIG1        0.1232
     78 O         -14.6937   14.5831   -0.4325 O.3     1  LIG1       -0.4901
     79 C         -15.8228   15.4630   -0.6108 C.3     1  LIG1        0.0790
     80 H         -16.7023   14.8284   -0.5130 H       1  LIG1        0.0660
     81 H         -15.8328   16.2452    0.1514 H       1  LIG1        0.0660
     82 H         -15.8046   15.9005   -1.6129 H       1  LIG1        0.0660
     83 C         -12.3463   13.6263   -2.2428 C.ar    1  LIG1        0.1944
     84 C         -13.2827   12.9957   -3.0497 C.ar    1  LIG1        0.1419
     85 C         -12.5441   12.0345   -3.8273 C.ar    1  LIG1        0.1729
     86 C         -11.2372   12.1492   -3.4579 C.ar    1  LIG1        0.1354
     87 O         -11.1140   13.1184   -2.4904 O.2     1  LIG1       -0.4546
     88 H         -10.3281   11.6570   -3.7614 H       1  LIG1        0.1068
     89 N         -15.7977   13.4952   -3.3309 N.1     1  LIG1       -0.1906
     90 C         -14.6651   13.2715   -3.1810 C.1     1  LIG1        0.1068
     91 O         -13.1447   11.2305   -4.7332 O.3     1  LIG1       -0.5028
     92 H         -12.4847   10.6733   -5.1660 H       1  LIG1        0.2923
@<TRIPOS>BOND
     1    92    91    1
     2    91    85    1
     3    85    86   ar
     4    85    84   ar
     5    88    86    1
     6    86    87   ar
     7    32    31    1
     8    89    90    3
     9    90    84    1
    10    84    83   ar
    11    31    30    3
    12    87    83   ar
    13    20    19    1
    14    83    73    1
    15    21    19    1
    16    30    22    1
    17    19    13    1
    18    26    23    1
    19    82    79    1
    20    45    43    1
    21     8     9    3
    22    73    74   ar
    23    73    72   ar
    24    57    56    1
    25    16    12    1
    26    74    70   ar
    27    23    22   ar
    28    23    25   ar
    29    22    24   ar
    30    56    49    1
    31    79    80    1
    32    79    78    1
    33    79    81    1
    34    47    48    3
    35    13    12   ar
    36    13    14   ar
    37    72    78    1
    38    72    71   ar
    39    48    39    1
    40     9     3    1
    41    43    38    1
    42    43    46    1
    43    43    44    1
    44    12    11   ar
    45    39    38   ar
    46    39    40   ar
    47    65    64    1
    48    38    37   ar
    49    49    54   ar
    50    49    50   ar
    51    70    71   ar
    52    70    63    1
    53    54    53   ar
    54    40    50    1
    55    40    41   ar
    56    37    25    1
    57    37    41   ar
    58    50    51   ar
    59    25    28   ar
    60    41    42    1
    61    64    63   ar
    62    64    60   ar
    63    24    14    1
    64    24    27   ar
    65    71    75    1
    66    63    62   ar
    67    14    15   ar
    68    53    60    1
    69    53    52   ar
    70    51    52   ar
    71    51    55    1
    72     3     4   ar
    73     3     2   ar
    74    60    61   ar
    75    52    58    1
    76    11     4    1
    77    11    10   ar
    78    62    61   ar
    79    62    69    1
    80    61    67    1
    81     7     2    1
    82     4     5   ar
    83    28    27   ar
    84    28    33    1
    85    27    29    1
    86    58    59    1
    87    69    68    3
    88    75    76    3
    89     2     1   ar
    90    15    10   ar
    91    67    66    3
    92    10    18    1
    93    35    33    1
    94     5     1   ar
    95    76    77    1
    96     1     6    1
    97    33    36    1
    98    33    34    1
    99    18    17    3
