@<TRIPOS>MOLECULE
mol_data/opt/b3lyp/geoms/mol2/12ad6ia-13lf6ie-12ae12fi-13ea4ih-.out
 94 101 0 0 0
SMALL
GASTEIGER

@<TRIPOS>ATOM
      1 C           0.6066    1.3089   -1.3674 C.ar    1  LIG1        0.0939
      2 C           1.7897    1.2713   -0.7091 C.ar    1  LIG1       -0.0058
      3 C           2.0076    2.6041   -0.2117 C.ar    1  LIG1        0.0974
      4 C           0.9222    3.3709   -0.6163 C.ar    1  LIG1        0.1538
      5 O           0.0740    2.5675   -1.3200 O.2     1  LIG1       -0.4615
      6 H           0.0251    0.5729   -1.8989 H       1  LIG1        0.1030
      7 H           2.4402    0.4210   -0.5717 H       1  LIG1        0.0662
      8 N           4.0361    3.3376    1.2091 N.1     1  LIG1       -0.1907
      9 C           3.1153    3.0184    0.5711 C.1     1  LIG1        0.1030
     10 C          -0.7500    5.2732   -0.4656 C.ar    1  LIG1        0.0496
     11 C           0.5815    4.7764   -0.4481 C.ar    1  LIG1        0.0396
     12 C           1.6155    5.7134   -0.2465 C.ar    1  LIG1       -0.0473
     13 C           1.3317    7.0543   -0.0746 C.ar    1  LIG1       -0.0334
     14 C          -0.0143    7.4593   -0.1118 C.ar    1  LIG1        0.0911
     15 N          -1.0158    6.5711   -0.3065 N.ar    1  LIG1       -0.2496
     16 H           2.6480    5.3828   -0.2361 H       1  LIG1        0.0626
     17 C          -1.9673    4.3954   -0.6390 C.3     1  LIG1       -0.0216
     18 H          -1.9353    3.5189    0.0140 H       1  LIG1        0.0293
     19 H          -2.0507    4.0221   -1.6648 H       1  LIG1        0.0293
     20 H          -2.8500    4.9906   -0.3989 H       1  LIG1        0.0293
     21 H           2.1152    7.7869    0.0705 H       1  LIG1        0.0640
     22 C          -0.4317    8.8349    0.0525 C.ar    1  LIG1        0.1114
     23 C           0.2693   10.0219    0.3082 C.ar    1  LIG1        0.1888
     24 C          -0.6814   11.0677    0.3476 C.ar    1  LIG1        0.1851
     25 C          -1.9518   10.5159    0.1210 C.ar    1  LIG1        0.0945
     26 N          -1.7610    9.1647   -0.0440 N.ar    1  LIG1       -0.3470
     27 H          -2.4544    8.4616   -0.2538 H       1  LIG1        0.1662
     28 O           1.6249   10.0940    0.4319 O.3     1  LIG1       -0.4895
     29 C           2.1176   10.8662    1.5350 C.3     1  LIG1        0.0791
     30 H           3.2045   10.7749    1.5024 H       1  LIG1        0.0660
     31 H           1.8285   11.9159    1.4448 H       1  LIG1        0.0660
     32 H           1.7459   10.4658    2.4861 H       1  LIG1        0.0660
     33 O          -0.3668   12.3845    0.5700 O.3     1  LIG1       -0.5019
     34 H          -1.1360   12.8252    0.9575 H       1  LIG1        0.2924
     35 C          -4.4809   10.6444    0.4368 C.ar    1  LIG1        0.0483
     36 C          -3.2382   11.2008    0.0198 C.ar    1  LIG1        0.0242
     37 C          -3.2827   12.4962   -0.5157 C.ar    1  LIG1       -0.0332
     38 C          -4.4833   13.2065   -0.6365 C.ar    1  LIG1        0.0543
     39 C          -5.6717   12.5493   -0.2147 C.ar    1  LIG1        0.1216
     40 N          -5.6287   11.3062    0.3002 N.ar    1  LIG1       -0.2469
     41 H          -2.3732   12.9590   -0.8836 H       1  LIG1        0.0637
     42 C          -4.5989    9.2833    1.0779 C.3     1  LIG1       -0.0217
     43 H          -3.7545    9.0684    1.7383 H       1  LIG1        0.0293
     44 H          -4.6563    8.4810    0.3294 H       1  LIG1        0.0293
     45 H          -5.5260    9.2490    1.6521 H       1  LIG1        0.0293
     46 C          -4.4473   14.5141   -1.2048 C.1     1  LIG1       -0.0674
     47 C          -4.3516   15.6186   -1.6917 C.1     1  LIG1       -0.1138
     48 H          -4.2840   16.5884   -2.1284 H       1  LIG1        0.1232
     49 C          -6.9963   13.1456   -0.3018 C.ar    1  LIG1        0.1564
     50 C          -7.4909   14.4068   -0.5227 C.ar    1  LIG1        0.0019
     51 C          -8.9188   14.3248   -0.4663 C.ar    1  LIG1        0.0742
     52 C          -9.2061   12.9861   -0.2048 C.ar    1  LIG1        0.1896
     53 O          -8.0476   12.2837   -0.1029 O.2     1  LIG1       -0.4488
     54 H          -6.9184   15.3002   -0.7071 H       1  LIG1        0.0668
     55 C          -9.8173   15.3965   -0.6882 C.1     1  LIG1       -0.0657
     56 C         -10.5446   16.3410   -0.8977 C.1     1  LIG1       -0.1138
     57 H         -11.2016   17.1600   -1.0746 H       1  LIG1        0.1232
     58 C         -10.3938   12.2045   -0.0581 C.ar    1  LIG1        0.2132
     59 C         -11.7261   12.4385    0.2171 C.ar    1  LIG1        0.1694
     60 C         -12.4004   11.1787    0.2813 C.ar    1  LIG1        0.0390
     61 C         -11.4305   10.2294    0.0234 C.ar    1  LIG1        0.1596
     62 O         -10.2233   10.8440   -0.1760 O.2     1  LIG1       -0.4461
     63 O         -12.2700   13.6578    0.4429 O.3     1  LIG1       -0.5029
     64 H         -13.2213   13.5549    0.5777 H       1  LIG1        0.2923
     65 C         -13.8478   11.0229    0.6348 C.3     1  LIG1       -0.0325
     66 H         -14.0966    9.9881    0.8645 H       1  LIG1        0.0280
     67 H         -14.5058   11.3365   -0.1857 H       1  LIG1        0.0280
     68 H         -14.0991   11.6300    1.5148 H       1  LIG1        0.0280
     69 C         -11.3322    8.7931   -0.0603 C.ar    1  LIG1        0.0985
     70 C         -12.2383    7.7266   -0.2097 C.ar    1  LIG1        0.0535
     71 C         -11.4648    6.5279   -0.2385 C.ar    1  LIG1       -0.0203
     72 C         -10.1235    6.8629   -0.1297 C.ar    1  LIG1        0.0485
     73 N         -10.0758    8.2361   -0.0263 N.ar    1  LIG1       -0.3508
     74 H          -9.2408    8.7823    0.1267 H       1  LIG1        0.1660
     75 C         -13.6447    7.7714   -0.3799 C.1     1  LIG1       -0.0674
     76 C         -14.8457    7.7431   -0.5401 C.1     1  LIG1       -0.1138
     77 H         -15.8997    7.7285   -0.6920 H       1  LIG1        0.1232
     78 H         -11.8706    5.5394   -0.3823 H       1  LIG1        0.0651
     79 C          -8.7875    4.7676    0.3579 C.ar    1  LIG1       -0.0412
     80 C          -7.5473    4.1243    0.2711 C.ar    1  LIG1       -0.0565
     81 C          -8.8844    6.0740   -0.1792 C.ar    1  LIG1        0.0030
     82 C          -6.4308    4.7130   -0.3127 C.ar    1  LIG1       -0.0408
     83 H          -7.4517    3.1243    0.6868 H       1  LIG1        0.0621
     84 C          -7.7543    6.6646   -0.7746 C.ar    1  LIG1       -0.0317
     85 C          -6.5238    6.0046   -0.8493 C.ar    1  LIG1        0.0252
     86 H          -7.8440    7.6509   -1.2229 H       1  LIG1        0.0643
     87 H          -5.4874    4.1749   -0.3506 H       1  LIG1        0.0636
     88 C          -9.9428    4.0591    1.0245 C.3     1  LIG1       -0.0391
     89 H          -9.5778    3.2432    1.6547 H       1  LIG1        0.0278
     90 H         -10.6321    3.6168    0.2940 H       1  LIG1        0.0278
     91 H         -10.5320    4.7369    1.6487 H       1  LIG1        0.0278
     92 N          -5.3988    6.6411   -1.4010 N.pl3   1  LIG1       -0.3579
     93 H          -4.7091    6.0049   -1.7804 H       1  LIG1        0.1423
     94 H          -5.6234    7.3656   -2.0716 H       1  LIG1        0.1423
@<TRIPOS>BOND
     1    48    47    1
     2    94    92    1
     3     6     1    1
     4    93    92    1
     5    47    46    3
     6    19    17    1
     7    92    85    1
     8     1     5   ar
     9     1     2   ar
    10     5     4   ar
    11    86    84    1
    12    46    38    1
    13    57    56    1
    14    56    55    3
    15    41    37    1
    16    85    84   ar
    17    85    82   ar
    18    84    81   ar
    19     2     7    1
    20     2     3   ar
    21    54    50    1
    22    77    76    1
    23    55    51    1
    24    17    10    1
    25    17    20    1
    26    17    18    1
    27    38    37   ar
    28    38    39   ar
    29     4    11    1
    30     4     3   ar
    31    76    75    3
    32    50    51   ar
    33    50    49   ar
    34    37    36   ar
    35    51    52   ar
    36    10    11   ar
    37    10    15   ar
    38    11    12   ar
    39    78    71    1
    40    75    70    1
    41    87    82    1
    42    82    80   ar
    43    15    14   ar
    44    49    39    1
    45    49    53   ar
    46    27    26    1
    47    12    16    1
    48    12    13   ar
    49    71    70   ar
    50    71    72   ar
    51    39    40   ar
    52     3     9    1
    53    70    69   ar
    54    52    53   ar
    55    52    58    1
    56    67    65    1
    57    81    72    1
    58    81    79   ar
    59    62    58   ar
    60    62    61   ar
    61    72    73   ar
    62    14    13   ar
    63    14    22    1
    64    13    21    1
    65    69    73   ar
    66    69    61    1
    67    58    59   ar
    68    26    22   ar
    69    26    25   ar
    70    73    74    1
    71    36    25    1
    72    36    35   ar
    73    61    60   ar
    74    22    23   ar
    75    25    24   ar
    76    59    60   ar
    77    59    63    1
    78    80    79   ar
    79    80    83    1
    80    60    65    1
    81    90    88    1
    82    40    35   ar
    83    23    24   ar
    84    23    28    1
    85    44    42    1
    86    24    33    1
    87    79    88    1
    88    28    29    1
    89    35    42    1
    90    63    64    1
    91    33    34    1
    92     9     8    3
    93    65    66    1
    94    65    68    1
    95    88    91    1
    96    88    89    1
    97    42    45    1
    98    42    43    1
    99    31    29    1
   100    30    29    1
   101    29    32    1
