@<TRIPOS>MOLECULE
mol_data/opt/b3lyp/geoms/mol2/12ad13fi13ih-6ei.out
 49 52 0 0 0
SMALL
GASTEIGER

@<TRIPOS>ATOM
      1 C           0.5114    1.8575   -0.8987 C.ar    1  LIG1        0.0939
      2 C           1.8452    1.8208   -0.6811 C.ar    1  LIG1       -0.0058
      3 C           2.2336    3.1482   -0.2683 C.ar    1  LIG1        0.0989
      4 C           1.0709    3.9097   -0.2575 C.ar    1  LIG1        0.1717
      5 O           0.0232    3.1166   -0.6453 O.2     1  LIG1       -0.4600
      6 H          -0.2154    1.1280   -1.2172 H       1  LIG1        0.1030
      7 H           2.5058    0.9747   -0.7959 H       1  LIG1        0.0662
      8 N           4.6918    3.7871    0.1876 N.1     1  LIG1       -0.1907
      9 C           3.5689    3.5401    0.0005 C.1     1  LIG1        0.1030
     10 C           0.7271    5.2671    0.0285 C.ar    1  LIG1        0.1261
     11 C           1.4331    6.3295    0.5935 C.ar    1  LIG1        0.1486
     12 C           0.5990    7.4763    0.6297 C.ar    1  LIG1        0.0184
     13 C          -0.6231    7.0922    0.0696 C.ar    1  LIG1        0.0702
     14 N          -0.5409    5.7580   -0.2537 N.ar    1  LIG1       -0.3474
     15 H          -1.2122    5.2662   -0.8225 H       1  LIG1        0.1662
     16 O           2.6891    6.2034    1.0898 O.3     1  LIG1       -0.5043
     17 H           3.0447    7.0764    1.2988 H       1  LIG1        0.2922
     18 C           0.9491    8.7853    1.2728 C.3     1  LIG1       -0.0342
     19 H           0.0461    9.3543    1.5072 H       1  LIG1        0.0279
     20 H           1.5803    9.4205    0.6381 H       1  LIG1        0.0279
     21 H           1.4871    8.6286    2.2165 H       1  LIG1        0.0279
     22 C          -1.8617    7.8163   -0.1339 C.ar    1  LIG1        0.0684
     23 C          -2.1239    9.0904   -0.6443 C.ar    1  LIG1       -0.0025
     24 C          -3.5370    9.2332   -0.6807 C.ar    1  LIG1        0.0539
     25 C          -4.1196    8.0494   -0.1963 C.ar    1  LIG1        0.0708
     26 N          -3.0644    7.2031    0.1025 N.ar    1  LIG1       -0.3513
     27 H          -3.1777    6.3035    0.5451 H       1  LIG1        0.1660
     28 C          -1.1303   10.0809   -1.1733 C.3     1  LIG1       -0.0359
     29 H          -0.9717   10.9297   -0.4960 H       1  LIG1        0.0279
     30 H          -1.4564   10.4961   -2.1363 H       1  LIG1        0.0279
     31 H          -0.1601    9.6075   -1.3422 H       1  LIG1        0.0279
     32 N          -4.2133   10.3794   -1.1349 N.pl3   1  LIG1       -0.3561
     33 H          -3.5973   11.0100   -1.6348 H       1  LIG1        0.1424
     34 H          -5.0154   10.1640   -1.7176 H       1  LIG1        0.1424
     35 C          -6.0079    6.3666    0.1478 C.ar    1  LIG1        0.1223
     36 C          -5.5152    7.6995    0.0155 C.ar    1  LIG1        0.0342
     37 C          -6.4819    8.7221    0.1279 C.ar    1  LIG1       -0.0456
     38 C          -7.8281    8.4354    0.3236 C.ar    1  LIG1       -0.0316
     39 C          -8.1827    7.0805    0.4220 C.ar    1  LIG1        0.0319
     40 N          -7.3098    6.0821    0.3471 N.ar    1  LIG1       -0.2458
     41 H          -6.1549    9.7564    0.0957 H       1  LIG1        0.0628
     42 H          -9.2224    6.7967    0.5800 H       1  LIG1        0.0832
     43 C          -5.1612    5.2068    0.0836 C.1     1  LIG1       -0.0491
     44 C          -4.4723    4.2103    0.0494 C.1     1  LIG1       -0.1124
     45 H          -3.8920    3.3171    0.0093 H       1  LIG1        0.1232
     46 C          -8.8672    9.5232    0.4241 C.3     1  LIG1       -0.0383
     47 H          -9.7108    9.2113    1.0467 H       1  LIG1        0.0278
     48 H          -9.2695    9.7781   -0.5642 H       1  LIG1        0.0278
     49 H          -8.4473   10.4380    0.8519 H       1  LIG1        0.0278
@<TRIPOS>BOND
     1    30    28    1
     2    34    32    1
     3    33    32    1
     4    31    28    1
     5     6     1    1
     6    28    23    1
     7    28    29    1
     8    32    24    1
     9     1     2   ar
    10     1     5   ar
    11    15    14    1
    12     7     2    1
    13     2     3   ar
    14    24    23   ar
    15    24    25   ar
    16     5     4   ar
    17    23    22   ar
    18    48    46    1
    19     3     4   ar
    20     3     9    1
    21     4    10    1
    22    14    10   ar
    23    14    13   ar
    24    25    36    1
    25    25    26   ar
    26    22    13    1
    27    22    26   ar
    28     9     8    3
    29    45    44    1
    30    36    37   ar
    31    36    35   ar
    32    10    11   ar
    33    44    43    3
    34    13    12   ar
    35    43    35    1
    36    41    37    1
    37    26    27    1
    38    37    38   ar
    39    35    40   ar
    40    38    39   ar
    41    38    46    1
    42    40    39   ar
    43    39    42    1
    44    46    49    1
    45    46    47    1
    46    11    12   ar
    47    11    16    1
    48    12    18    1
    49    20    18    1
    50    16    17    1
    51    18    19    1
    52    18    21    1
