@<TRIPOS>MOLECULE
mol_data/opt/b3lyp/geoms/mol2/12ad13ei-4da-13hh.out
 46 49 0 0 0
SMALL
GASTEIGER

@<TRIPOS>ATOM
      1 C           0.1241    1.8302   -0.8642 C.ar    1  LIG1        0.0939
      2 C           1.4606    1.7435   -1.0573 C.ar    1  LIG1       -0.0058
      3 C           1.9970    3.0562   -0.7949 C.ar    1  LIG1        0.0988
      4 C           0.9221    3.8562   -0.4358 C.ar    1  LIG1        0.1693
      5 O          -0.2207    3.1006   -0.4864 O.2     1  LIG1       -0.4601
      6 H          -0.6890    1.1266   -0.9434 H       1  LIG1        0.1030
      7 H           2.0264    0.8764   -1.3621 H       1  LIG1        0.0662
      8 N           4.4808    3.6289   -1.1962 N.1     1  LIG1       -0.1907
      9 C           3.3562    3.4108   -0.9887 C.1     1  LIG1        0.1030
     10 C           0.7186    5.2302   -0.0699 C.ar    1  LIG1        0.0996
     11 C           1.5582    6.2271    0.4524 C.ar    1  LIG1        0.0565
     12 C           0.7766    7.4174    0.6072 C.ar    1  LIG1       -0.0091
     13 C          -0.5157    7.1144    0.1863 C.ar    1  LIG1        0.0524
     14 N          -0.5317    5.7871   -0.1911 N.ar    1  LIG1       -0.3505
     15 H          -1.3114    5.3224   -0.6294 H       1  LIG1        0.1660
     16 C           2.9055    6.0850    0.8619 C.1     1  LIG1       -0.0672
     17 C           4.0496    5.9959    1.2468 C.1     1  LIG1       -0.1138
     18 H           5.0679    5.8858    1.5394 H       1  LIG1        0.1232
     19 C           1.2820    8.6951    1.2023 C.3     1  LIG1       -0.0365
     20 H           0.4710    9.2754    1.6508 H       1  LIG1        0.0279
     21 H           1.7599    9.3293    0.4482 H       1  LIG1        0.0279
     22 H           2.0244    8.4818    1.9767 H       1  LIG1        0.0279
     23 C          -1.8653    9.1921   -0.3668 C.ar    1  LIG1        0.0615
     24 C          -3.0764    9.8967   -0.3362 C.ar    1  LIG1       -0.0345
     25 C          -1.7611    7.8883    0.1793 C.ar    1  LIG1        0.0160
     26 C          -4.2457    9.3260    0.1993 C.ar    1  LIG1        0.0014
     27 H          -3.0970   10.9103   -0.7204 H       1  LIG1        0.0637
     28 C          -2.9372    7.3289    0.7118 C.ar    1  LIG1       -0.0508
     29 C          -4.1426    8.0144    0.7146 C.ar    1  LIG1       -0.0519
     30 H          -2.8906    6.3346    1.1464 H       1  LIG1        0.0625
     31 N           0.1228   10.3556   -1.5678 N.1     1  LIG1       -0.1908
     32 C          -0.7501    9.8198   -1.0157 C.1     1  LIG1        0.0998
     33 H          -5.0268    7.5225    1.1092 H       1  LIG1        0.0624
     34 C          -5.4942   10.0617    0.2251 C.ar    1  LIG1        0.0693
     35 C          -5.9630   11.1038   -0.5746 C.ar    1  LIG1        0.0711
     36 C          -7.2717   11.4502   -0.1192 C.ar    1  LIG1        0.0637
     37 C          -7.5749   10.6150    0.9362 C.ar    1  LIG1        0.0249
     38 N          -6.5300    9.7382    1.1053 N.ar    1  LIG1       -0.3575
     39 H          -6.3774    9.2275    1.9605 H       1  LIG1        0.1654
     40 H          -8.4576   10.5644    1.5570 H       1  LIG1        0.0826
     41 N          -5.3474   11.7375   -1.6584 N.pl3   1  LIG1       -0.3549
     42 H          -4.7419   11.1288   -2.1974 H       1  LIG1        0.1424
     43 H          -6.0494   12.1573   -2.2624 H       1  LIG1        0.1424
     44 N          -8.0644   12.4241   -0.7789 N.pl3   1  LIG1       -0.3554
     45 H          -9.0464   12.3409   -0.5399 H       1  LIG1        0.1424
     46 H          -7.7648   13.3701   -0.5547 H       1  LIG1        0.1424
@<TRIPOS>BOND
     1    43    41    1
     2    42    41    1
     3    41    35    1
     4    31    32    3
     5     7     2    1
     6     8     9    3
     7     2     1   ar
     8     2     3   ar
     9    32    23    1
    10     9     3    1
    11     6     1    1
    12     1     5   ar
    13     3     4   ar
    14    44    46    1
    15    44    45    1
    16    44    36    1
    17    27    24    1
    18    15    14    1
    19    35    36   ar
    20    35    34   ar
    21     5     4   ar
    22     4    10    1
    23    23    24   ar
    24    23    25   ar
    25    24    26   ar
    26    14    10   ar
    27    14    13   ar
    28    36    37   ar
    29    10    11   ar
    30    25    13    1
    31    25    28   ar
    32    13    12   ar
    33    26    34    1
    34    26    29   ar
    35    34    38   ar
    36    21    19    1
    37    11    12   ar
    38    11    16    1
    39    12    19    1
    40    28    29   ar
    41    28    30    1
    42    29    33    1
    43    16    17    3
    44    37    38   ar
    45    37    40    1
    46    38    39    1
    47    19    20    1
    48    19    22    1
    49    17    18    1
