@<TRIPOS>MOLECULE
mol_data/opt/b3lyp/geoms/mol2/12ad4hf4ei4id6fd13af-4id-12ea.out
 95 102 0 0 0
SMALL
GASTEIGER

@<TRIPOS>ATOM
      1 C           0.3586    1.3844    1.0111 C.ar    1  LIG1        0.0939
      2 C           1.6263    1.2250    0.5653 C.ar    1  LIG1       -0.0058
      3 C           2.0775    2.5409    0.1897 C.ar    1  LIG1        0.0974
      4 C           1.0383    3.4230    0.4513 C.ar    1  LIG1        0.1539
      5 O          -0.0086    2.6995    0.9484 O.2     1  LIG1       -0.4615
      6 H          -0.3862    0.7066    1.3966 H       1  LIG1        0.1030
      7 H           2.1900    0.3075    0.4911 H       1  LIG1        0.0662
      8 N           4.3468    3.1008   -0.9060 N.1     1  LIG1       -0.1907
      9 C           3.3205    2.8399   -0.4183 C.1     1  LIG1        0.1030
     10 C           1.7680    5.8629    0.5001 C.ar    1  LIG1        0.0362
     11 C           1.3599    7.2008    0.3560 C.ar    1  LIG1       -0.0291
     12 C           0.7952    4.8529    0.2842 C.ar    1  LIG1        0.0426
     13 C           0.0616    7.5860    0.0280 C.ar    1  LIG1        0.0265
     14 H           2.0986    7.9782    0.5230 H       1  LIG1        0.0643
     15 C          -0.5199    5.2397   -0.0498 C.ar    1  LIG1       -0.0071
     16 C          -0.8955    6.5673   -0.1755 C.ar    1  LIG1        0.1254
     17 H          -1.2577    4.4602   -0.2167 H       1  LIG1        0.0662
     18 N           3.0588    5.6033    0.9581 N.pl3   1  LIG1       -0.3574
     19 H           3.5487    4.8201    0.5475 H       1  LIG1        0.1423
     20 H           3.6507    6.4233    0.9634 H       1  LIG1        0.1423
     21 O          -2.1736    6.9340   -0.5156 O.3     1  LIG1       -0.5061
     22 H          -2.6953    6.1356   -0.6690 H       1  LIG1        0.2922
     23 C           0.4532    9.9317   -0.8731 C.ar    1  LIG1        0.0331
     24 C           0.0826   11.2894   -0.8890 C.ar    1  LIG1       -0.0378
     25 C          -0.2945    9.0262   -0.0815 C.ar    1  LIG1        0.0013
     26 C          -0.9990   11.7702   -0.1529 C.ar    1  LIG1       -0.0135
     27 H           0.6575   11.9736   -1.5049 H       1  LIG1        0.0636
     28 C          -1.3873    9.5265    0.6388 C.ar    1  LIG1       -0.0493
     29 C          -1.7597   10.8719    0.6260 C.ar    1  LIG1       -0.0421
     30 H          -1.9711    8.8309    1.2319 H       1  LIG1        0.0627
     31 C           1.5543    9.5259   -1.6911 C.1     1  LIG1       -0.0690
     32 C           2.4867    9.2412   -2.4082 C.1     1  LIG1       -0.1139
     33 H           3.2995    8.9683   -3.0411 H       1  LIG1        0.1232
     34 C          -2.9541   11.3358    1.4261 C.3     1  LIG1       -0.0391
     35 H          -3.3907   10.5082    1.9898 H       1  LIG1        0.0278
     36 H          -3.7349   11.7486    0.7776 H       1  LIG1        0.0278
     37 H          -2.6872   12.1247    2.1384 H       1  LIG1        0.0278
     38 C          -0.7613   14.1587    0.6767 C.ar    1  LIG1       -0.0421
     39 C          -1.1103   15.5082    0.5627 C.ar    1  LIG1       -0.0491
     40 C          -1.3364   13.2284   -0.2190 C.ar    1  LIG1       -0.0134
     41 C          -1.9987   15.9866   -0.4089 C.ar    1  LIG1        0.0049
     42 H          -0.6831   16.2220    1.2611 H       1  LIG1        0.0627
     43 C          -2.2184   13.6852   -1.1980 C.ar    1  LIG1       -0.0358
     44 C          -2.5514   15.0460   -1.3105 C.ar    1  LIG1        0.0602
     45 H          -2.6457   12.9803   -1.9035 H       1  LIG1        0.0637
     46 C           0.2152   13.7170    1.7387 C.3     1  LIG1       -0.0391
     47 H           0.5166   14.5554    2.3708 H       1  LIG1        0.0278
     48 H           1.1162   13.2859    1.2897 H       1  LIG1        0.0278
     49 H          -0.2143   12.9404    2.3800 H       1  LIG1        0.0278
     50 N          -4.1192   15.7647   -3.2537 N.1     1  LIG1       -0.1908
     51 C          -3.4156   15.4565   -2.3799 C.1     1  LIG1        0.0998
     52 C          -3.6090   17.9690   -0.2890 C.ar    1  LIG1        0.2209
     53 C          -2.3027   17.4404   -0.4805 C.ar    1  LIG1        0.0460
     54 C          -1.2931   18.3754   -0.6737 C.ar    1  LIG1       -0.0294
     55 C          -1.5657   19.7512   -0.7082 C.ar    1  LIG1        0.0799
     56 C          -2.9118   20.1685   -0.5331 C.ar    1  LIG1        0.1083
     57 N          -3.8853   19.2602   -0.3194 N.ar    1  LIG1       -0.2097
     58 H          -0.2716   18.0380   -0.8162 H       1  LIG1        0.0639
     59 O          -4.6732   17.1849   -0.0248 O.3     1  LIG1       -0.4920
     60 H          -4.4007   16.2563   -0.0114 H       1  LIG1        0.2937
     61 N           0.4217   21.3697   -1.0862 N.1     1  LIG1       -0.1908
     62 C          -0.4835   20.6565   -0.9180 C.1     1  LIG1        0.1014
     63 C          -3.3663   21.5452   -0.5523 C.ar    1  LIG1        0.0703
     64 C          -2.7347   22.7822   -0.7172 C.ar    1  LIG1        0.0073
     65 C          -3.7329   23.7648   -0.5994 C.ar    1  LIG1        0.1427
     66 C          -4.9612   23.1358   -0.3497 C.ar    1  LIG1        0.0892
     67 N          -4.7055   21.7874   -0.3592 N.ar    1  LIG1       -0.3500
     68 H          -5.3548   21.0387   -0.1604 H       1  LIG1        0.1661
     69 H          -1.6917   22.9625   -0.9205 H       1  LIG1        0.0676
     70 O          -3.4993   25.1047   -0.7428 O.3     1  LIG1       -0.5046
     71 H          -4.3186   25.5333   -1.0252 H       1  LIG1        0.2922
     72 C          -6.6140   24.7181    0.7275 C.ar    1  LIG1       -0.0405
     73 C          -7.9227   25.1952    0.7960 C.ar    1  LIG1       -0.0463
     74 C          -6.3137   23.6870   -0.2007 C.ar    1  LIG1        0.0060
     75 C          -8.9712   24.6962    0.0050 C.ar    1  LIG1        0.0361
     76 H          -8.1506   25.9706    1.5175 H       1  LIG1        0.0628
     77 C          -7.3516   23.1675   -0.9851 C.ar    1  LIG1       -0.0342
     78 C          -8.6656   23.6456   -0.9005 C.ar    1  LIG1        0.0631
     79 H          -7.1319   22.3879   -1.7071 H       1  LIG1        0.0637
     80 C          -5.5799   25.2471    1.6921 C.3     1  LIG1       -0.0391
     81 H          -6.0303   25.9524    2.3939 H       1  LIG1        0.0278
     82 H          -4.7503   25.7485    1.1848 H       1  LIG1        0.0278
     83 H          -5.1349   24.4267    2.2656 H       1  LIG1        0.0278
     84 N         -10.3223   22.5432   -2.5676 N.1     1  LIG1       -0.1908
     85 C          -9.6196   23.0604   -1.7981 C.1     1  LIG1        0.0999
     86 C         -10.3063   25.2553    0.1533 C.ar    1  LIG1        0.1513
     87 C         -10.7916   26.4576    0.6544 C.ar    1  LIG1        0.0703
     88 C         -12.2232   26.3984    0.5151 C.ar    1  LIG1       -0.0078
     89 C         -12.5031   25.1950   -0.0465 C.ar    1  LIG1        0.0938
     90 O         -11.3579   24.4962   -0.2673 O.2     1  LIG1       -0.4616
     91 H         -13.4166   24.7022   -0.3393 H       1  LIG1        0.1030
     92 C         -10.0672   27.5602    1.1722 C.1     1  LIG1       -0.0659
     93 C          -9.4895   28.5246    1.6220 C.1     1  LIG1       -0.1138
     94 H          -8.9770   29.3757    2.0074 H       1  LIG1        0.1232
     95 H         -12.9232   27.1691    0.7997 H       1  LIG1        0.0661
@<TRIPOS>BOND
     1    50    51    3
     2    33    32    1
     3    84    85    3
     4    32    31    3
     5    51    44    1
     6    45    43    1
     7    85    78    1
     8    79    77    1
     9    31    23    1
    10    27    24    1
    11    44    43   ar
    12    44    41   ar
    13    43    40   ar
    14    61    62    3
    15    71    70    1
    16    77    78   ar
    17    77    74   ar
    18    69    64    1
    19    62    55    1
    20     8     9    3
    21    78    75   ar
    22    24    23   ar
    23    24    26   ar
    24    23    25   ar
    25    58    54    1
    26    70    65    1
    27    64    65   ar
    28    64    63   ar
    29    55    54   ar
    30    55    56   ar
    31    54    53   ar
    32    22    21    1
    33    65    66   ar
    34    63    56    1
    35    63    67   ar
    36    56    57   ar
    37    21    16    1
    38    53    41    1
    39    53    52   ar
    40     9     3    1
    41    41    39   ar
    42    67    66   ar
    43    67    68    1
    44    66    74    1
    45    91    89    1
    46    57    52   ar
    47    52    59    1
    48    90    89   ar
    49    90    86   ar
    50    40    26    1
    51    40    38   ar
    52    17    15    1
    53    74    72   ar
    54    16    15   ar
    55    16    13   ar
    56    26    29   ar
    57    25    13    1
    58    25    28   ar
    59    15    12   ar
    60    89    88   ar
    61    59    60    1
    62    75    86    1
    63    75    73   ar
    64    13    11   ar
    65    86    87   ar
    66     3     4   ar
    67     3     2   ar
    68    12     4    1
    69    12    10   ar
    70    11    10   ar
    71    11    14    1
    72     4     5   ar
    73     7     2    1
    74    10    18    1
    75    88    87   ar
    76    88    95    1
    77    19    18    1
    78    39    38   ar
    79    39    42    1
    80     2     1   ar
    81    29    28   ar
    82    29    34    1
    83    28    30    1
    84    87    92    1
    85    38    46    1
    86    72    73   ar
    87    72    80    1
    88    36    34    1
    89    73    76    1
    90     5     1   ar
    91    18    20    1
    92     1     6    1
    93    92    93    3
    94    82    80    1
    95    48    46    1
    96    34    35    1
    97    34    37    1
    98    93    94    1
    99    80    83    1
   100    80    81    1
   101    46    47    1
   102    46    49    1
