@<TRIPOS>MOLECULE
mol_data/opt/b3lyp/geoms/mol2/12ae12ae-12ae12ae.out
 38 41 0 0 0
SMALL
GASTEIGER

@<TRIPOS>ATOM
      1 C           0.2480    1.6496   -0.0002 C.ar    1  LIG1        0.0939
      2 C           1.6040    1.6643   -0.0001 C.ar    1  LIG1       -0.0077
      3 C           2.0018    3.0506   -0.0001 C.ar    1  LIG1        0.0734
      4 C           0.8198    3.7750   -0.0001 C.ar    1  LIG1        0.1850
      5 O          -0.2467    2.9232   -0.0002 O.2     1  LIG1       -0.4586
      6 H          -0.4885    0.8621   -0.0002 H       1  LIG1        0.1030
      7 H           2.2678    0.8130   -0.0001 H       1  LIG1        0.0661
      8 C           3.3306    3.5392   -0.0000 C.1     1  LIG1       -0.0658
      9 C           4.4829    3.9104    0.0000 C.1     1  LIG1       -0.1138
     10 H           5.4956    4.2412    0.0002 H       1  LIG1        0.1232
     11 C           0.5088    5.1728   -0.0001 C.ar    1  LIG1        0.1731
     12 C          -0.6768    5.8600   -0.0001 C.ar    1  LIG1        0.0035
     13 C          -0.3477    7.2546   -0.0001 C.ar    1  LIG1        0.0741
     14 C           1.0404    7.3141   -0.0001 C.ar    1  LIG1        0.1860
     15 O           1.5582    6.0519   -0.0001 O.2     1  LIG1       -0.4473
     16 H          -1.6680    5.4341   -0.0001 H       1  LIG1        0.0669
     17 C          -1.2635    8.3346   -0.0001 C.1     1  LIG1       -0.0657
     18 C          -2.0715    9.2349   -0.0001 C.1     1  LIG1       -0.1138
     19 H          -2.7692   10.0397   -0.0000 H       1  LIG1        0.1232
     20 C           2.0010    8.3721   -0.0001 C.ar    1  LIG1        0.1732
     21 C           3.3727    8.3601   -0.0001 C.ar    1  LIG1        0.0035
     22 C           3.7920    9.7275   -0.0001 C.ar    1  LIG1        0.0741
     23 C           2.6257   10.4844   -0.0001 C.ar    1  LIG1        0.1860
     24 O           1.5410    9.6624   -0.0001 O.2     1  LIG1       -0.4473
     25 H           4.0042    7.4852   -0.0001 H       1  LIG1        0.0669
     26 C           5.1222   10.2132   -0.0001 C.1     1  LIG1       -0.0657
     27 C           6.2628   10.6194   -0.0000 C.1     1  LIG1       -0.1138
     28 H           7.2688   10.9703    0.0001 H       1  LIG1        0.1232
     29 C           2.3943   11.8991   -0.0002 C.ar    1  LIG1        0.1721
     30 C           3.2394   12.9793   -0.0002 C.ar    1  LIG1        0.0027
     31 C           2.4026   14.1475   -0.0002 C.ar    1  LIG1        0.0630
     32 C           1.1108   13.6796   -0.0002 C.ar    1  LIG1        0.1081
     33 O           1.0896   12.3259   -0.0002 O.2     1  LIG1       -0.4585
     34 H           0.1536   14.1757   -0.0002 H       1  LIG1        0.1042
     35 H           4.3174   12.9512   -0.0002 H       1  LIG1        0.0669
     36 C           2.8145   15.5060   -0.0002 C.1     1  LIG1       -0.0665
     37 C           3.1739   16.6608   -0.0002 C.1     1  LIG1       -0.1138
     38 H           3.4874   17.6789   -0.0009 H       1  LIG1        0.1232
@<TRIPOS>BOND
     1    38    37    1
     2    37    36    3
     3    34    32    1
     4     6     1    1
     5    32    33   ar
     6    32    31   ar
     7    33    29   ar
     8    31    36    1
     9    31    30   ar
    10     5     1   ar
    11     5     4   ar
    12     1     2   ar
    13    30    29   ar
    14    30    35    1
    15    29    23    1
    16    24    23   ar
    17    24    20   ar
    18    15    11   ar
    19    15    14   ar
    20    23    22   ar
    21     4    11    1
    22     4     3   ar
    23    11    12   ar
    24    14    20    1
    25    14    13   ar
    26    20    21   ar
    27    12    13   ar
    28    12    16    1
    29    13    17    1
    30     2     3   ar
    31     2     7    1
    32    22    21   ar
    33    22    26    1
    34     3     8    1
    35    21    25    1
    36    17    18    3
    37    26    27    3
    38    18    19    1
    39     8     9    3
    40    27    28    1
    41     9    10    1
