@<TRIPOS>MOLECULE
mol_data/opt/b3lyp/geoms/mol2/12ae12ae12ae12ae-.out
 38 41 0 0 0
SMALL
GASTEIGER

@<TRIPOS>ATOM
      1 C           0.6125    1.5957   -0.0001 C.ar    1  LIG1        0.0939
      2 C           1.9625    1.7333   -0.0000 C.ar    1  LIG1       -0.0077
      3 C           2.2278    3.1489   -0.0000 C.ar    1  LIG1        0.0734
      4 C           0.9834    3.7627   -0.0001 C.ar    1  LIG1        0.1850
      5 O           0.0026    2.8176   -0.0001 O.2     1  LIG1       -0.4586
      6 H          -0.0488    0.7440   -0.0002 H       1  LIG1        0.1030
      7 H           2.7010    0.9460    0.0001 H       1  LIG1        0.0661
      8 C           3.4936    3.7812    0.0000 C.1     1  LIG1       -0.0658
      9 C           4.5823    4.3122    0.0001 C.1     1  LIG1       -0.1138
     10 H           5.5429    4.7729   -0.0000 H       1  LIG1        0.1232
     11 C           0.5874    5.1406   -0.0001 C.ar    1  LIG1        0.1731
     12 C           1.2995    6.3129   -0.0001 C.ar    1  LIG1        0.0035
     13 C           0.3411    7.3748   -0.0001 C.ar    1  LIG1        0.0741
     14 C          -0.9075    6.7623   -0.0001 C.ar    1  LIG1        0.1860
     15 O          -0.7580    5.4095   -0.0001 O.2     1  LIG1       -0.4473
     16 H           2.3735    6.4103   -0.0000 H       1  LIG1        0.0669
     17 C           0.6077    8.7652   -0.0001 C.1     1  LIG1       -0.0657
     18 C           0.8438    9.9528   -0.0001 C.1     1  LIG1       -0.1138
     19 H           1.0591   10.9963   -0.0001 H       1  LIG1        0.1232
     20 C          -2.2379    7.2879   -0.0002 C.ar    1  LIG1        0.1732
     21 C          -2.7364    8.5661   -0.0002 C.ar    1  LIG1        0.0035
     22 C          -4.1639    8.4542   -0.0003 C.ar    1  LIG1        0.0741
     23 C          -4.4366    7.0922   -0.0003 C.ar    1  LIG1        0.1860
     24 O          -3.2720    6.3855   -0.0002 O.2     1  LIG1       -0.4473
     25 H          -2.1612    9.4783   -0.0002 H       1  LIG1        0.0669
     26 C          -5.0877    9.5283   -0.0003 C.1     1  LIG1       -0.0657
     27 C          -5.8461   10.4709   -0.0003 C.1     1  LIG1       -0.1138
     28 H          -6.5252   11.2915   -0.0001 H       1  LIG1        0.1232
     29 C          -5.6380    6.3124   -0.0003 C.ar    1  LIG1        0.1721
     30 C          -5.8558    4.9592   -0.0003 C.ar    1  LIG1        0.0027
     31 C          -7.2820    4.7803   -0.0003 C.ar    1  LIG1        0.0630
     32 C          -7.8152    6.0466   -0.0004 C.ar    1  LIG1        0.1081
     33 O          -6.8343    6.9810   -0.0004 O.2     1  LIG1       -0.4585
     34 H          -8.8288    6.4140   -0.0005 H       1  LIG1        0.1042
     35 H          -5.1031    4.1863   -0.0002 H       1  LIG1        0.0669
     36 C          -8.0009    3.5563   -0.0003 C.1     1  LIG1       -0.0665
     37 C          -8.6061    2.5092   -0.0003 C.1     1  LIG1       -0.1138
     38 H          -9.1411    1.5880   -0.0002 H       1  LIG1        0.1232
@<TRIPOS>BOND
     1    34    32    1
     2    32    33   ar
     3    32    31   ar
     4    33    29   ar
     5    31    36    1
     6    31    30   ar
     7    27    26    3
     8    27    28    1
     9    36    37    3
    10    29    23    1
    11    29    30   ar
    12    26    22    1
    13    37    38    1
    14    23    22   ar
    15    23    24   ar
    16    22    21   ar
    17    30    35    1
    18    24    20   ar
    19    21    25    1
    20    21    20   ar
    21    20    14    1
    22     6     1    1
    23    14    15   ar
    24    14    13   ar
    25    15    11   ar
    26     1     5   ar
    27     1     2   ar
    28     5     4   ar
    29    11     4    1
    30    11    12   ar
    31    13    17    1
    32    13    12   ar
    33     4     3   ar
    34    17    18    3
    35    19    18    1
    36    12    16    1
    37     3     2   ar
    38     3     8    1
    39    10     9    1
    40     2     7    1
    41     8     9    3
