@<TRIPOS>MOLECULE
mol_data/opt/b3lyp/geoms/mol2/12ae13ld-6ae-12dh.out
 45 48 0 0 0
SMALL
GASTEIGER

@<TRIPOS>ATOM
      1 C          -0.0990    1.4766   -0.0249 C.ar    1  LIG1        0.0939
      2 C           1.2364    1.3418    0.1531 C.ar    1  LIG1       -0.0078
      3 C           1.8025    2.6694    0.1060 C.ar    1  LIG1        0.0719
      4 C           0.7357    3.5248   -0.1179 C.ar    1  LIG1        0.1698
      5 O          -0.4249    2.7950   -0.1920 O.2     1  LIG1       -0.4601
      6 H          -0.9222    0.7812   -0.0627 H       1  LIG1        0.1030
      7 H           1.7868    0.4266    0.3104 H       1  LIG1        0.0661
      8 C           3.1694    2.9719    0.3192 C.1     1  LIG1       -0.0658
      9 C           4.3475    3.1445    0.5382 C.1     1  LIG1       -0.1138
     10 H           5.3851    3.3093    0.7138 H       1  LIG1        0.1232
     11 C           0.5521    4.9450   -0.2446 C.ar    1  LIG1        0.1272
     12 C           1.4209    5.9980   -0.5178 C.ar    1  LIG1        0.1662
     13 C           0.6521    7.2068   -0.5010 C.ar    1  LIG1        0.1193
     14 C          -0.6838    6.8567   -0.2340 C.ar    1  LIG1        0.0697
     15 N          -0.7093    5.4979   -0.1030 N.ar    1  LIG1       -0.3477
     16 H          -1.5148    4.9542    0.1652 H       1  LIG1        0.1661
     17 O           2.7184    5.8364   -0.8540 O.3     1  LIG1       -0.4916
     18 C           3.6866    6.5936   -0.1127 C.3     1  LIG1        0.0789
     19 H           4.6562    6.3117   -0.5233 H       1  LIG1        0.0660
     20 H           3.5373    7.6695   -0.2372 H       1  LIG1        0.0660
     21 H           3.6490    6.3287    0.9494 H       1  LIG1        0.0660
     22 N           1.5449    9.5694   -1.0361 N.1     1  LIG1       -0.1907
     23 C           1.1334    8.5047   -0.8005 C.1     1  LIG1        0.1050
     24 C          -3.1644    7.1122   -0.3645 C.ar    1  LIG1        0.0376
     25 C          -1.8897    7.6672   -0.1242 C.ar    1  LIG1        0.0190
     26 C          -1.8565    9.0175    0.2418 C.ar    1  LIG1       -0.0335
     27 C          -3.0447    9.7542    0.3518 C.ar    1  LIG1        0.0543
     28 C          -4.2668    9.0896    0.0618 C.ar    1  LIG1        0.1226
     29 N          -4.3011    7.7865   -0.2731 N.ar    1  LIG1       -0.2500
     30 H          -0.9186    9.5089    0.4703 H       1  LIG1        0.0637
     31 H          -3.2622    6.0739   -0.6784 H       1  LIG1        0.0836
     32 C          -2.9796   11.1000    0.8158 C.1     1  LIG1       -0.0674
     33 C          -2.8736   12.2305    1.2316 C.1     1  LIG1       -0.1138
     34 H          -2.8066   13.2401    1.5667 H       1  LIG1        0.1232
     35 C          -5.5758    9.7440    0.1255 C.ar    1  LIG1        0.1732
     36 C          -6.0690   10.9869   -0.2430 C.ar    1  LIG1        0.1195
     37 C          -7.4899   10.9699    0.0205 C.ar    1  LIG1        0.0811
     38 C          -7.7488    9.7251    0.5229 C.ar    1  LIG1        0.1145
     39 O          -6.5971    8.9851    0.5789 O.2     1  LIG1       -0.4581
     40 H          -8.6426    9.2415    0.8808 H       1  LIG1        0.1049
     41 N          -5.0098   13.0028   -1.4507 N.1     1  LIG1       -0.1907
     42 C          -5.4258   12.0704   -0.8895 C.1     1  LIG1        0.1049
     43 N          -8.3440   12.0482   -0.1624 N.pl3   1  LIG1       -0.3545
     44 H          -8.0005   12.7354   -0.8218 H       1  LIG1        0.1424
     45 H          -9.3066   11.8023   -0.3488 H       1  LIG1        0.1424
@<TRIPOS>BOND
     1    41    42    3
     2    22    23    3
     3    42    36    1
     4    17    12    1
     5    17    18    1
     6    44    43    1
     7    23    13    1
     8    31    24    1
     9    19    18    1
    10    12    13   ar
    11    12    11   ar
    12    13    14   ar
    13    24    29   ar
    14    24    25   ar
    15    45    43    1
    16    29    28   ar
    17    11     4    1
    18    11    15   ar
    19    36    37   ar
    20    36    35   ar
    21    20    18    1
    22    14    25    1
    23    14    15   ar
    24     5     4   ar
    25     5     1   ar
    26    43    37    1
    27    25    26   ar
    28     4     3   ar
    29    18    21    1
    30    15    16    1
    31     6     1    1
    32     1     2   ar
    33    37    38   ar
    34    28    35    1
    35    28    27   ar
    36     3     2   ar
    37     3     8    1
    38    35    39   ar
    39     2     7    1
    40    26    27   ar
    41    26    30    1
    42     8     9    3
    43    27    32    1
    44    38    39   ar
    45    38    40    1
    46     9    10    1
    47    32    33    3
    48    33    34    1
