@<TRIPOS>MOLECULE
mol_data/opt/b3lyp/geoms/mol2/12ae12ae-12ae.out
 29 31 0 0 0
SMALL
GASTEIGER

@<TRIPOS>ATOM
      1 C           0.1527    1.7637    0.0001 C.ar    1  LIG1        0.0939
      2 C           1.5084    1.7371   -0.0000 C.ar    1  LIG1       -0.0077
      3 C           1.9482    3.1108    0.0001 C.ar    1  LIG1        0.0734
      4 C           0.7890    3.8707   -0.0000 C.ar    1  LIG1        0.1850
      5 O          -0.3030    3.0520   -0.0001 O.2     1  LIG1       -0.4586
      6 H          -0.6076    0.9992    0.0001 H       1  LIG1        0.1030
      7 H           2.1460    0.8660   -0.0000 H       1  LIG1        0.0661
      8 C           3.2909    3.5600    0.0001 C.1     1  LIG1       -0.0658
      9 C           4.4526    3.9001    0.0001 C.1     1  LIG1       -0.1138
     10 H           5.4733    4.2051   -0.0007 H       1  LIG1        0.1232
     11 C           0.5204    5.2777   -0.0001 C.ar    1  LIG1        0.1731
     12 C          -0.6431    6.0005   -0.0001 C.ar    1  LIG1        0.0035
     13 C          -0.2704    7.3850   -0.0001 C.ar    1  LIG1        0.0741
     14 C           1.1177    7.4013   -0.0001 C.ar    1  LIG1        0.1860
     15 O           1.5960    6.1246   -0.0001 O.2     1  LIG1       -0.4473
     16 H          -1.6472    5.6058   -0.0001 H       1  LIG1        0.0669
     17 C          -1.1544    8.4918   -0.0002 C.1     1  LIG1       -0.0657
     18 C          -1.9395    9.4123   -0.0002 C.1     1  LIG1       -0.1138
     19 H          -2.6196   10.2321   -0.0004 H       1  LIG1        0.1232
     20 C           2.1115    8.4328   -0.0001 C.ar    1  LIG1        0.1721
     21 C           3.4810    8.3848   -0.0001 C.ar    1  LIG1        0.0027
     22 C           3.9318    9.7498   -0.0001 C.ar    1  LIG1        0.0630
     23 C           2.7924   10.5175   -0.0002 C.ar    1  LIG1        0.1081
     24 O           1.6858    9.7353   -0.0002 O.2     1  LIG1       -0.4585
     25 H           2.6273   11.5828   -0.0002 H       1  LIG1        0.1042
     26 H           4.0910    7.4949   -0.0000 H       1  LIG1        0.0669
     27 C           5.2716   10.2191   -0.0000 C.1     1  LIG1       -0.0665
     28 C           6.4159   10.6106   -0.0000 C.1     1  LIG1       -0.1138
     29 H           7.4228   10.9584   -0.0001 H       1  LIG1        0.1232
@<TRIPOS>BOND
     1    10     9    1
     2    19    18    1
     3    24    23   ar
     4    24    20   ar
     5    18    17    3
     6    25    23    1
     7    23    22   ar
     8    17    13    1
     9    16    12    1
    10    13    12   ar
    11    13    14   ar
    12    20    14    1
    13    20    21   ar
    14    12    11   ar
    15    14    15   ar
    16    22    21   ar
    17    22    27    1
    18    15    11   ar
    19    11     4    1
    20     5     4   ar
    21     5     1   ar
    22    21    26    1
    23    29    28    1
    24    27    28    3
    25     4     3   ar
    26     7     2    1
    27     2     1   ar
    28     2     3   ar
    29     1     6    1
    30     3     8    1
    31     9     8    3
