@<TRIPOS>MOLECULE
mol_data/opt/b3lyp/geoms/mol2/12ae13dh6ed6lf13he6fh4fd6il.out
 100 107 0 0 0
SMALL
GASTEIGER

@<TRIPOS>ATOM
      1 C           0.7964    2.1749    2.1799 C.ar    1  LIG1        0.0939
      2 C           2.1136    2.1214    1.8652 C.ar    1  LIG1       -0.0078
      3 C           2.3429    3.1346    0.8656 C.ar    1  LIG1        0.0718
      4 C           1.1103    3.7255    0.6374 C.ar    1  LIG1        0.1675
      5 O           0.1679    3.1410    1.4478 O.2     1  LIG1       -0.4602
      6 H           0.1713    1.6229    2.8638 H       1  LIG1        0.1030
      7 H           2.8604    1.4623    2.2811 H       1  LIG1        0.0661
      8 C           3.5954    3.4736    0.3026 C.1     1  LIG1       -0.0658
      9 C           4.6837    3.7498   -0.1473 C.1     1  LIG1       -0.1138
     10 H           5.6197    4.0085   -0.5858 H       1  LIG1        0.1232
     11 C           0.6183    4.8013   -0.1807 C.ar    1  LIG1        0.1032
     12 C           1.0921    5.4226   -1.3529 C.ar    1  LIG1        0.1012
     13 C           0.1522    6.4371   -1.7111 C.ar    1  LIG1        0.0686
     14 C          -0.8755    6.4200   -0.7571 C.ar    1  LIG1        0.0719
     15 N          -0.5564    5.4072    0.1364 N.ar    1  LIG1       -0.3491
     16 H          -1.1464    5.1244    0.9069 H       1  LIG1        0.1661
     17 N           3.0462    4.9200   -2.9537 N.1     1  LIG1       -0.1907
     18 C           2.1957    5.1019   -2.1771 C.1     1  LIG1        0.1033
     19 N           0.2890    7.2813   -2.8085 N.pl3   1  LIG1       -0.3553
     20 H           1.0495    7.0072   -3.4211 H       1  LIG1        0.1424
     21 H          -0.5628    7.4260   -3.3378 H       1  LIG1        0.1424
     22 C          -3.2093    6.9720    0.1313 C.ar    1  LIG1        0.1230
     23 C          -2.0353    7.2852   -0.6193 C.ar    1  LIG1        0.0352
     24 C          -2.0384    8.5468   -1.2383 C.ar    1  LIG1       -0.0304
     25 C          -3.1381    9.3989   -1.1310 C.ar    1  LIG1        0.0785
     26 C          -4.2585    8.9876   -0.3637 C.ar    1  LIG1        0.0949
     27 N          -4.2592    7.8006    0.2438 N.ar    1  LIG1       -0.2363
     28 H          -1.1670    8.8761   -1.7918 H       1  LIG1        0.0638
     29 C          -3.3676    5.7296    0.8333 C.1     1  LIG1       -0.0491
     30 C          -3.5255    4.6926    1.4382 C.1     1  LIG1       -0.1124
     31 H          -3.6939    3.7766    1.9569 H       1  LIG1        0.1232
     32 N          -3.0451   11.6612   -2.4011 N.1     1  LIG1       -0.1908
     33 C          -3.1040   10.6555   -1.8193 C.1     1  LIG1        0.1013
     34 C          -6.7656    9.3816   -0.4634 C.ar    1  LIG1        0.2247
     35 C          -5.4539    9.8468   -0.1762 C.ar    1  LIG1        0.0666
     36 C          -5.3495   11.1394    0.3157 C.ar    1  LIG1       -0.0037
     37 C          -6.4827   11.9401    0.5429 C.ar    1  LIG1        0.1451
     38 C          -7.7358   11.3823    0.2219 C.ar    1  LIG1        0.1340
     39 N          -7.8386   10.1191   -0.2711 N.ar    1  LIG1       -0.2071
     40 H          -4.3837   11.5626    0.5699 H       1  LIG1        0.0663
     41 O          -6.8840    8.1425   -0.9922 O.3     1  LIG1       -0.4792
     42 C          -8.2014    7.6630   -1.2572 C.3     1  LIG1        0.0804
     43 H          -8.0668    6.6691   -1.6849 H       1  LIG1        0.0660
     44 H          -8.7909    7.5955   -0.3373 H       1  LIG1        0.0660
     45 H          -8.7283    8.3097   -1.9654 H       1  LIG1        0.0660
     46 O          -6.2696   13.1543    1.0804 O.3     1  LIG1       -0.5045
     47 H          -7.1047   13.7029    1.1120 H       1  LIG1        0.2922
     48 C          -9.0290   12.0456    0.3990 C.ar    1  LIG1        0.0913
     49 C          -9.4622   13.3247    0.7302 C.ar    1  LIG1        0.0680
     50 C         -10.8936   13.3160    0.7709 C.ar    1  LIG1        0.0713
     51 C         -11.3098   12.0152    0.4450 C.ar    1  LIG1        0.0695
     52 N         -10.1665   11.2932    0.2080 N.ar    1  LIG1       -0.3503
     53 H         -10.1017   10.2980    0.0360 H       1  LIG1        0.1660
     54 N          -8.6169   14.4555    0.9550 N.pl3   1  LIG1       -0.3553
     55 H          -8.6005   15.0697    0.1413 H       1  LIG1        0.1424
     56 H          -8.9689   15.0131    1.7310 H       1  LIG1        0.1424
     57 C         -11.6877   14.4541    1.0540 C.1     1  LIG1       -0.0657
     58 C         -12.3076   15.4639    1.3106 C.1     1  LIG1       -0.1138
     59 H         -12.8684   16.3461    1.5163 H       1  LIG1        0.1232
     60 C         -12.9429   10.3535   -0.5287 C.ar    1  LIG1        0.2224
     61 C         -12.6417   11.4228    0.3531 C.ar    1  LIG1        0.0627
     62 C         -13.6950   11.8727    1.1509 C.ar    1  LIG1       -0.0247
     63 C         -14.9638   11.2767    1.1099 C.ar    1  LIG1        0.0519
     64 C         -15.1306   10.1921    0.2133 C.ar    1  LIG1        0.0989
     65 N         -14.1218    9.7730   -0.5735 N.ar    1  LIG1       -0.2105
     66 H         -13.5166   12.6856    1.8476 H       1  LIG1        0.0645
     67 O         -12.0065    9.8272   -1.3859 O.3     1  LIG1       -0.4919
     68 H         -11.3830   10.5245   -1.6349 H       1  LIG1        0.2937
     69 N         -15.9506   11.6765    2.0115 N.pl3   1  LIG1       -0.3563
     70 H         -15.7247   12.5391    2.4898 H       1  LIG1        0.1424
     71 H         -16.8816   11.7093    1.6133 H       1  LIG1        0.1424
     72 C         -17.6758    9.8430    0.0064 C.ar    1  LIG1        0.1267
     73 C         -18.7665    8.9754   -0.1055 C.ar    1  LIG1       -0.0105
     74 C         -16.3603    9.3544    0.1146 C.ar    1  LIG1        0.0449
     75 C         -18.6058    7.5905   -0.1286 C.ar    1  LIG1        0.0048
     76 H         -19.7705    9.3885   -0.1757 H       1  LIG1        0.0661
     77 C         -16.2017    7.9651    0.0543 C.ar    1  LIG1       -0.0310
     78 C         -17.2865    7.0861   -0.0565 C.ar    1  LIG1        0.0604
     79 H         -15.1944    7.5674    0.0827 H       1  LIG1        0.0638
     80 O         -17.8683   11.2010   -0.0116 O.3     1  LIG1       -0.5061
     81 H         -18.8071   11.3880   -0.1478 H       1  LIG1        0.2922
     82 N         -16.8011    4.5370   -0.1580 N.1     1  LIG1       -0.1908
     83 C         -17.0307    5.6772   -0.1163 C.1     1  LIG1        0.0998
     84 C         -20.2624    5.8864    0.7786 C.ar    1  LIG1        0.0462
     85 C         -19.8021    6.7102   -0.2671 C.ar    1  LIG1        0.0079
     86 C         -20.5151    6.7373   -1.4757 C.ar    1  LIG1       -0.0090
     87 C         -21.6466    5.9363   -1.6166 C.ar    1  LIG1        0.1387
     88 C         -22.0261    5.1458   -0.5216 C.ar    1  LIG1        0.0695
     89 N         -21.3641    5.1281    0.6295 N.ar    1  LIG1       -0.2559
     90 H         -20.1621    7.3674   -2.2840 H       1  LIG1        0.0661
     91 H         -22.9087    4.5151   -0.6075 H       1  LIG1        0.0867
     92 C         -19.5767    5.7989    2.1199 C.3     1  LIG1       -0.0218
     93 H         -19.1820    6.7657    2.4453 H       1  LIG1        0.0293
     94 H         -18.7385    5.0937    2.0855 H       1  LIG1        0.0293
     95 H         -20.2908    5.4336    2.8598 H       1  LIG1        0.0293
     96 O         -22.4294    5.8515   -2.7275 O.3     1  LIG1       -0.4936
     97 C         -22.0513    6.6077   -3.8686 C.3     1  LIG1        0.0789
     98 H         -22.7915    6.3833   -4.6375 H       1  LIG1        0.0660
     99 H         -22.0627    7.6858   -3.6615 H       1  LIG1        0.0660
    100 H         -21.0556    6.3217   -4.2304 H       1  LIG1        0.0660
@<TRIPOS>BOND
     1    98    97    1
     2   100    97    1
     3    97    99    1
     4    97    96    1
     5    20    19    1
     6    21    19    1
     7    17    18    3
     8    19    13    1
     9    96    87    1
    10    32    33    3
    11    90    86    1
    12    18    12    1
    13    45    42    1
    14    33    25    1
    15    28    24    1
    16    13    12   ar
    17    13    14   ar
    18    43    42    1
    19    68    67    1
    20    87    86   ar
    21    87    88   ar
    22    86    85   ar
    23    67    60    1
    24    12    11   ar
    25    42    41    1
    26    42    44    1
    27    24    25   ar
    28    24    23   ar
    29    25    26   ar
    30    41    34    1
    31    14    23    1
    32    14    15   ar
    33    23    22   ar
    34    91    88    1
    35    10     9    1
    36    65    60   ar
    37    65    64   ar
    38    60    61   ar
    39    88    89   ar
    40    34    39   ar
    41    34    35   ar
    42    26    35    1
    43    26    27   ar
    44    39    38   ar
    45    85    75    1
    46    85    84   ar
    47    11    15   ar
    48    11     4    1
    49    35    36   ar
    50    76    73    1
    51    82    83    3
    52    81    80    1
    53     9     8    3
    54    75    73   ar
    55    75    78   ar
    56    83    78    1
    57    73    72   ar
    58    78    77   ar
    59    80    72    1
    60    72    74   ar
    61    53    52    1
    62    77    79    1
    63    77    74   ar
    64    74    64    1
    65    22    27   ar
    66    22    29    1
    67    15    16    1
    68    55    54    1
    69    52    48   ar
    70    52    51   ar
    71    64    63   ar
    72    38    48    1
    73    38    37   ar
    74     8     3    1
    75    36    37   ar
    76    36    40    1
    77    61    51    1
    78    61    62   ar
    79    48    49   ar
    80    51    50   ar
    81    37    46    1
    82    89    84   ar
    83     4     3   ar
    84     4     5   ar
    85    49    50   ar
    86    49    54    1
    87    50    57    1
    88    84    92    1
    89    29    30    3
    90     3     2   ar
    91    54    56    1
    92    57    58    3
    93    46    47    1
    94    63    62   ar
    95    63    69    1
    96    62    66    1
    97    58    59    1
    98    30    31    1
    99     5     1   ar
   100    71    69    1
   101     2     1   ar
   102     2     7    1
   103    69    70    1
   104    94    92    1
   105    92    93    1
   106    92    95    1
   107     1     6    1
