@<TRIPOS>MOLECULE
mol_data/opt/b3lyp/geoms/mol2/12ae12ae-12ae12ae-.out
 38 41 0 0 0
SMALL
GASTEIGER

@<TRIPOS>ATOM
      1 C           0.1503    1.7141   -0.0001 C.ar    1  LIG1        0.0939
      2 C           1.5060    1.6847   -0.0000 C.ar    1  LIG1       -0.0077
      3 C           1.9487    3.0572   -0.0001 C.ar    1  LIG1        0.0734
      4 C           0.7908    3.8195   -0.0001 C.ar    1  LIG1        0.1850
      5 O          -0.3029    3.0031   -0.0001 O.2     1  LIG1       -0.4586
      6 H          -0.6115    0.9509   -0.0002 H       1  LIG1        0.1030
      7 H           2.1418    0.8122    0.0000 H       1  LIG1        0.0661
      8 C           3.2922    3.5038   -0.0000 C.1     1  LIG1       -0.0658
      9 C           4.4548    3.8412    0.0000 C.1     1  LIG1       -0.1138
     10 H           5.4764    4.1431    0.0001 H       1  LIG1        0.1232
     11 C           0.5260    5.2269   -0.0001 C.ar    1  LIG1        0.1731
     12 C          -0.6361    5.9530   -0.0001 C.ar    1  LIG1        0.0035
     13 C          -0.2605    7.3359   -0.0001 C.ar    1  LIG1        0.0741
     14 C           1.1291    7.3488   -0.0001 C.ar    1  LIG1        0.1860
     15 O           1.6042    6.0706   -0.0001 O.2     1  LIG1       -0.4473
     16 H          -1.6409    5.5605   -0.0001 H       1  LIG1        0.0669
     17 C          -1.1424    8.4443   -0.0001 C.1     1  LIG1       -0.0657
     18 C          -1.9288    9.3642   -0.0001 C.1     1  LIG1       -0.1138
     19 H          -2.6183   10.1763   -0.0001 H       1  LIG1        0.1232
     20 C           2.1192    8.3787   -0.0001 C.ar    1  LIG1        0.1732
     21 C           3.4897    8.3408   -0.0001 C.ar    1  LIG1        0.0035
     22 C           3.9400    9.7006   -0.0001 C.ar    1  LIG1        0.0741
     23 C           2.7898   10.4795   -0.0002 C.ar    1  LIG1        0.1860
     24 O           1.6870    9.6783   -0.0002 O.2     1  LIG1       -0.4473
     25 H           4.1054    7.4548   -0.0001 H       1  LIG1        0.0669
     26 C           5.2871   10.1391   -0.0001 C.1     1  LIG1       -0.0657
     27 C           6.4487   10.4774   -0.0001 C.1     1  LIG1       -0.1138
     28 H           7.4672   10.7891   -0.0001 H       1  LIG1        0.1232
     29 C           2.5288   11.8873   -0.0002 C.ar    1  LIG1        0.1721
     30 C           1.3589   12.6011   -0.0002 C.ar    1  LIG1        0.0027
     31 C           1.7337   13.9886   -0.0002 C.ar    1  LIG1        0.0630
     32 C           3.1077   14.0025   -0.0003 C.ar    1  LIG1        0.1081
     33 O           3.6012   12.7405   -0.0003 O.2     1  LIG1       -0.4585
     34 H           3.8317   14.8013   -0.0003 H       1  LIG1        0.1042
     35 H           0.3599   12.1936   -0.0002 H       1  LIG1        0.0669
     36 C           0.8734   15.1178   -0.0002 C.1     1  LIG1       -0.0665
     37 C           0.1334   16.0745   -0.0002 C.1     1  LIG1       -0.1138
     38 H          -0.5158   16.9191   -0.0002 H       1  LIG1        0.1232
@<TRIPOS>BOND
     1    34    32    1
     2    32    33   ar
     3    32    31   ar
     4    33    29   ar
     5    37    36    3
     6    37    38    1
     7    36    31    1
     8    31    30   ar
     9    29    30   ar
    10    29    23    1
    11    30    35    1
    12    24    23   ar
    13    24    20   ar
    14    23    22   ar
    15     6     1    1
    16    22    26    1
    17    22    21   ar
    18    20    14    1
    19    20    21   ar
    20    15    14   ar
    21    15    11   ar
    22     1     5   ar
    23     1     2   ar
    24    14    13   ar
    25    26    27    3
    26     5     4   ar
    27    19    18    1
    28    21    25    1
    29    13    17    1
    30    13    12   ar
    31    27    28    1
    32    11     4    1
    33    11    12   ar
    34    17    18    3
    35     4     3   ar
    36    12    16    1
    37     3     2   ar
    38     3     8    1
    39     2     7    1
    40     8     9    3
    41     9    10    1
