@<TRIPOS>MOLECULE
mol_data/opt/b3lyp/geoms/mol2/12ae12ae.out
 20 21 0 0 0
SMALL
GASTEIGER

@<TRIPOS>ATOM
      1 C           0.1996    1.7219   -0.0001 C.ar    1  LIG1        0.0939
      2 C           1.5557    1.7605   -0.0000 C.ar    1  LIG1       -0.0077
      3 C           1.9234    3.1538   -0.0000 C.ar    1  LIG1        0.0734
      4 C           0.7286    3.8562   -0.0001 C.ar    1  LIG1        0.1850
      5 O          -0.3188    2.9858   -0.0001 O.2     1  LIG1       -0.4586
      6 H          -0.5225    0.9212   -0.0001 H       1  LIG1        0.1030
      7 H           2.2350    0.9216    0.0000 H       1  LIG1        0.0661
      8 C           3.2324    3.6919    0.0000 C.1     1  LIG1       -0.0658
      9 C           4.3572    4.1411    0.0000 C.1     1  LIG1       -0.1138
     10 H           5.3484    4.5315    0.0001 H       1  LIG1        0.1232
     11 C           0.4324    5.2625   -0.0001 C.ar    1  LIG1        0.1721
     12 C           1.2246    6.3799   -0.0001 C.ar    1  LIG1        0.0027
     13 C           0.3330    7.5084   -0.0001 C.ar    1  LIG1        0.0630
     14 C          -0.9347    6.9807   -0.0002 C.ar    1  LIG1        0.1081
     15 O          -0.8911    5.6267   -0.0001 O.2     1  LIG1       -0.4585
     16 H          -1.9147    7.4302   -0.0002 H       1  LIG1        0.1042
     17 H           2.3027    6.4028   -0.0001 H       1  LIG1        0.0669
     18 C           0.6808    8.8847   -0.0001 C.1     1  LIG1       -0.0665
     19 C           0.9860   10.0551   -0.0001 C.1     1  LIG1       -0.1138
     20 H           1.2517   11.0867   -0.0001 H       1  LIG1        0.1232
@<TRIPOS>BOND
     1    16    14    1
     2    14    15   ar
     3    14    13   ar
     4    19    18    3
     5    19    20    1
     6    15    11   ar
     7    18    13    1
     8    13    12   ar
     9    11    12   ar
    10    11     4    1
    11    12    17    1
    12     5     4   ar
    13     5     1   ar
    14     6     1    1
    15     4     3   ar
    16     1     2   ar
    17     3     2   ar
    18     3     8    1
    19     2     7    1
    20     8     9    3
    21     9    10    1
