@<TRIPOS>MOLECULE
mol_data/opt/b3lyp/geoms/mol2/12ae12ae-12ae-12ae.out
 38 41 0 0 0
SMALL
GASTEIGER

@<TRIPOS>ATOM
      1 C          -0.0967    1.7235   -0.0001 C.ar    1  LIG1        0.0939
      2 C           1.2544    1.6098   -0.0000 C.ar    1  LIG1       -0.0077
      3 C           1.7823    2.9521   -0.0000 C.ar    1  LIG1        0.0734
      4 C           0.6747    3.7856   -0.0001 C.ar    1  LIG1        0.1850
      5 O          -0.4683    3.0380   -0.0001 O.2     1  LIG1       -0.4586
      6 H          -0.9047    1.0093   -0.0001 H       1  LIG1        0.1030
      7 H           1.8350    0.6998    0.0000 H       1  LIG1        0.0661
      8 C           3.1530    3.3059   -0.0000 C.1     1  LIG1       -0.0658
      9 C           4.3378    3.5534    0.0001 C.1     1  LIG1       -0.1138
     10 H           5.3800    3.7738    0.0003 H       1  LIG1        0.1232
     11 C           0.4877    5.2057   -0.0001 C.ar    1  LIG1        0.1731
     12 C          -0.6409    5.9844   -0.0001 C.ar    1  LIG1        0.0035
     13 C          -0.1997    7.3453   -0.0001 C.ar    1  LIG1        0.0741
     14 C           1.1900    7.2948   -0.0001 C.ar    1  LIG1        0.1860
     15 O           1.6047    5.9973   -0.0001 O.2     1  LIG1       -0.4473
     16 H          -1.6624    5.6376   -0.0000 H       1  LIG1        0.0669
     17 C          -1.0090    8.5067   -0.0001 C.1     1  LIG1       -0.0657
     18 C          -1.7077    9.4956   -0.0001 C.1     1  LIG1       -0.1138
     19 H          -2.3290   10.3612   -0.0006 H       1  LIG1        0.1232
     20 C           2.1923    8.3152   -0.0001 C.ar    1  LIG1        0.1732
     21 C           2.1321    9.6861   -0.0001 C.ar    1  LIG1        0.0035
     22 C           3.4837   10.1597   -0.0002 C.ar    1  LIG1        0.0741
     23 C           4.2823    9.0233   -0.0002 C.ar    1  LIG1        0.1860
     24 O           3.5018    7.9073   -0.0001 O.2     1  LIG1       -0.4473
     25 H           1.2377   10.2885   -0.0001 H       1  LIG1        0.0669
     26 C           3.8978   11.5145   -0.0002 C.1     1  LIG1       -0.0657
     27 C           4.2153   12.6819   -0.0002 C.1     1  LIG1       -0.1138
     28 H           4.5086   13.7059    0.0003 H       1  LIG1        0.1232
     29 C           5.6947    8.7874   -0.0002 C.ar    1  LIG1        0.1721
     30 C           6.4271    7.6292   -0.0001 C.ar    1  LIG1        0.0027
     31 C           7.8086    8.0251   -0.0001 C.ar    1  LIG1        0.0630
     32 C           7.8007    9.3992   -0.0002 C.ar    1  LIG1        0.1081
     33 O           6.5310    9.8726   -0.0002 O.2     1  LIG1       -0.4585
     34 H           8.5879   10.1357   -0.0003 H       1  LIG1        0.1042
     35 H           6.0342    6.6246   -0.0000 H       1  LIG1        0.0669
     36 C           8.9499    7.1811   -0.0001 C.1     1  LIG1       -0.0665
     37 C           9.9159    6.4532   -0.0001 C.1     1  LIG1       -0.1138
     38 H          10.7697    5.8160   -0.0003 H       1  LIG1        0.1232
@<TRIPOS>BOND
     1    19    18    1
     2    38    37    1
     3    34    32    1
     4    33    32   ar
     5    33    29   ar
     6    32    31   ar
     7    26    22    1
     8    26    27    3
     9    29    23    1
    10    29    30   ar
    11    22    23   ar
    12    22    21   ar
    13    23    24   ar
    14    27    28    1
    15    24    20   ar
    16    21    25    1
    17    21    20   ar
    18    31    30   ar
    19    31    36    1
    20    20    14    1
    21     6     1    1
    22    30    35    1
    23    15    14   ar
    24    15    11   ar
    25    14    13   ar
    26    36    37    3
    27    18    17    3
    28     5     1   ar
    29     5     4   ar
    30     1     2   ar
    31    13    17    1
    32    13    12   ar
    33    11     4    1
    34    11    12   ar
    35     4     3   ar
    36    12    16    1
    37     3     2   ar
    38     3     8    1
    39     2     7    1
    40     8     9    3
    41     9    10    1
