@<TRIPOS>MOLECULE
mol_data/opt/b3lyp/geoms/mol2/12ae12ae-12ae-12ae-.out
 38 41 0 0 0
SMALL
GASTEIGER

@<TRIPOS>ATOM
      1 C          -0.2280    1.6930   -0.0002 C.ar    1  LIG1        0.0939
      2 C           1.1222    1.5636   -0.0002 C.ar    1  LIG1       -0.0077
      3 C           1.6646    2.8994   -0.0001 C.ar    1  LIG1        0.0734
      4 C           0.5662    3.7446   -0.0001 C.ar    1  LIG1        0.1850
      5 O          -0.5857    3.0118   -0.0002 O.2     1  LIG1       -0.4586
      6 H          -1.0438    0.9878   -0.0002 H       1  LIG1        0.1030
      7 H           1.6913    0.6463   -0.0002 H       1  LIG1        0.0661
      8 C           3.0322    3.2630   -0.0001 C.1     1  LIG1       -0.0658
      9 C           4.2052    3.5596    0.0000 C.1     1  LIG1       -0.1138
     10 H           5.2257    3.8639    0.0009 H       1  LIG1        0.1232
     11 C           0.4111    5.1684   -0.0001 C.ar    1  LIG1        0.1731
     12 C          -0.6929    5.9818   -0.0001 C.ar    1  LIG1        0.0035
     13 C          -0.2088    7.3286   -0.0001 C.ar    1  LIG1        0.0741
     14 C           1.1790    7.2344   -0.0001 C.ar    1  LIG1        0.1860
     15 O           1.5516    5.9257   -0.0001 O.2     1  LIG1       -0.4473
     16 H          -1.7249    5.6676   -0.0001 H       1  LIG1        0.0669
     17 C          -0.9816    8.5147   -0.0000 C.1     1  LIG1       -0.0657
     18 C          -1.6494    9.5248   -0.0000 C.1     1  LIG1       -0.1138
     19 H          -2.2445   10.4086   -0.0004 H       1  LIG1        0.1232
     20 C           2.2138    8.2223   -0.0001 C.ar    1  LIG1        0.1732
     21 C           2.1902    9.5948   -0.0001 C.ar    1  LIG1        0.0035
     22 C           3.5532   10.0272   -0.0001 C.ar    1  LIG1        0.0741
     23 C           4.3218    8.8685   -0.0001 C.ar    1  LIG1        0.1860
     24 O           3.5119    7.7768   -0.0001 O.2     1  LIG1       -0.4473
     25 H           1.3119   10.2205   -0.0000 H       1  LIG1        0.0669
     26 C           4.0234   11.3630   -0.0000 C.1     1  LIG1       -0.0657
     27 C           4.4159   12.5083   -0.0001 C.1     1  LIG1       -0.1138
     28 H           4.7547   13.5185   -0.0004 H       1  LIG1        0.1232
     29 C           5.7397    8.6551   -0.0001 C.ar    1  LIG1        0.1721
     30 C           6.8067    9.5165   -0.0001 C.ar    1  LIG1        0.0027
     31 C           7.9881    8.6987   -0.0001 C.ar    1  LIG1        0.0630
     32 C           7.5411    7.3999   -0.0001 C.ar    1  LIG1        0.1081
     33 O           6.1872    7.3564   -0.0001 O.2     1  LIG1       -0.4585
     34 H           8.0538    6.4515   -0.0001 H       1  LIG1        0.1042
     35 H           6.7613   10.5939   -0.0001 H       1  LIG1        0.0669
     36 C           9.3400    9.1318   -0.0002 C.1     1  LIG1       -0.0665
     37 C          10.4891    9.5090   -0.0002 C.1     1  LIG1       -0.1138
     38 H          11.5021    9.8386   -0.0005 H       1  LIG1        0.1232
@<TRIPOS>BOND
     1    38    37    1
     2    19    18    1
     3    28    27    1
     4     7     2    1
     5     2     1   ar
     6     2     3   ar
     7    37    36    3
     8     5     1   ar
     9     5     4   ar
    10     6     1    1
    11    36    31    1
    12    31    30   ar
    13    31    32   ar
    14     4    11    1
    15     4     3   ar
    16    35    30    1
    17    30    29   ar
    18    33    32   ar
    19    33    29   ar
    20    32    34    1
    21    11    15   ar
    22    11    12   ar
    23    15    14   ar
    24    29    23    1
    25     3     8    1
    26    24    23   ar
    27    24    20   ar
    28    12    16    1
    29    12    13   ar
    30    23    22   ar
    31    14    20    1
    32    14    13   ar
    33    20    21   ar
    34     8     9    3
    35    21    22   ar
    36    21    25    1
    37    22    26    1
    38    13    17    1
    39    27    26    3
    40    18    17    3
    41     9    10    1
