@<TRIPOS>MOLECULE
mol_data/opt/b3lyp/geoms/mol2/12ae12ae12ae-12ae.out
 38 41 0 0 0
SMALL
GASTEIGER

@<TRIPOS>ATOM
      1 C           0.3420    1.6282   -0.0001 C.ar    1  LIG1        0.0939
      2 C           1.6970    1.6999   -0.0001 C.ar    1  LIG1       -0.0077
      3 C           2.0313    3.1008    0.0000 C.ar    1  LIG1        0.0734
      4 C           0.8186    3.7748   -0.0001 C.ar    1  LIG1        0.1850
      5 O          -0.2077    2.8786   -0.0001 O.2     1  LIG1       -0.4586
      6 H          -0.3599    0.8097   -0.0001 H       1  LIG1        0.1030
      7 H           2.3963    0.8775   -0.0001 H       1  LIG1        0.0661
      8 C           3.3264    3.6705    0.0001 C.1     1  LIG1       -0.0658
      9 C           4.4397    4.1477    0.0001 C.1     1  LIG1       -0.1138
     10 H           5.4212    4.5620   -0.0008 H       1  LIG1        0.1232
     11 C           0.4899    5.1702   -0.0001 C.ar    1  LIG1        0.1731
     12 C           1.2554    6.3074    0.0000 C.ar    1  LIG1        0.0035
     13 C           0.3498    7.4172   -0.0000 C.ar    1  LIG1        0.0741
     14 C          -0.9251    6.8644   -0.0001 C.ar    1  LIG1        0.1860
     15 O          -0.8412    5.5037   -0.0001 O.2     1  LIG1       -0.4473
     16 H           2.3329    6.3542    0.0001 H       1  LIG1        0.0669
     17 C           0.7066    8.7881    0.0000 C.1     1  LIG1       -0.0657
     18 C           1.0521    9.9479    0.0001 C.1     1  LIG1       -0.1138
     19 H           1.3529   10.9699    0.0009 H       1  LIG1        0.1232
     20 C          -2.2453    7.4115   -0.0002 C.ar    1  LIG1        0.1732
     21 C          -3.4888    6.8338   -0.0002 C.ar    1  LIG1        0.0035
     22 C          -4.4416    7.9036   -0.0003 C.ar    1  LIG1        0.0741
     23 C          -3.6945    9.0745   -0.0003 C.ar    1  LIG1        0.1860
     24 O          -2.3646    8.7760   -0.0002 O.2     1  LIG1       -0.4473
     25 H          -3.7073    5.7773   -0.0002 H       1  LIG1        0.0669
     26 C          -5.8520    7.7712   -0.0003 C.1     1  LIG1       -0.0657
     27 C          -7.0523    7.6199   -0.0003 C.1     1  LIG1       -0.1138
     28 H          -8.1108    7.5006    0.0001 H       1  LIG1        0.1232
     29 C          -4.0140   10.4704   -0.0003 C.ar    1  LIG1        0.1721
     30 C          -3.2243   11.5906   -0.0002 C.ar    1  LIG1        0.0027
     31 C          -4.1200   12.7147   -0.0003 C.ar    1  LIG1        0.0630
     32 C          -5.3862   12.1810   -0.0004 C.ar    1  LIG1        0.1081
     33 O          -5.3372   10.8270   -0.0004 O.2     1  LIG1       -0.4585
     34 H          -6.3681   12.6261   -0.0005 H       1  LIG1        0.1042
     35 H          -2.1458   11.6142   -0.0001 H       1  LIG1        0.0669
     36 C          -3.7795   14.0928   -0.0002 C.1     1  LIG1       -0.0665
     37 C          -3.4810   15.2649   -0.0003 C.1     1  LIG1       -0.1138
     38 H          -3.2209   16.2979   -0.0008 H       1  LIG1        0.1232
@<TRIPOS>BOND
     1    10     9    1
     2    38    37    1
     3    34    32    1
     4    33    32   ar
     5    33    29   ar
     6    32    31   ar
     7    27    26    3
     8    27    28    1
     9    26    22    1
    10    29    23    1
    11    29    30   ar
    12    31    36    1
    13    31    30   ar
    14    22    23   ar
    15    22    21   ar
    16    23    24   ar
    17    37    36    3
    18    30    35    1
    19    21    25    1
    20    21    20   ar
    21    24    20   ar
    22    20    14    1
    23     5     1   ar
    24     5     4   ar
    25    15    14   ar
    26    15    11   ar
    27     6     1    1
    28    14    13   ar
    29     1     2   ar
    30     7     2    1
    31     2     3   ar
    32     4    11    1
    33     4     3   ar
    34    11    12   ar
    35    13    12   ar
    36    13    17    1
    37     3     8    1
    38    12    16    1
    39    17    18    3
    40     9     8    3
    41    18    19    1
