@<TRIPOS>MOLECULE
mol_data/opt/b3lyp/geoms/mol2/12ae12ae-.out
 20 21 0 0 0
SMALL
GASTEIGER

@<TRIPOS>ATOM
      1 C           0.1778    1.8028   -0.0000 C.ar    1  LIG1        0.0939
      2 C           1.5331    1.7706   -0.0000 C.ar    1  LIG1       -0.0077
      3 C           1.9782    3.1431   -0.0000 C.ar    1  LIG1        0.0734
      4 C           0.8234    3.9073   -0.0001 C.ar    1  LIG1        0.1850
      5 O          -0.2718    3.0932   -0.0001 O.2     1  LIG1       -0.4586
      6 H          -0.5861    1.0416   -0.0000 H       1  LIG1        0.1030
      7 H           2.1676    0.8973    0.0000 H       1  LIG1        0.0661
      8 C           3.3229    3.5869    0.0000 C.1     1  LIG1       -0.0658
      9 C           4.4850    3.9243    0.0000 C.1     1  LIG1       -0.1138
     10 H           5.5031    4.2375   -0.0000 H       1  LIG1        0.1232
     11 C           0.5545    5.3176   -0.0001 C.ar    1  LIG1        0.1721
     12 C          -0.6128    6.0334   -0.0001 C.ar    1  LIG1        0.0027
     13 C          -0.2358    7.4217   -0.0001 C.ar    1  LIG1        0.0630
     14 C           1.1374    7.4331   -0.0002 C.ar    1  LIG1        0.1081
     15 O           1.6274    6.1694   -0.0002 O.2     1  LIG1       -0.4585
     16 H           1.8635    8.2299   -0.0002 H       1  LIG1        0.1042
     17 H          -1.6148    5.6339   -0.0001 H       1  LIG1        0.0669
     18 C          -1.0956    8.5511   -0.0001 C.1     1  LIG1       -0.0665
     19 C          -1.8359    9.5076   -0.0001 C.1     1  LIG1       -0.1138
     20 H          -2.4855   10.3519   -0.0001 H       1  LIG1        0.1232
@<TRIPOS>BOND
     1    16    14    1
     2    14    15   ar
     3    14    13   ar
     4    15    11   ar
     5    19    18    3
     6    19    20    1
     7    18    13    1
     8    13    12   ar
     9    11    12   ar
    10    11     4    1
    11    12    17    1
    12     5     4   ar
    13     5     1   ar
    14     4     3   ar
    15     1     2   ar
    16     1     6    1
    17     2     3   ar
    18     2     7    1
    19     3     8    1
    20    10     9    1
    21     8     9    3
