@<TRIPOS>MOLECULE
mol_data/opt/b3lyp/geoms/mol2/12ae12ae12ae-12ae-.out
 38 41 0 0 0
SMALL
GASTEIGER

@<TRIPOS>ATOM
      1 C           0.2682    1.6094   -0.0001 C.ar    1  LIG1        0.0939
      2 C           1.6248    1.6367   -0.0001 C.ar    1  LIG1       -0.0077
      3 C           2.0049    3.0259   -0.0000 C.ar    1  LIG1        0.0734
      4 C           0.8150    3.7394   -0.0001 C.ar    1  LIG1        0.1850
      5 O          -0.2402    2.8772   -0.0001 O.2     1  LIG1       -0.4586
      6 H          -0.4602    0.8144   -0.0001 H       1  LIG1        0.1030
      7 H           2.2967    0.7918   -0.0001 H       1  LIG1        0.0661
      8 C           3.3179    3.5529    0.0000 C.1     1  LIG1       -0.0658
      9 C           4.4462    3.9934    0.0001 C.1     1  LIG1       -0.1138
     10 H           5.4405    4.3761    0.0003 H       1  LIG1        0.1232
     11 C           0.5314    5.1448   -0.0001 C.ar    1  LIG1        0.1731
     12 C           1.3321    6.2574   -0.0000 C.ar    1  LIG1        0.0035
     13 C           0.4620    7.3952   -0.0001 C.ar    1  LIG1        0.0741
     14 C          -0.8296    6.8831   -0.0001 C.ar    1  LIG1        0.1860
     15 O          -0.7883    5.5198   -0.0001 O.2     1  LIG1       -0.4473
     16 H           2.4105    6.2705    0.0000 H       1  LIG1        0.0669
     17 C           0.8586    8.7547   -0.0000 C.1     1  LIG1       -0.0657
     18 C           1.2302    9.9059   -0.0000 C.1     1  LIG1       -0.1138
     19 H           1.5398   10.9250   -0.0006 H       1  LIG1        0.1232
     20 C          -2.1353    7.4647   -0.0002 C.ar    1  LIG1        0.1732
     21 C          -3.3888    6.9074   -0.0002 C.ar    1  LIG1        0.0035
     22 C          -4.3190    7.9939   -0.0002 C.ar    1  LIG1        0.0741
     23 C          -3.5515    9.1531   -0.0002 C.ar    1  LIG1        0.1860
     24 O          -2.2292    8.8316   -0.0002 O.2     1  LIG1       -0.4473
     25 H          -3.6242    5.8546   -0.0001 H       1  LIG1        0.0669
     26 C          -5.7324    7.9074   -0.0002 C.1     1  LIG1       -0.0657
     27 C          -6.9402    7.8233   -0.0002 C.1     1  LIG1       -0.1138
     28 H          -8.0025    7.7414   -0.0002 H       1  LIG1        0.1232
     29 C          -3.9044   10.5425   -0.0003 C.ar    1  LIG1        0.1721
     30 C          -5.1110   11.1946   -0.0003 C.ar    1  LIG1        0.0027
     31 C          -4.8111   12.5999   -0.0004 C.ar    1  LIG1        0.0630
     32 C          -3.4400   12.6876   -0.0003 C.ar    1  LIG1        0.1081
     33 O          -2.8792   11.4554   -0.0003 O.2     1  LIG1       -0.4585
     34 H          -2.7611   13.5252   -0.0003 H       1  LIG1        0.1042
     35 H          -6.0876   10.7376   -0.0003 H       1  LIG1        0.0669
     36 C          -5.7318   13.6804   -0.0004 C.1     1  LIG1       -0.0665
     37 C          -6.5230   14.5952   -0.0004 C.1     1  LIG1       -0.1138
     38 H          -7.2177   15.4028    0.0002 H       1  LIG1        0.1232
@<TRIPOS>BOND
     1    19    18    1
     2    36    37    3
     3    36    31    1
     4    37    38    1
     5    31    30   ar
     6    31    32   ar
     7    35    30    1
     8    30    29   ar
     9    34    32    1
    10    32    33   ar
    11    33    29   ar
    12    29    23    1
    13    27    26    3
    14    27    28    1
    15    23    22   ar
    16    23    24   ar
    17    26    22    1
    18    22    21   ar
    19    24    20   ar
    20    21    20   ar
    21    21    25    1
    22    20    14    1
    23     7     2    1
    24     5     1   ar
    25     5     4   ar
    26    15    14   ar
    27    15    11   ar
    28     2     1   ar
    29     2     3   ar
    30    14    13   ar
    31     6     1    1
    32     4    11    1
    33     4     3   ar
    34    11    12   ar
    35    13    12   ar
    36    13    17    1
    37     3     8    1
    38    12    16    1
    39    18    17    3
    40     8     9    3
    41     9    10    1
