@<TRIPOS>MOLECULE
mol_data/opt/b3lyp/geoms/mol2/12ae12ae12ae12ae.out
 38 41 0 0 0
SMALL
GASTEIGER

@<TRIPOS>ATOM
      1 C           0.7650    1.5740   -0.0000 C.ar    1  LIG1        0.0939
      2 C           2.1111    1.7465   -0.0001 C.ar    1  LIG1       -0.0077
      3 C           2.3395    3.1684   -0.0000 C.ar    1  LIG1        0.0734
      4 C           1.0794    3.7496   -0.0001 C.ar    1  LIG1        0.1850
      5 O           0.1238    2.7795   -0.0001 O.2     1  LIG1       -0.4586
      6 H           0.1258    0.7056    0.0000 H       1  LIG1        0.1030
      7 H           2.8698    0.9786   -0.0001 H       1  LIG1        0.0661
      8 C           3.5884    3.8335   -0.0000 C.1     1  LIG1       -0.0658
      9 C           4.6629    4.3927   -0.0000 C.1     1  LIG1       -0.1138
     10 H           5.6109    4.8787   -0.0001 H       1  LIG1        0.1232
     11 C           0.6483    5.1170   -0.0001 C.ar    1  LIG1        0.1731
     12 C           1.3315    6.3064   -0.0001 C.ar    1  LIG1        0.0035
     13 C           0.3472    7.3442   -0.0001 C.ar    1  LIG1        0.0741
     14 C          -0.8860    6.7007   -0.0001 C.ar    1  LIG1        0.1860
     15 O          -0.7032    5.3525   -0.0001 O.2     1  LIG1       -0.4473
     16 H           2.4028    6.4302   -0.0001 H       1  LIG1        0.0669
     17 C           0.5800    8.7406   -0.0001 C.1     1  LIG1       -0.0657
     18 C           0.7880    9.9335   -0.0001 C.1     1  LIG1       -0.1138
     19 H           0.9794   10.9816   -0.0000 H       1  LIG1        0.1232
     20 C          -2.2281    7.1963   -0.0002 C.ar    1  LIG1        0.1732
     21 C          -2.7498    8.4661   -0.0002 C.ar    1  LIG1        0.0035
     22 C          -4.1727    8.3238   -0.0002 C.ar    1  LIG1        0.0741
     23 C          -4.4199    6.9556   -0.0002 C.ar    1  LIG1        0.1860
     24 O          -3.2438    6.2734   -0.0002 O.2     1  LIG1       -0.4473
     25 H          -2.1911    9.3884   -0.0002 H       1  LIG1        0.0669
     26 C          -5.1335    9.3640   -0.0003 C.1     1  LIG1       -0.0657
     27 C          -5.9479   10.2600   -0.0003 C.1     1  LIG1       -0.1138
     28 H          -6.6592   11.0531   -0.0001 H       1  LIG1        0.1232
     29 C          -5.6361    6.1968   -0.0002 C.ar    1  LIG1        0.1721
     30 C          -6.9587    6.5600   -0.0003 C.ar    1  LIG1        0.0027
     31 C          -7.7137    5.3373   -0.0003 C.ar    1  LIG1        0.0630
     32 C          -6.7836    4.3259   -0.0002 C.ar    1  LIG1        0.1081
     33 O          -5.5268    4.8285   -0.0002 O.2     1  LIG1       -0.4585
     34 H          -6.8717    3.2513   -0.0002 H       1  LIG1        0.1042
     35 H          -7.3483    7.5654   -0.0003 H       1  LIG1        0.0669
     36 C          -9.1259    5.1934   -0.0003 C.1     1  LIG1       -0.0665
     37 C         -10.3300    5.0800   -0.0004 C.1     1  LIG1       -0.1138
     38 H         -11.3903    4.9770   -0.0011 H       1  LIG1        0.1232
@<TRIPOS>BOND
     1    38    37    1
     2    37    36    3
     3    35    30    1
     4    27    26    3
     5    27    28    1
     6    26    22    1
     7    36    31    1
     8    30    31   ar
     9    30    29   ar
    10    31    32   ar
    11    22    23   ar
    12    22    21   ar
    13    29    23    1
    14    29    33   ar
    15    25    21    1
    16    23    24   ar
    17    21    20   ar
    18    33    32   ar
    19    32    34    1
    20    20    24   ar
    21    20    14    1
    22    14    13   ar
    23    14    15   ar
    24    18    17    3
    25    18    19    1
    26    10     9    1
    27    17    13    1
    28    13    12   ar
    29    15    11   ar
    30    12    11   ar
    31    12    16    1
    32    11     4    1
    33     7     2    1
    34     5     4   ar
    35     5     1   ar
    36     2     3   ar
    37     2     1   ar
    38     4     3   ar
    39     9     8    3
    40     3     8    1
    41     1     6    1
