@<TRIPOS>MOLECULE
mol_data/opt/b3lyp/geoms/mol2/12ae4ee6eh-6fa-.out
 48 51 0 0 0
SMALL
GASTEIGER

@<TRIPOS>ATOM
      1 C           1.4494    1.7993    0.7239 C.ar    1  LIG1        0.0938
      2 C           2.7451    1.8713    0.3311 C.ar    1  LIG1       -0.0078
      3 C           2.9869    3.2478   -0.0252 C.ar    1  LIG1        0.0703
      4 C           1.7883    3.9109    0.1725 C.ar    1  LIG1        0.1513
      5 O           0.8563    3.0237    0.6420 O.2     1  LIG1       -0.4616
      6 H           0.8190    0.9938    1.0661 H       1  LIG1        0.1030
      7 H           3.4667    1.0690    0.2976 H       1  LIG1        0.0661
      8 C           4.2419    3.7917   -0.3960 C.1     1  LIG1       -0.0659
      9 C           5.3375    4.2171   -0.6832 C.1     1  LIG1       -0.1138
     10 H           6.2923    4.6112   -0.9433 H       1  LIG1        0.1232
     11 C           1.6594    6.1530   -1.0060 C.ar    1  LIG1        0.0360
     12 C           1.2252    7.4898   -0.9734 C.ar    1  LIG1       -0.0367
     13 C           1.3525    5.3052    0.0898 C.ar    1  LIG1        0.0350
     14 C           0.4773    8.0127    0.0805 C.ar    1  LIG1        0.0014
     15 H           1.4748    8.1271   -1.8131 H       1  LIG1        0.0636
     16 C           0.5758    5.8202    1.1338 C.ar    1  LIG1       -0.0339
     17 C           0.1321    7.1501    1.1546 C.ar    1  LIG1        0.0332
     18 H           0.3126    5.1722    1.9614 H       1  LIG1        0.0637
     19 C           2.3350    5.6915   -2.1740 C.1     1  LIG1       -0.0689
     20 C           2.8719    5.3460   -3.2017 C.1     1  LIG1       -0.1139
     21 H           3.3598    5.0169   -4.0898 H       1  LIG1        0.1232
     22 C          -0.6696    7.5838    2.2558 C.1     1  LIG1       -0.0690
     23 C          -1.3493    7.9086    3.2030 C.1     1  LIG1       -0.1139
     24 H          -1.9579    8.2035    4.0265 H       1  LIG1        0.1232
     25 C          -0.6140   10.0440   -1.0026 C.ar    1  LIG1        0.1216
     26 C           0.0818    9.4455    0.0718 C.ar    1  LIG1        0.0189
     27 C           0.4390   10.2803    1.1298 C.ar    1  LIG1       -0.0285
     28 C           0.1094   11.6391    1.1521 C.ar    1  LIG1        0.0517
     29 C          -0.6665   12.1461    0.0671 C.ar    1  LIG1        0.0980
     30 N          -0.9586   11.3434   -0.9688 N.ar    1  LIG1       -0.2358
     31 H           1.0135    9.8686    1.9543 H       1  LIG1        0.0643
     32 C          -1.0197    9.3171   -2.1679 C.1     1  LIG1       -0.0492
     33 C          -1.3758    8.7281   -3.1624 C.1     1  LIG1       -0.1124
     34 H          -1.6920    8.2047   -4.0351 H       1  LIG1        0.1232
     35 N           0.5306   12.4287    2.2157 N.pl3   1  LIG1       -0.3563
     36 H           1.2922   12.0328    2.7508 H       1  LIG1        0.1424
     37 H           0.6842   13.4046    1.9979 H       1  LIG1        0.1424
     38 C          -1.4223   14.1427   -1.3113 C.ar    1  LIG1        0.2218
     39 C          -1.1539   13.5421   -0.0347 C.ar    1  LIG1        0.0635
     40 C          -1.4220   14.3398    1.0882 C.ar    1  LIG1       -0.0460
     41 C          -1.8317   15.6621    0.9399 C.ar    1  LIG1       -0.0427
     42 C          -1.9528   16.1601   -0.3556 C.ar    1  LIG1        0.0314
     43 N          -1.7672   15.4243   -1.4526 N.ar    1  LIG1       -0.2209
     44 H          -1.3355   13.9137    2.0816 H       1  LIG1        0.0626
     45 H          -2.2289   17.2002   -0.5241 H       1  LIG1        0.0831
     46 O          -1.3429   13.4507   -2.4484 O.3     1  LIG1       -0.4919
     47 H          -1.2576   12.4925   -2.1934 H       1  LIG1        0.2937
     48 H          -2.0459   16.2849    1.8015 H       1  LIG1        0.0633
@<TRIPOS>BOND
     1    21    20    1
     2    34    33    1
     3    20    19    3
     4    33    32    3
     5    46    47    1
     6    46    38    1
     7    19    11    1
     8    32    25    1
     9    15    12    1
    10    43    38   ar
    11    43    42   ar
    12    38    39   ar
    13    11    12   ar
    14    11    13   ar
    15    25    30   ar
    16    25    26   ar
    17    12    14   ar
    18    30    29   ar
    19    10     9    1
    20     9     8    3
    21    45    42    1
    22     8     3    1
    23    42    41   ar
    24    39    29    1
    25    39    40   ar
    26     3     4   ar
    27     3     2   ar
    28    29    28   ar
    29    26    14    1
    30    26    27   ar
    31    14    17   ar
    32    13     4    1
    33    13    16   ar
    34     4     5   ar
    35     7     2    1
    36     2     1   ar
    37     5     1   ar
    38     1     6    1
    39    41    40   ar
    40    41    48    1
    41    40    44    1
    42    27    28   ar
    43    27    31    1
    44    16    17   ar
    45    16    18    1
    46    28    35    1
    47    17    22    1
    48    37    35    1
    49    35    36    1
    50    22    23    3
    51    23    24    1
