@<TRIPOS>MOLECULE
mol_data/opt/b3lyp/geoms/mol2/12ae4ad-12eh12fi.out
 44 47 0 0 0
SMALL
GASTEIGER

@<TRIPOS>ATOM
      1 C           0.5113    1.5067   -0.1622 C.ar    1  LIG1        0.0938
      2 C           1.8571    1.5765   -0.0152 C.ar    1  LIG1       -0.0078
      3 C           2.1853    2.9778    0.0650 C.ar    1  LIG1        0.0703
      4 C           0.9827    3.6641   -0.0424 C.ar    1  LIG1        0.1501
      5 O          -0.0314    2.7567   -0.1804 O.2     1  LIG1       -0.4617
      6 H          -0.1858    0.6901   -0.2634 H       1  LIG1        0.1030
      7 H           2.5559    0.7552    0.0335 H       1  LIG1        0.0661
      8 C           3.4933    3.4989    0.2227 C.1     1  LIG1       -0.0659
      9 C           4.6292    3.8971    0.3583 C.1     1  LIG1       -0.1138
     10 H           5.6264    4.2521    0.4781 H       1  LIG1        0.1232
     11 C           1.5494    6.0991    0.1012 C.ar    1  LIG1       -0.0503
     12 C           1.1586    7.4259    0.1038 C.ar    1  LIG1       -0.0491
     13 C           0.6011    5.0659   -0.0394 C.ar    1  LIG1        0.0197
     14 C          -0.1904    7.8158   -0.0365 C.ar    1  LIG1        0.0359
     15 H           1.9135    8.1923    0.2248 H       1  LIG1        0.0625
     16 C          -0.7450    5.4315   -0.1808 C.ar    1  LIG1       -0.0330
     17 C          -1.1501    6.7720   -0.1841 C.ar    1  LIG1        0.0631
     18 H          -1.5000    4.6638   -0.2969 H       1  LIG1        0.0638
     19 H           2.5984    5.8551    0.2161 H       1  LIG1        0.0625
     20 N          -3.7077    7.0470   -0.5341 N.1     1  LIG1       -0.1908
     21 C          -2.5576    6.9888   -0.3676 C.1     1  LIG1        0.0999
     22 C          -0.5346    9.2207   -0.0217 C.ar    1  LIG1        0.1542
     23 C           0.2199   10.3942   -0.0603 C.ar    1  LIG1        0.0918
     24 C          -0.7112   11.4889   -0.0017 C.ar    1  LIG1        0.0904
     25 C          -1.9692   10.9166    0.0516 C.ar    1  LIG1        0.1959
     26 O          -1.8485    9.5484    0.0411 O.2     1  LIG1       -0.4484
     27 C           1.6186   10.5822   -0.1566 C.1     1  LIG1       -0.0640
     28 C           2.8005   10.8375   -0.2465 C.1     1  LIG1       -0.1137
     29 H           3.8451   11.0334   -0.3219 H       1  LIG1        0.1232
     30 N          -0.3646   12.8239    0.0708 N.pl3   1  LIG1       -0.3540
     31 H           0.5604   13.0230   -0.2869 H       1  LIG1        0.1425
     32 H          -1.0773   13.4644   -0.2603 H       1  LIG1        0.1425
     33 C          -3.2914   11.4651    0.1091 C.ar    1  LIG1        0.2129
     34 C          -3.8137   12.7089   -0.1650 C.ar    1  LIG1        0.1687
     35 C          -5.2214   12.6647    0.0985 C.ar    1  LIG1        0.0295
     36 C          -5.4566   11.3836    0.5072 C.ar    1  LIG1        0.0993
     37 O          -4.3145   10.6486    0.5207 O.2     1  LIG1       -0.4557
     38 H          -6.3553   10.8632    0.7997 H       1  LIG1        0.1033
     39 O          -3.0962   13.7676   -0.6678 O.3     1  LIG1       -0.5030
     40 H          -3.5921   14.5817   -0.5127 H       1  LIG1        0.2923
     41 C          -6.2002   13.7864   -0.0711 C.3     1  LIG1       -0.0332
     42 H          -7.2140   13.4585    0.1709 H       1  LIG1        0.0280
     43 H          -6.2132   14.1600   -1.1024 H       1  LIG1        0.0280
     44 H          -5.9714   14.6361    0.5856 H       1  LIG1        0.0280
@<TRIPOS>BOND
     1    43    41    1
     2    39    40    1
     3    39    34    1
     4    20    21    3
     5    21    17    1
     6    29    28    1
     7    18    16    1
     8    31    30    1
     9     6     1    1
    10    32    30    1
    11    28    27    3
    12    17    16   ar
    13    17    14   ar
    14    16    13   ar
    15     5     1   ar
    16     5     4   ar
    17    34    35   ar
    18    34    33   ar
    19     1     2   ar
    20    27    23    1
    21    41    35    1
    22    41    42    1
    23    41    44    1
    24    23    22   ar
    25    23    24   ar
    26     4    13    1
    27     4     3   ar
    28    13    11   ar
    29    14    22    1
    30    14    12   ar
    31    22    26   ar
    32     2     7    1
    33     2     3   ar
    34    24    25   ar
    35    24    30    1
    36    26    25   ar
    37    25    33    1
    38     3     8    1
    39    35    36   ar
    40    11    12   ar
    41    11    19    1
    42    12    15    1
    43    33    37   ar
    44     8     9    3
    45     9    10    1
    46    36    37   ar
    47    36    38    1
