@<TRIPOS>MOLECULE
mol_data/opt/b3lyp/geoms/mol2/12ae12ae12ae.out
 29 31 0 0 0
SMALL
GASTEIGER

@<TRIPOS>ATOM
      1 C           0.4028    1.5966   -0.0001 C.ar    1  LIG1        0.0939
      2 C           1.7556    1.7018   -0.0001 C.ar    1  LIG1       -0.0077
      3 C           2.0548    3.1108   -0.0000 C.ar    1  LIG1        0.0734
      4 C           0.8254    3.7540   -0.0001 C.ar    1  LIG1        0.1850
      5 O          -0.1776    2.8328   -0.0001 O.2     1  LIG1       -0.4586
      6 H          -0.2789    0.7611   -0.0001 H       1  LIG1        0.1030
      7 H           2.4752    0.8971   -0.0001 H       1  LIG1        0.0661
      8 C           3.3353    3.7126    0.0001 C.1     1  LIG1       -0.0658
      9 C           4.4365    4.2171    0.0001 C.1     1  LIG1       -0.1138
     10 H           5.4077    4.6551    0.0000 H       1  LIG1        0.1232
     11 C           0.4629    5.1416   -0.0001 C.ar    1  LIG1        0.1731
     12 C           1.2031    6.2957   -0.0000 C.ar    1  LIG1        0.0035
     13 C           0.2696    7.3807   -0.0001 C.ar    1  LIG1        0.0741
     14 C          -0.9920    6.7986   -0.0001 C.ar    1  LIG1        0.1860
     15 O          -0.8756    5.4434   -0.0001 O.2     1  LIG1       -0.4473
     16 H           2.2791    6.3670    0.0000 H       1  LIG1        0.0669
     17 C           0.5701    8.7644   -0.0001 C.1     1  LIG1       -0.0657
     18 C           0.8366    9.9455   -0.0001 C.1     1  LIG1       -0.1138
     19 H           1.0780   10.9832   -0.0002 H       1  LIG1        0.1232
     20 C          -2.3123    7.3584   -0.0002 C.ar    1  LIG1        0.1721
     21 C          -2.7750    8.6492   -0.0002 C.ar    1  LIG1        0.0027
     22 C          -4.2097    8.5645   -0.0003 C.ar    1  LIG1        0.0630
     23 C          -4.5032    7.2224   -0.0003 C.ar    1  LIG1        0.1081
     24 O          -3.3693    6.4825   -0.0002 O.2     1  LIG1       -0.4585
     25 H          -5.4333    6.6770   -0.0003 H       1  LIG1        0.1042
     26 H          -2.1760    9.5458   -0.0002 H       1  LIG1        0.0669
     27 C          -5.1390    9.6377   -0.0004 C.1     1  LIG1       -0.0665
     28 C          -5.9238   10.5579   -0.0004 C.1     1  LIG1       -0.1138
     29 H          -6.6174   11.3664    0.0000 H       1  LIG1        0.1232
@<TRIPOS>BOND
     1    28    27    3
     2    28    29    1
     3    27    22    1
     4    25    23    1
     5    22    23   ar
     6    22    21   ar
     7    23    24   ar
     8    24    20   ar
     9    19    18    1
    10    21    26    1
    11    21    20   ar
    12    20    14    1
    13    14    15   ar
    14    14    13   ar
    15    15    11   ar
    16     5     4   ar
    17     5     1   ar
    18    13    17    1
    19    13    12   ar
    20     7     2    1
    21    11     4    1
    22    11    12   ar
    23    18    17    3
    24     2     1   ar
    25     2     3   ar
    26     4     3   ar
    27     6     1    1
    28    12    16    1
    29     3     8    1
    30    10     9    1
    31     8     9    3
