@<TRIPOS>MOLECULE
mol_data/opt/b3lyp/geoms/mol2/12ae6fi12da-12da.out
 40 43 0 0 0
SMALL
GASTEIGER

@<TRIPOS>ATOM
      1 C           0.4560    1.5780   -0.4483 C.ar    1  LIG1        0.0938
      2 C           1.7719    1.6578   -0.1452 C.ar    1  LIG1       -0.0078
      3 C           2.0769    3.0561    0.0323 C.ar    1  LIG1        0.0705
      4 C           0.8920    3.7482   -0.1781 C.ar    1  LIG1        0.1552
      5 O          -0.0934    2.8324   -0.4709 O.2     1  LIG1       -0.4615
      6 H          -0.2182    0.7654   -0.6652 H       1  LIG1        0.1030
      7 H           2.4718    0.8412   -0.0538 H       1  LIG1        0.0661
      8 C           3.3616    3.5654    0.3437 C.1     1  LIG1       -0.0659
      9 C           4.4789    3.9493    0.6094 C.1     1  LIG1       -0.1138
     10 H           5.4614    4.2953    0.8342 H       1  LIG1        0.1232
     11 C          -0.7701    5.6356   -0.5627 C.ar    1  LIG1        0.2239
     12 C           0.5131    5.1519   -0.1556 C.ar    1  LIG1        0.0800
     13 C           1.4185    6.1228    0.2907 C.ar    1  LIG1       -0.0409
     14 C           1.1142    7.4850    0.3066 C.ar    1  LIG1       -0.0205
     15 C          -0.1656    7.8303   -0.1728 C.ar    1  LIG1        0.1140
     16 N          -1.0723    6.9207   -0.5686 N.ar    1  LIG1       -0.2090
     17 H           2.3891    5.8032    0.6517 H       1  LIG1        0.0630
     18 O          -1.7720    4.8346   -0.9780 O.3     1  LIG1       -0.4919
     19 H          -1.4894    3.9084   -0.9309 H       1  LIG1        0.2938
     20 C           2.1163    8.4653    0.8660 C.3     1  LIG1       -0.0376
     21 H           1.6262    9.3065    1.3634 H       1  LIG1        0.0278
     22 H           2.7627    8.8819    0.0874 H       1  LIG1        0.0278
     23 H           2.7571    7.9687    1.5998 H       1  LIG1        0.0278
     24 C          -0.6482    9.2165   -0.2601 C.ar    1  LIG1        0.1716
     25 C          -0.1089   10.4128   -0.7120 C.ar    1  LIG1        0.0996
     26 C          -1.1357   11.4034   -0.6057 C.ar    1  LIG1        0.0054
     27 C          -2.2303   10.7504   -0.1034 C.ar    1  LIG1        0.1732
     28 O          -1.9385    9.4307    0.1018 O.2     1  LIG1       -0.4488
     29 N           2.2258   10.7965   -1.7505 N.1     1  LIG1       -0.1907
     30 C           1.1775   10.6167   -1.2782 C.1     1  LIG1        0.1030
     31 H          -1.0637   12.4447   -0.8808 H       1  LIG1        0.0670
     32 C          -3.5553   11.1923    0.2316 C.ar    1  LIG1        0.1870
     33 C          -4.1678   12.4341    0.1724 C.ar    1  LIG1        0.1004
     34 C          -5.5142   12.2421    0.6387 C.ar    1  LIG1       -0.0057
     35 C          -5.6185   10.9237    0.9426 C.ar    1  LIG1        0.0940
     36 O          -4.4385   10.2772    0.7007 O.2     1  LIG1       -0.4585
     37 H          -6.4180   10.3082    1.3219 H       1  LIG1        0.1030
     38 N          -3.0529   14.6216   -0.6248 N.1     1  LIG1       -0.1907
     39 C          -3.5660   13.6403   -0.2637 C.1     1  LIG1        0.1031
     40 H          -6.2783   12.9993    0.7254 H       1  LIG1        0.0662
@<TRIPOS>BOND
     1    29    30    3
     2    30    25    1
     3    18    19    1
     4    18    11    1
     5    31    26    1
     6    25    26   ar
     7    25    24   ar
     8     6     1    1
     9    38    39    3
    10    26    27   ar
    11    16    11   ar
    12    16    15   ar
    13    11    12   ar
    14     5     1   ar
    15     5     4   ar
    16     1     2   ar
    17    39    33    1
    18    24    15    1
    19    24    28   ar
    20     4    12    1
    21     4     3   ar
    22    15    14   ar
    23    12    13   ar
    24     2     7    1
    25     2     3   ar
    26    27    28   ar
    27    27    32    1
    28     3     8    1
    29    22    20    1
    30    33    32   ar
    31    33    34   ar
    32    32    36   ar
    33    13    14   ar
    34    13    17    1
    35    14    20    1
    36     8     9    3
    37     9    10    1
    38    34    40    1
    39    34    35   ar
    40    36    35   ar
    41    20    21    1
    42    20    23    1
    43    35    37    1
