@<TRIPOS>MOLECULE
mol_data/opt/b3lyp/geoms/mol2/12af12af-12af-12af-.out
 34 37 0 0 0
SMALL
GASTEIGER

@<TRIPOS>ATOM
      1 C          -0.0956    1.6582   -0.0000 C.ar    1  LIG1        0.0964
      2 C           1.2665    1.6374   -0.0001 C.ar    1  LIG1        0.0185
      3 C           1.6777    3.0055   -0.0001 C.ar    1  LIG1        0.1657
      4 C           0.5234    3.7649   -0.0001 C.ar    1  LIG1        0.2109
      5 O          -0.5721    2.9331   -0.0001 O.2     1  LIG1       -0.4560
      6 H          -0.8423    0.8797    0.0000 H       1  LIG1        0.1031
      7 H           1.9113    0.7716   -0.0001 H       1  LIG1        0.0686
      8 O           2.9637    3.4156   -0.0000 O.3     1  LIG1       -0.5031
      9 H           2.9854    4.3863   -0.0000 H       1  LIG1        0.2923
     10 C           0.3361    5.1780   -0.0001 C.ar    1  LIG1        0.1780
     11 C          -0.7496    6.0217   -0.0001 C.ar    1  LIG1        0.0298
     12 C          -0.2169    7.3418   -0.0001 C.ar    1  LIG1        0.1665
     13 C           1.1586    7.2450   -0.0001 C.ar    1  LIG1        0.2119
     14 O           1.4972    5.9052   -0.0001 O.2     1  LIG1       -0.4447
     15 H          -1.7886    5.7258   -0.0001 H       1  LIG1        0.0693
     16 O          -0.8809    8.5300   -0.0001 O.3     1  LIG1       -0.5031
     17 H          -1.8308    8.3590   -0.0001 H       1  LIG1        0.2923
     18 C           2.2046    8.2139   -0.0001 C.ar    1  LIG1        0.1780
     19 C           2.1901    9.5927   -0.0002 C.ar    1  LIG1        0.0298
     20 C           3.5536    9.9904   -0.0002 C.ar    1  LIG1        0.1665
     21 C           4.3244    8.8462   -0.0001 C.ar    1  LIG1        0.2119
     22 O           3.4880    7.7522   -0.0001 O.2     1  LIG1       -0.4447
     23 H           1.3098   10.2188   -0.0002 H       1  LIG1        0.0693
     24 O           4.0771   11.2489   -0.0002 O.3     1  LIG1       -0.5031
     25 H           3.3531   11.8870   -0.0002 H       1  LIG1        0.2923
     26 C           5.7406    8.6420   -0.0001 C.ar    1  LIG1        0.1770
     27 C           6.7926    9.5295   -0.0002 C.ar    1  LIG1        0.0290
     28 C           7.9743    8.7263   -0.0001 C.ar    1  LIG1        0.1551
     29 C           7.5759    7.4197   -0.0001 C.ar    1  LIG1        0.1340
     30 O           6.2028    7.3609   -0.0001 O.2     1  LIG1       -0.4560
     31 H           8.1037    6.4818   -0.0000 H       1  LIG1        0.1068
     32 H           6.7153   10.6070   -0.0002 H       1  LIG1        0.0693
     33 O           9.2741    9.1411   -0.0001 O.3     1  LIG1       -0.5036
     34 H           9.2863   10.1057   -0.0002 H       1  LIG1        0.2923
@<TRIPOS>BOND
     1    32    27    1
     2    34    33    1
     3    27    26   ar
     4    27    28   ar
     5    23    19    1
     6    25    24    1
     7    19    20   ar
     8    19    18   ar
     9    24    20    1
    10    20    21   ar
    11    21    26    1
    12    21    22   ar
    13    26    30   ar
    14    33    28    1
    15    18    22   ar
    16    18    13    1
    17    28    29   ar
    18    13    14   ar
    19    13    12   ar
    20     5     4   ar
    21     5     1   ar
    22    14    10   ar
    23    30    29   ar
    24    10    11   ar
    25    10     4    1
    26    12    11   ar
    27    12    16    1
    28    11    15    1
    29     4     3   ar
    30    16    17    1
    31    29    31    1
    32     2     7    1
    33     2     3   ar
    34     2     1   ar
    35     3     8    1
    36     9     8    1
    37     1     6    1
