@<TRIPOS>MOLECULE
mol_data/opt/b3lyp/geoms/mol2/12af12af12af12af-.out
 34 37 0 0 0
SMALL
GASTEIGER

@<TRIPOS>ATOM
      1 C           0.7416    1.6325   -0.0001 C.ar    1  LIG1        0.0964
      2 C           2.0931    1.8008    0.0000 C.ar    1  LIG1        0.0185
      3 C           2.3054    3.2110   -0.0000 C.ar    1  LIG1        0.1657
      4 C           1.0599    3.8102   -0.0001 C.ar    1  LIG1        0.2109
      5 O           0.0971    2.8261   -0.0001 O.2     1  LIG1       -0.4560
      6 H           0.1096    0.7583   -0.0002 H       1  LIG1        0.1031
      7 H           2.8556    1.0368    0.0001 H       1  LIG1        0.0686
      8 O           3.5418    3.7706    0.0000 O.3     1  LIG1       -0.5031
      9 H           3.4682    4.7327   -0.0000 H       1  LIG1        0.2923
     10 C           0.6318    5.1781   -0.0001 C.ar    1  LIG1        0.1780
     11 C           1.3180    6.3743   -0.0001 C.ar    1  LIG1        0.0298
     12 C           0.3321    7.3946   -0.0001 C.ar    1  LIG1        0.1665
     13 C          -0.9038    6.7747   -0.0002 C.ar    1  LIG1        0.2119
     14 O          -0.7094    5.4095   -0.0001 O.2     1  LIG1       -0.4447
     15 H           2.3838    6.5488   -0.0000 H       1  LIG1        0.0693
     16 O           0.6419    8.7152   -0.0001 O.3     1  LIG1       -0.5031
     17 H          -0.1665    9.2424   -0.0002 H       1  LIG1        0.2923
     18 C          -2.2458    7.2683   -0.0002 C.ar    1  LIG1        0.1780
     19 C          -2.7780    8.5429   -0.0002 C.ar    1  LIG1        0.0298
     20 C          -4.1893    8.3821   -0.0002 C.ar    1  LIG1        0.1665
     21 C          -4.4420    7.0255   -0.0003 C.ar    1  LIG1        0.2119
     22 O          -3.2477    6.3417   -0.0003 O.2     1  LIG1       -0.4447
     23 H          -2.2639    9.4930   -0.0001 H       1  LIG1        0.0693
     24 O          -5.0782    9.4015   -0.0003 O.3     1  LIG1       -0.5031
     25 H          -5.9701    9.0192   -0.0003 H       1  LIG1        0.2923
     26 C          -5.6684    6.2960   -0.0003 C.ar    1  LIG1        0.1770
     27 C          -6.0025    4.9661   -0.0003 C.ar    1  LIG1        0.0290
     28 C          -7.4346    4.9230   -0.0003 C.ar    1  LIG1        0.1551
     29 C          -7.8871    6.2097   -0.0004 C.ar    1  LIG1        0.1340
     30 O          -6.8027    7.0676   -0.0004 O.2     1  LIG1       -0.4560
     31 H          -8.8649    6.6584   -0.0004 H       1  LIG1        0.1068
     32 H          -5.3131    4.1344   -0.0002 H       1  LIG1        0.0693
     33 O          -8.2376    3.8233   -0.0003 O.3     1  LIG1       -0.5036
     34 H          -7.6815    3.0350   -0.0003 H       1  LIG1        0.2923
@<TRIPOS>BOND
     1    31    29    1
     2    29    30   ar
     3    29    28   ar
     4    30    26   ar
     5    28    33    1
     6    28    27   ar
     7    33    34    1
     8    26    27   ar
     9    26    21    1
    10    25    24    1
    11    27    32    1
    12    21    22   ar
    13    21    20   ar
    14    24    20    1
    15    22    18   ar
    16    20    19   ar
    17    19    18   ar
    18    19    23    1
    19    18    13    1
    20     6     1    1
    21    13    14   ar
    22    13    12   ar
    23    17    16    1
    24    14    10   ar
    25    16    12    1
    26     1     5   ar
    27     1     2   ar
    28    12    11   ar
    29    10    11   ar
    30    10     4    1
    31    11    15    1
    32     5     4   ar
    33     4     3   ar
    34     9     8    1
    35     3     8    1
    36     3     2   ar
    37     2     7    1
