@<TRIPOS>MOLECULE
mol_data/opt/b3lyp/geoms/mol2/12af12af12af12af.out
 34 37 0 0 0
SMALL
GASTEIGER

@<TRIPOS>ATOM
      1 C           0.7711    1.6311    0.0001 C.ar    1  LIG1        0.0964
      2 C           2.1218    1.8084   -0.0001 C.ar    1  LIG1        0.0185
      3 C           2.3241    3.2200   -0.0000 C.ar    1  LIG1        0.1657
      4 C           1.0744    3.8104   -0.0001 C.ar    1  LIG1        0.2109
      5 O           0.1190    2.8199   -0.0001 O.2     1  LIG1       -0.4560
      6 H           0.1448    0.7528    0.0001 H       1  LIG1        0.1031
      7 H           2.8893    1.0496   -0.0001 H       1  LIG1        0.0686
      8 O           3.5567    3.7887   -0.0000 O.3     1  LIG1       -0.5031
      9 H           3.4753    4.7502   -0.0000 H       1  LIG1        0.2923
     10 C           0.6366    5.1753   -0.0001 C.ar    1  LIG1        0.1780
     11 C           1.3152    6.3760   -0.0001 C.ar    1  LIG1        0.0298
     12 C           0.3222    7.3893   -0.0001 C.ar    1  LIG1        0.1665
     13 C          -0.9093    6.7607   -0.0001 C.ar    1  LIG1        0.2119
     14 O          -0.7055    5.3975   -0.0001 O.2     1  LIG1       -0.4447
     15 H           2.3799    6.5577   -0.0000 H       1  LIG1        0.0693
     16 O           0.6230    8.7124   -0.0001 O.3     1  LIG1       -0.5031
     17 H          -0.1894    9.2333   -0.0001 H       1  LIG1        0.2923
     18 C          -2.2543    7.2477   -0.0002 C.ar    1  LIG1        0.1780
     19 C          -2.7893    8.5200   -0.0002 C.ar    1  LIG1        0.0298
     20 C          -4.1986    8.3537   -0.0002 C.ar    1  LIG1        0.1665
     21 C          -4.4549    6.9968   -0.0003 C.ar    1  LIG1        0.2119
     22 O          -3.2527    6.3226   -0.0002 O.2     1  LIG1       -0.4447
     23 H          -2.2824    9.4740   -0.0001 H       1  LIG1        0.0693
     24 O          -5.0627    9.4010   -0.0002 O.3     1  LIG1       -0.5031
     25 H          -5.9705    9.0736   -0.0003 H       1  LIG1        0.2923
     26 C          -5.6665    6.2294   -0.0003 C.ar    1  LIG1        0.1770
     27 C          -6.9981    6.5827   -0.0003 C.ar    1  LIG1        0.0290
     28 C          -7.7286    5.3563   -0.0004 C.ar    1  LIG1        0.1551
     29 C          -6.8132    4.3427   -0.0004 C.ar    1  LIG1        0.1340
     30 O          -5.5449    4.8733   -0.0004 O.2     1  LIG1       -0.4560
     31 H          -6.8830    3.2674   -0.0004 H       1  LIG1        0.1068
     32 H          -7.4432    7.5672   -0.0003 H       1  LIG1        0.0693
     33 O          -9.0899    5.3116   -0.0004 O.3     1  LIG1       -0.5036
     34 H          -9.3758    4.3891   -0.0004 H       1  LIG1        0.2923
@<TRIPOS>BOND
     1    34    33    1
     2    31    29    1
     3    33    28    1
     4    29    30   ar
     5    29    28   ar
     6    30    26   ar
     7    28    27   ar
     8    27    26   ar
     9    27    32    1
    10    26    21    1
    11    25    24    1
    12    21    22   ar
    13    21    20   ar
    14    22    18   ar
    15    24    20    1
    16    20    19   ar
    17    18    19   ar
    18    18    13    1
    19    19    23    1
    20    13    14   ar
    21    13    12   ar
    22    14    10   ar
    23    17    16    1
    24    12    16    1
    25    12    11   ar
    26     5     4   ar
    27     5     1   ar
    28    10     4    1
    29    10    11   ar
    30     7     2    1
    31     4     3   ar
    32    11    15    1
    33     2     3   ar
    34     2     1   ar
    35     3     8    1
    36     8     9    1
    37     1     6    1
