@<TRIPOS>MOLECULE
mol_data/opt/b3lyp/geoms/mol2/12af12id-13fe4fd-.out
 44 47 0 0 0
SMALL
GASTEIGER

@<TRIPOS>ATOM
      1 C           0.5582    1.8224    1.0953 C.ar    1  LIG1        0.0964
      2 C           1.6145    1.7661    0.2374 C.ar    1  LIG1        0.0185
      3 C           1.7842    3.0989   -0.2469 C.ar    1  LIG1        0.1657
      4 C           0.8307    3.8814    0.3638 C.ar    1  LIG1        0.2110
      5 O           0.0649    3.0827    1.1926 O.2     1  LIG1       -0.4560
      6 H           0.0544    1.0737    1.6868 H       1  LIG1        0.1031
      7 H           2.1950    0.8993   -0.0398 H       1  LIG1        0.0686
      8 O           2.7240    3.4567   -1.1592 O.3     1  LIG1       -0.5031
      9 H           2.5385    4.3587   -1.4576 H       1  LIG1        0.2923
     10 C           0.5363    5.2867    0.2731 C.ar    1  LIG1        0.1784
     11 C           1.3247    6.4053    0.2310 C.ar    1  LIG1        0.0166
     12 C           0.4252    7.5253    0.0626 C.ar    1  LIG1        0.1026
     13 C          -0.8623    7.0086    0.0378 C.ar    1  LIG1        0.1731
     14 O          -0.7964    5.6517    0.1530 O.2     1  LIG1       -0.4484
     15 C           2.8112    6.5008    0.3876 C.3     1  LIG1       -0.0348
     16 H           3.0682    7.2037    1.1867 H       1  LIG1        0.0279
     17 H           3.2912    6.8771   -0.5235 H       1  LIG1        0.0279
     18 H           3.2469    5.5298    0.6324 H       1  LIG1        0.0279
     19 N           1.3153    9.9439   -0.0507 N.1     1  LIG1       -0.1907
     20 C           0.8607    8.8723   -0.0068 C.1     1  LIG1        0.1033
     21 C          -2.1883    7.5336   -0.0635 C.ar    1  LIG1        0.1271
     22 C          -2.7030    8.8145   -0.2439 C.ar    1  LIG1        0.1611
     23 C          -4.1272    8.7331   -0.2443 C.ar    1  LIG1        0.0921
     24 C          -4.4609    7.3795   -0.0655 C.ar    1  LIG1        0.0698
     25 N          -3.2877    6.6865    0.0208 N.ar    1  LIG1       -0.3477
     26 H          -3.2084    5.7092    0.2572 H       1  LIG1        0.1661
     27 O          -1.9655    9.9271   -0.4147 O.3     1  LIG1       -0.5034
     28 H          -2.5687   10.6780   -0.5310 H       1  LIG1        0.2923
     29 C          -4.9457    9.8596   -0.4941 C.1     1  LIG1       -0.0638
     30 C          -5.5392   10.8898   -0.7308 C.1     1  LIG1       -0.1137
     31 H          -6.0936   11.7747   -0.9421 H       1  LIG1        0.1232
     32 C          -6.8625    7.1682    0.6710 C.ar    1  LIG1        0.1260
     33 C          -8.0732    6.4656    0.6657 C.ar    1  LIG1       -0.0183
     34 C          -5.7463    6.6769   -0.0482 C.ar    1  LIG1        0.0422
     35 C          -8.1962    5.2659   -0.0218 C.ar    1  LIG1       -0.0409
     36 H          -8.9194    6.8586    1.2239 H       1  LIG1        0.0655
     37 C          -5.8883    5.4641   -0.7332 C.ar    1  LIG1       -0.0317
     38 C          -7.0954    4.7497   -0.7239 C.ar    1  LIG1        0.0526
     39 H          -5.0532    5.0814   -1.3102 H       1  LIG1        0.0638
     40 H          -9.1364    4.7259   -0.0170 H       1  LIG1        0.0631
     41 O          -6.6984    8.3118    1.3767 O.3     1  LIG1       -0.5061
     42 H          -7.5341    8.5662    1.7906 H       1  LIG1        0.2922
     43 N          -7.2945    2.5065   -2.0145 N.1     1  LIG1       -0.1909
     44 C          -7.2053    3.5134   -1.4381 C.1     1  LIG1        0.0992
@<TRIPOS>BOND
     1    43    44    3
     2     9     8    1
     3    44    38    1
     4    39    37    1
     5     8     3    1
     6    31    30    1
     7    37    38   ar
     8    37    34   ar
     9    30    29    3
    10    38    35   ar
    11    28    27    1
    12    17    15    1
    13    29    23    1
    14    27    22    1
    15     3     2   ar
    16     3     4   ar
    17    23    22   ar
    18    23    24   ar
    19    22    21   ar
    20    24    34    1
    21    24    25   ar
    22    21    25   ar
    23    21    13    1
    24    19    20    3
    25    34    32   ar
    26     7     2    1
    27    35    40    1
    28    35    33   ar
    29    20    12    1
    30    25    26    1
    31    13    12   ar
    32    13    14   ar
    33    12    11   ar
    34    14    10   ar
    35    11    10   ar
    36    11    15    1
    37     2     1   ar
    38    10     4    1
    39     4     5   ar
    40    15    18    1
    41    15    16    1
    42    33    32   ar
    43    33    36    1
    44    32    41    1
    45     1     5   ar
    46     1     6    1
    47    41    42    1
