@<TRIPOS>MOLECULE
mol_data/opt/b3lyp/geoms/mol2/12af12af12af.out
 26 28 0 0 0
SMALL
GASTEIGER

@<TRIPOS>ATOM
      1 C           0.4289    1.6364   -0.0000 C.ar    1  LIG1        0.0964
      2 C           1.7862    1.7503   -0.0000 C.ar    1  LIG1        0.0185
      3 C           2.0546    3.1511   -0.0000 C.ar    1  LIG1        0.1657
      4 C           0.8346    3.7995   -0.0001 C.ar    1  LIG1        0.2109
      5 O          -0.1666    2.8551   -0.0001 O.2     1  LIG1       -0.4560
      6 H          -0.2381    0.7885   -0.0000 H       1  LIG1        0.1031
      7 H           2.5174    0.9562   -0.0000 H       1  LIG1        0.0686
      8 O           3.3129    3.6617   -0.0000 O.3     1  LIG1       -0.5031
      9 H           3.2757    4.6259   -0.0000 H       1  LIG1        0.2923
     10 C           0.4622    5.1845   -0.0001 C.ar    1  LIG1        0.1780
     11 C           1.1960    6.3512   -0.0001 C.ar    1  LIG1        0.0298
     12 C           0.2506    7.4110   -0.0001 C.ar    1  LIG1        0.1665
     13 C          -1.0070    6.8418   -0.0002 C.ar    1  LIG1        0.2119
     14 O          -0.8683    5.4704   -0.0001 O.2     1  LIG1       -0.4447
     15 H           2.2680    6.4830    0.0000 H       1  LIG1        0.0693
     16 O           0.6134    8.7193   -0.0001 O.3     1  LIG1       -0.5031
     17 H          -0.1748    9.2761   -0.0001 H       1  LIG1        0.2923
     18 C          -2.3319    7.3923   -0.0002 C.ar    1  LIG1        0.1770
     19 C          -2.8078    8.6847   -0.0002 C.ar    1  LIG1        0.0290
     20 C          -4.2315    8.5780   -0.0003 C.ar    1  LIG1        0.1551
     21 C          -4.5350    7.2465   -0.0003 C.ar    1  LIG1        0.1340
     22 O          -3.3717    6.5134   -0.0003 O.2     1  LIG1       -0.4560
     23 H          -5.4552    6.6856   -0.0003 H       1  LIG1        0.1068
     24 H          -2.2577    9.6145   -0.0001 H       1  LIG1        0.0693
     25 O          -5.0499    9.6665   -0.0003 O.3     1  LIG1       -0.5036
     26 H          -5.9694    9.3709   -0.0003 H       1  LIG1        0.2923
@<TRIPOS>BOND
     1    23    21    1
     2    21    22   ar
     3    21    20   ar
     4    26    25    1
     5    22    18   ar
     6    25    20    1
     7    20    19   ar
     8    18    19   ar
     9    18    13    1
    10    19    24    1
    11    13    14   ar
    12    13    12   ar
    13    14    10   ar
    14    17    16    1
    15    12    16    1
    16    12    11   ar
    17     5     4   ar
    18     5     1   ar
    19    10     4    1
    20    10    11   ar
    21     4     3   ar
    22    11    15    1
    23     2     3   ar
    24     2     7    1
    25     2     1   ar
    26     3     8    1
    27     1     6    1
    28     9     8    1
