@<TRIPOS>MOLECULE
mol_data/opt/b3lyp/geoms/mol2/12af6ea13da4ff.out
 42 45 0 0 0
SMALL
GASTEIGER

@<TRIPOS>ATOM
      1 C           0.5133    1.6421   -0.7655 C.ar    1  LIG1        0.0962
      2 C           1.6579    1.6511   -0.0269 C.ar    1  LIG1        0.0184
      3 C           1.8556    3.0123    0.3497 C.ar    1  LIG1        0.1627
      4 C           0.8171    3.7474   -0.1879 C.ar    1  LIG1        0.1786
      5 O          -0.0140    2.8855   -0.8704 O.2     1  LIG1       -0.4591
      6 H          -0.0321    0.8569   -1.2654 H       1  LIG1        0.1031
      7 H           2.2861    0.8123    0.2320 H       1  LIG1        0.0686
      8 O           2.8956    3.4272    1.1215 O.3     1  LIG1       -0.5032
      9 H           2.7036    4.3097    1.4677 H       1  LIG1        0.2923
     10 C          -0.7886    5.7195   -0.1362 C.ar    1  LIG1        0.1246
     11 C           0.5244    5.1682   -0.1536 C.ar    1  LIG1        0.0547
     12 C           1.5874    6.0931   -0.1176 C.ar    1  LIG1       -0.0462
     13 C           1.3517    7.4556   -0.0545 C.ar    1  LIG1       -0.0335
     14 C           0.0185    7.9016   -0.0500 C.ar    1  LIG1        0.0898
     15 N          -1.0155    7.0414   -0.0968 N.ar    1  LIG1       -0.2362
     16 H           2.6095    5.7315   -0.1827 H       1  LIG1        0.0626
     17 C          -1.9638    4.8976   -0.1314 C.1     1  LIG1       -0.0491
     18 C          -2.9790    4.2419   -0.1018 C.1     1  LIG1       -0.1124
     19 H          -3.8641    3.6489   -0.0849 H       1  LIG1        0.1232
     20 H           2.1754    8.1589   -0.0347 H       1  LIG1        0.0640
     21 C          -0.3615    9.3080   -0.0010 C.ar    1  LIG1        0.0830
     22 C           0.3510   10.5175    0.0522 C.ar    1  LIG1        0.0790
     23 C          -0.5983   11.5762    0.0503 C.ar    1  LIG1       -0.0182
     24 C          -1.8661   11.0086    0.0067 C.ar    1  LIG1        0.0518
     25 N          -1.6835    9.6417   -0.0207 N.ar    1  LIG1       -0.3518
     26 H          -2.3850    8.9203   -0.1172 H       1  LIG1        0.1660
     27 N           2.9195   10.7820    0.1448 N.1     1  LIG1       -0.1908
     28 C           1.7605   10.6666    0.1022 C.1     1  LIG1        0.1013
     29 H          -0.3790   12.6295    0.0873 H       1  LIG1        0.0652
     30 C          -3.4299   12.9419   -0.3509 C.ar    1  LIG1        0.1262
     31 C          -4.7278   13.4583   -0.3531 C.ar    1  LIG1       -0.0161
     32 C          -3.2040   11.5993    0.0200 C.ar    1  LIG1        0.0432
     33 C          -5.8190   12.6760    0.0090 C.ar    1  LIG1       -0.0167
     34 H          -4.8854   14.4936   -0.6477 H       1  LIG1        0.0655
     35 C          -4.3200   10.8270    0.3972 C.ar    1  LIG1       -0.0076
     36 C          -5.6120   11.3482    0.3915 C.ar    1  LIG1        0.1177
     37 H          -4.1705    9.8047    0.7360 H       1  LIG1        0.0662
     38 H          -6.8251   13.0799    0.0084 H       1  LIG1        0.0655
     39 O          -2.3519   13.7084   -0.7091 O.3     1  LIG1       -0.5061
     40 H          -2.6636   14.5833   -0.9740 H       1  LIG1        0.2922
     41 O          -6.7104   10.6179    0.7586 O.3     1  LIG1       -0.5067
     42 H          -6.4336    9.7247    1.0006 H       1  LIG1        0.2921
@<TRIPOS>BOND
     1     6     1    1
     2    40    39    1
     3     5     1   ar
     4     5     4   ar
     5     1     2   ar
     6    39    30    1
     7    34    31    1
     8    31    30   ar
     9    31    33   ar
    10    30    32   ar
    11     4    11    1
    12     4     3   ar
    13    16    12    1
    14    11    10   ar
    15    11    12   ar
    16    10    17    1
    17    10    15   ar
    18    17    18    3
    19    12    13   ar
    20    26    25    1
    21    18    19    1
    22    15    14   ar
    23    13    14   ar
    24    13    20    1
    25    14    21    1
    26     2     7    1
    27     2     3   ar
    28    25    21   ar
    29    25    24   ar
    30    21    22   ar
    31    24    32    1
    32    24    23   ar
    33    38    33    1
    34    33    36   ar
    35    32    35   ar
    36    23    22   ar
    37    23    29    1
    38    22    28    1
    39    28    27    3
    40     3     8    1
    41    36    35   ar
    42    36    41    1
    43    35    37    1
    44    41    42    1
    45     8     9    1
