@<TRIPOS>MOLECULE
mol_data/opt/b3lyp/geoms/mol2/12af12ad-13ld-12ad-.out
 39 42 0 0 0
SMALL
GASTEIGER

@<TRIPOS>ATOM
      1 C           0.4634    1.3260    0.5390 C.ar    1  LIG1        0.0964
      2 C           1.7069    1.3407   -0.0172 C.ar    1  LIG1        0.0185
      3 C           2.0055    2.7164   -0.2524 C.ar    1  LIG1        0.1657
      4 C           0.9228    3.4460    0.1891 C.ar    1  LIG1        0.2108
      5 O          -0.0360    2.5825    0.6721 O.2     1  LIG1       -0.4560
      6 H          -0.1791    0.5283    0.8776 H       1  LIG1        0.1031
      7 H           2.3373    0.4951   -0.2468 H       1  LIG1        0.0686
      8 O           3.1510    3.1599   -0.8252 O.3     1  LIG1       -0.5031
      9 H           3.0329    4.0828   -1.0949 H       1  LIG1        0.2923
     10 C           0.6889    4.8591    0.2179 C.ar    1  LIG1        0.1756
     11 C           1.5330    5.9344    0.2636 C.ar    1  LIG1        0.0055
     12 C           0.7168    7.1153    0.1779 C.ar    1  LIG1        0.0997
     13 C          -0.5989    6.6761    0.1046 C.ar    1  LIG1        0.1728
     14 O          -0.6103    5.3063    0.1164 O.2     1  LIG1       -0.4487
     15 H           2.6032    5.9175    0.4081 H       1  LIG1        0.0670
     16 N           1.7426    9.4834    0.2278 N.1     1  LIG1       -0.1907
     17 C           1.2337    8.4366    0.2024 C.1     1  LIG1        0.1030
     18 C          -1.8961    7.2720    0.0356 C.ar    1  LIG1        0.1274
     19 C          -2.3197    8.6045   -0.0196 C.ar    1  LIG1        0.1663
     20 C          -3.7482    8.6019   -0.0772 C.ar    1  LIG1        0.1222
     21 C          -4.1554    7.2503   -0.0560 C.ar    1  LIG1        0.1039
     22 N          -3.0362    6.4859    0.0081 N.ar    1  LIG1       -0.3453
     23 H          -3.0271    5.4772    0.0416 H       1  LIG1        0.1662
     24 O          -1.4316    9.6048   -0.0202 O.3     1  LIG1       -0.4916
     25 C          -1.8772   10.9646   -0.0127 C.3     1  LIG1        0.0789
     26 H          -0.9654   11.5599    0.0186 H       1  LIG1        0.0660
     27 H          -2.4447   11.1982   -0.9183 H       1  LIG1        0.0660
     28 H          -2.4890   11.1733    0.8702 H       1  LIG1        0.0660
     29 N          -5.4336   10.5514   -0.2102 N.1     1  LIG1       -0.1907
     30 C          -4.6488    9.6917   -0.1494 C.1     1  LIG1        0.1051
     31 C          -5.4694    6.6718   -0.0909 C.ar    1  LIG1        0.1535
     32 C          -6.7401    7.1774   -0.1556 C.ar    1  LIG1        0.0031
     33 C          -7.6167    6.0390   -0.1577 C.ar    1  LIG1        0.0900
     34 C          -6.8174    4.9272   -0.0944 C.ar    1  LIG1        0.1100
     35 O          -5.5154    5.2935   -0.0535 O.2     1  LIG1       -0.4601
     36 H          -7.0282    3.8701   -0.0725 H       1  LIG1        0.1043
     37 H          -7.0254    8.2171   -0.1966 H       1  LIG1        0.0669
     38 N         -10.2001    6.0446   -0.2598 N.1     1  LIG1       -0.1908
     39 C          -9.0380    6.0421   -0.2139 C.1     1  LIG1        0.1023
@<TRIPOS>BOND
     1     9     8    1
     2    27    25    1
     3     8     3    1
     4    38    39    3
     5     3     2   ar
     6     3     4   ar
     7     7     2    1
     8    39    33    1
     9    29    30    3
    10    37    32    1
    11    33    32   ar
    12    33    34   ar
    13    32    31   ar
    14    30    20    1
    15    34    36    1
    16    34    35   ar
    17    31    21    1
    18    31    35   ar
    19    20    21   ar
    20    20    19   ar
    21    21    22   ar
    22    24    19    1
    23    24    25    1
    24    19    18   ar
    25     2     1   ar
    26    25    26    1
    27    25    28    1
    28    22    18   ar
    29    22    23    1
    30    18    13    1
    31    13    14   ar
    32    13    12   ar
    33    14    10   ar
    34    12    17    1
    35    12    11   ar
    36     4    10    1
    37     4     5   ar
    38    17    16    3
    39    10    11   ar
    40    11    15    1
    41     1     5   ar
    42     1     6    1
