@<TRIPOS>MOLECULE
mol_data/opt/b3lyp/geoms/mol2/12af12af-12af12af.out
 34 37 0 0 0
SMALL
GASTEIGER

@<TRIPOS>ATOM
      1 C           0.3191    1.6174   -0.0000 C.ar    1  LIG1        0.0964
      2 C           1.6783    1.7105   -0.0001 C.ar    1  LIG1        0.0185
      3 C           1.9713    3.1080   -0.0001 C.ar    1  LIG1        0.1657
      4 C           0.7596    3.7696   -0.0001 C.ar    1  LIG1        0.2109
      5 O          -0.2617    2.8479   -0.0001 O.2     1  LIG1       -0.4560
      6 H          -0.3598    0.7793    0.0000 H       1  LIG1        0.1031
      7 H           2.3934    0.9018   -0.0001 H       1  LIG1        0.0686
      8 O           3.2182    3.6310   -0.0001 O.3     1  LIG1       -0.5031
      9 H           3.1402    4.5975   -0.0001 H       1  LIG1        0.2923
     10 C           0.4425    5.1605   -0.0001 C.ar    1  LIG1        0.1780
     11 C          -0.7243    5.8831   -0.0001 C.ar    1  LIG1        0.0298
     12 C          -0.3419    7.2560   -0.0001 C.ar    1  LIG1        0.1665
     13 C           1.0374    7.3086   -0.0001 C.ar    1  LIG1        0.2119
     14 O           1.5206    6.0079   -0.0001 O.2     1  LIG1       -0.4447
     15 H          -1.7256    5.4775   -0.0001 H       1  LIG1        0.0693
     16 O          -1.1467    8.3464   -0.0001 O.3     1  LIG1       -0.5031
     17 H          -2.0667    8.0540   -0.0001 H       1  LIG1        0.2923
     18 C           2.0029    8.3595   -0.0001 C.ar    1  LIG1        0.1780
     19 C           3.3802    8.3512   -0.0000 C.ar    1  LIG1        0.0298
     20 C           3.7756    9.7135   -0.0001 C.ar    1  LIG1        0.1665
     21 C           2.6256   10.4807   -0.0002 C.ar    1  LIG1        0.2119
     22 O           1.5343    9.6388   -0.0002 O.2     1  LIG1       -0.4447
     23 H           4.0351    7.4941    0.0000 H       1  LIG1        0.0693
     24 O           5.0761   10.1053    0.0000 O.3     1  LIG1       -0.5031
     25 H           5.1253   11.0691   -0.0000 H       1  LIG1        0.2923
     26 C           2.3938   11.8958   -0.0002 C.ar    1  LIG1        0.1770
     27 C           3.2405   12.9831   -0.0002 C.ar    1  LIG1        0.0290
     28 C           2.3985   14.1356   -0.0003 C.ar    1  LIG1        0.1551
     29 C           1.1073   13.6909   -0.0003 C.ar    1  LIG1        0.1340
     30 O           1.0984   12.3159   -0.0003 O.2     1  LIG1       -0.4560
     31 H           0.1456   14.1768   -0.0004 H       1  LIG1        0.1068
     32 H           4.3206   13.0070   -0.0002 H       1  LIG1        0.0693
     33 O           2.8907   15.4060   -0.0003 O.3     1  LIG1       -0.5036
     34 H           2.1537   16.0300   -0.0003 H       1  LIG1        0.2923
@<TRIPOS>BOND
     1    31    29    1
     2    34    33    1
     3    29    30   ar
     4    29    28   ar
     5    30    26   ar
     6    33    28    1
     7    28    27   ar
     8    26    27   ar
     9    26    21    1
    10    27    32    1
    11    22    21   ar
    12    22    18   ar
    13    21    20   ar
    14     5     4   ar
    15     5     1   ar
    16    14    13   ar
    17    14    10   ar
    18    13    18    1
    19    13    12   ar
    20     4    10    1
    21     4     3   ar
    22    10    11   ar
    23    18    19   ar
    24     7     2    1
    25     2     3   ar
    26     2     1   ar
    27    11    12   ar
    28    11    15    1
    29    12    16    1
    30     3     8    1
    31    16    17    1
    32    20    19   ar
    33    20    24    1
    34     9     8    1
    35    19    23    1
    36     1     6    1
    37    25    24    1
