@<TRIPOS>MOLECULE
mol_data/opt/b3lyp/geoms/mol2/12af12af-12af12af-.out
 34 37 0 0 0
SMALL
GASTEIGER

@<TRIPOS>ATOM
      1 C           0.2933    1.6232   -0.0000 C.ar    1  LIG1        0.0964
      2 C           1.6533    1.7049   -0.0001 C.ar    1  LIG1        0.0185
      3 C           1.9580    3.0999   -0.0001 C.ar    1  LIG1        0.1657
      4 C           0.7517    3.7716   -0.0001 C.ar    1  LIG1        0.2109
      5 O          -0.2772    2.8584   -0.0001 O.2     1  LIG1       -0.4560
      6 H          -0.3925    0.7907   -0.0000 H       1  LIG1        0.1031
      7 H           2.3617    0.8903   -0.0001 H       1  LIG1        0.0686
      8 O           3.2093    3.6116   -0.0001 O.3     1  LIG1       -0.5031
      9 H           3.1409    4.5789   -0.0001 H       1  LIG1        0.2923
     10 C           0.4456    5.1647   -0.0001 C.ar    1  LIG1        0.1780
     11 C          -0.7159    5.8962   -0.0001 C.ar    1  LIG1        0.0298
     12 C          -0.3229    7.2657   -0.0001 C.ar    1  LIG1        0.1665
     13 C           1.0568    7.3082   -0.0001 C.ar    1  LIG1        0.2119
     14 O           1.5299    6.0044   -0.0001 O.2     1  LIG1       -0.4447
     15 H          -1.7201    5.4980   -0.0001 H       1  LIG1        0.0693
     16 O          -1.1217    8.3627   -0.0000 O.3     1  LIG1       -0.5031
     17 H          -2.0427    8.0731   -0.0000 H       1  LIG1        0.2923
     18 C           2.0278    8.3535   -0.0001 C.ar    1  LIG1        0.1780
     19 C           3.4060    8.3424   -0.0000 C.ar    1  LIG1        0.0298
     20 C           3.8067    9.7047   -0.0001 C.ar    1  LIG1        0.1665
     21 C           2.6553   10.4679   -0.0002 C.ar    1  LIG1        0.2119
     22 O           1.5588    9.6362   -0.0002 O.2     1  LIG1       -0.4447
     23 H           4.0554    7.4809    0.0000 H       1  LIG1        0.0693
     24 O           5.0913   10.1299   -0.0000 O.3     1  LIG1       -0.5031
     25 H           5.0845   11.1002   -0.0001 H       1  LIG1        0.2923
     26 C           2.4605   11.8812   -0.0002 C.ar    1  LIG1        0.1770
     27 C           1.3641   12.7054   -0.0002 C.ar    1  LIG1        0.0290
     28 C           1.8798   14.0419   -0.0003 C.ar    1  LIG1        0.1551
     29 C           3.2412   13.9603   -0.0003 C.ar    1  LIG1        0.1340
     30 O           3.6114   12.6280   -0.0003 O.2     1  LIG1       -0.4560
     31 H           4.0337   14.6877   -0.0003 H       1  LIG1        0.1068
     32 H           0.3304   12.3914   -0.0002 H       1  LIG1        0.0693
     33 O           1.1772   15.2090   -0.0003 O.3     1  LIG1       -0.5036
     34 H           0.2352   15.0009   -0.0003 H       1  LIG1        0.2923
@<TRIPOS>BOND
     1    33    34    1
     2    33    28    1
     3    31    29    1
     4    28    29   ar
     5    28    27   ar
     6    29    30   ar
     7    30    26   ar
     8    27    32    1
     9    27    26   ar
    10    26    21    1
    11    22    21   ar
    12    22    18   ar
    13    21    20   ar
    14     5     4   ar
    15     5     1   ar
    16    14    13   ar
    17    14    10   ar
    18    13    18    1
    19    13    12   ar
    20    18    19   ar
    21     4    10    1
    22     4     3   ar
    23    10    11   ar
    24     7     2    1
    25     2     3   ar
    26     2     1   ar
    27    25    24    1
    28    20    19   ar
    29    20    24    1
    30     3     8    1
    31    12    11   ar
    32    12    16    1
    33    11    15    1
    34     9     8    1
    35    16    17    1
    36    19    23    1
    37     1     6    1
