@<TRIPOS>MOLECULE
mol_data/opt/b3lyp/geoms/mol2/12af12af-12af-12af.out
 34 37 0 0 0
SMALL
GASTEIGER

@<TRIPOS>ATOM
      1 C           0.0385    1.6675    0.0000 C.ar    1  LIG1        0.0964
      2 C           1.4009    1.6793   -0.0001 C.ar    1  LIG1        0.0185
      3 C           1.7782    3.0568   -0.0001 C.ar    1  LIG1        0.1657
      4 C           0.6065    3.7884   -0.0001 C.ar    1  LIG1        0.2109
      5 O          -0.4685    2.9307   -0.0001 O.2     1  LIG1       -0.4560
      6 H          -0.6892    0.8714    0.0001 H       1  LIG1        0.1031
      7 H           2.0661    0.8291   -0.0001 H       1  LIG1        0.0686
      8 O           3.0529    3.5031   -0.0001 O.3     1  LIG1       -0.5031
      9 H           3.0403    4.4738   -0.0001 H       1  LIG1        0.2923
     10 C           0.3877    5.1971   -0.0001 C.ar    1  LIG1        0.1780
     11 C          -0.7162    6.0162   -0.0001 C.ar    1  LIG1        0.0298
     12 C          -0.2136    7.3481   -0.0001 C.ar    1  LIG1        0.1665
     13 C           1.1638    7.2830   -0.0001 C.ar    1  LIG1        0.2119
     14 O           1.5329    5.9508   -0.0001 O.2     1  LIG1       -0.4447
     15 H          -1.7482    5.6969   -0.0001 H       1  LIG1        0.0693
     16 O          -0.9045    8.5204   -0.0001 O.3     1  LIG1       -0.5031
     17 H          -1.8504    8.3281   -0.0001 H       1  LIG1        0.2923
     18 C           2.1843    8.2792   -0.0002 C.ar    1  LIG1        0.1780
     19 C           2.1309    9.6553   -0.0002 C.ar    1  LIG1        0.0298
     20 C           3.4826   10.0993   -0.0002 C.ar    1  LIG1        0.1665
     21 C           4.2874    8.9777   -0.0002 C.ar    1  LIG1        0.2119
     22 O           3.4812    7.8569   -0.0002 O.2     1  LIG1       -0.4447
     23 H           1.2329   10.2558   -0.0002 H       1  LIG1        0.0693
     24 O           3.9445   11.3772   -0.0002 O.3     1  LIG1       -0.5031
     25 H           3.1877   11.9763   -0.0002 H       1  LIG1        0.2923
     26 C           5.7014    8.7556   -0.0002 C.ar    1  LIG1        0.1770
     27 C           6.4536    7.6055   -0.0001 C.ar    1  LIG1        0.0290
     28 C           7.8141    8.0351   -0.0001 C.ar    1  LIG1        0.1551
     29 C           7.8075    9.4023   -0.0002 C.ar    1  LIG1        0.1340
     30 O           6.5092    9.8542   -0.0003 O.2     1  LIG1       -0.4560
     31 H           8.5775   10.1564   -0.0003 H       1  LIG1        0.1068
     32 H           6.0940    6.5885    0.0000 H       1  LIG1        0.0693
     33 O           8.8655    7.1673   -0.0000 O.3     1  LIG1       -0.5036
     34 H           9.6891    7.6716   -0.0000 H       1  LIG1        0.2923
@<TRIPOS>BOND
     1    30    29   ar
     2    30    26   ar
     3    31    29    1
     4    29    28   ar
     5    24    20    1
     6    24    25    1
     7    21    20   ar
     8    21    26    1
     9    21    22   ar
    10    20    19   ar
    11    19    23    1
    12    19    18   ar
    13    26    27   ar
    14    22    18   ar
    15    18    13    1
    16    14    13   ar
    17    14    10   ar
    18    13    12   ar
    19     5     4   ar
    20     5     1   ar
    21    10     4    1
    22    10    11   ar
    23    12    11   ar
    24    12    16    1
    25     4     3   ar
    26    11    15    1
    27    28    27   ar
    28    28    33    1
    29    16    17    1
    30     7     2    1
    31     2     3   ar
    32     2     1   ar
    33    27    32    1
    34     3     8    1
    35     9     8    1
    36    34    33    1
    37     1     6    1
