@<TRIPOS>MOLECULE
mol_data/opt/b3lyp/geoms/mol2/12af12af-12af.out
 26 28 0 0 0
SMALL
GASTEIGER

@<TRIPOS>ATOM
      1 C           0.2338    1.7209   -0.0000 C.ar    1  LIG1        0.0964
      2 C           1.5950    1.7789   -0.0000 C.ar    1  LIG1        0.0185
      3 C           1.9239    3.1685   -0.0000 C.ar    1  LIG1        0.1657
      4 C           0.7302    3.8611   -0.0001 C.ar    1  LIG1        0.2109
      5 O          -0.3147    2.9665   -0.0001 O.2     1  LIG1       -0.4560
      6 H          -0.4669    0.9008   -0.0000 H       1  LIG1        0.1031
      7 H           2.2889    0.9519    0.0000 H       1  LIG1        0.0686
      8 O           3.1839    3.6603   -0.0000 O.3     1  LIG1       -0.5031
      9 H           3.1286    4.6285   -0.0001 H       1  LIG1        0.2923
     10 C           0.4515    5.2609   -0.0001 C.ar    1  LIG1        0.1780
     11 C          -0.6923    6.0179   -0.0001 C.ar    1  LIG1        0.0298
     12 C          -0.2678    7.3798   -0.0001 C.ar    1  LIG1        0.1665
     13 C           1.1104    7.3905   -0.0001 C.ar    1  LIG1        0.2119
     14 O           1.5543    6.0768   -0.0001 O.2     1  LIG1       -0.4447
     15 H          -1.7056    5.6431   -0.0001 H       1  LIG1        0.0693
     16 O          -1.0424    8.4945   -0.0001 O.3     1  LIG1       -0.5031
     17 H          -1.9696    8.2261   -0.0001 H       1  LIG1        0.2923
     18 C           2.1097    8.4154   -0.0002 C.ar    1  LIG1        0.1770
     19 C           3.4833    8.3708   -0.0001 C.ar    1  LIG1        0.0290
     20 C           3.9139    9.7316   -0.0001 C.ar    1  LIG1        0.1551
     21 C           2.7913   10.5112   -0.0003 C.ar    1  LIG1        0.1340
     22 O           1.6758    9.7075   -0.0003 O.2     1  LIG1       -0.4560
     23 H           2.6157   11.5744   -0.0003 H       1  LIG1        0.1068
     24 H           4.1156    7.4966    0.0000 H       1  LIG1        0.0693
     25 O           5.2283   10.0906   -0.0001 O.3     1  LIG1       -0.5036
     26 H           5.2922   11.0542   -0.0001 H       1  LIG1        0.2923
@<TRIPOS>BOND
     1    23    21    1
     2    22    21   ar
     3    22    18   ar
     4    21    20   ar
     5    18    13    1
     6    18    19   ar
     7    13    14   ar
     8    13    12   ar
     9    14    10   ar
    10    20    19   ar
    11    20    25    1
    12    16    12    1
    13    16    17    1
    14    12    11   ar
    15    26    25    1
    16    10    11   ar
    17    10     4    1
    18    11    15    1
    19     5     4   ar
    20     5     1   ar
    21     4     3   ar
    22    19    24    1
    23     9     8    1
    24     3     2   ar
    25     3     8    1
    26     1     2   ar
    27     1     6    1
    28     2     7    1
