@<TRIPOS>MOLECULE
mol_data/opt/b3lyp/geoms/mol2/12af12af-.out
 18 19 0 0 0
SMALL
GASTEIGER

@<TRIPOS>ATOM
      1 C           0.2207    1.7472    0.0000 C.ar    1  LIG1        0.0964
      2 C           1.5823    1.7890   -0.0000 C.ar    1  LIG1        0.0185
      3 C           1.9273    3.1755   -0.0000 C.ar    1  LIG1        0.1657
      4 C           0.7429    3.8808   -0.0001 C.ar    1  LIG1        0.2108
      5 O          -0.3123    2.9995   -0.0001 O.2     1  LIG1       -0.4560
      6 H          -0.4894    0.9361    0.0001 H       1  LIG1        0.1031
      7 H           2.2666    0.9536   -0.0000 H       1  LIG1        0.0686
      8 O           3.1940    3.6531    0.0000 O.3     1  LIG1       -0.5031
      9 H           3.1481    4.6222   -0.0000 H       1  LIG1        0.2923
     10 C           0.4839    5.2881   -0.0001 C.ar    1  LIG1        0.1769
     11 C          -0.6454    6.0640   -0.0001 C.ar    1  LIG1        0.0290
     12 C          -0.1875    7.4224   -0.0001 C.ar    1  LIG1        0.1551
     13 C           1.1756    7.3973   -0.0001 C.ar    1  LIG1        0.1340
     14 O           1.6010    6.0821   -0.0002 O.2     1  LIG1       -0.4560
     15 H           1.9368    8.1574   -0.0001 H       1  LIG1        0.1068
     16 H          -1.6657    5.7088   -0.0001 H       1  LIG1        0.0693
     17 O          -0.9388    8.5584   -0.0001 O.3     1  LIG1       -0.5036
     18 H          -1.8716    8.3124   -0.0001 H       1  LIG1        0.2923
@<TRIPOS>BOND
     1    14    13   ar
     2    14    10   ar
     3    15    13    1
     4    13    12   ar
     5     5     4   ar
     6     5     1   ar
     7    18    17    1
     8    12    11   ar
     9    12    17    1
    10    11    10   ar
    11    11    16    1
    12    10     4    1
    13     4     3   ar
    14     2     3   ar
    15     2     7    1
    16     2     1   ar
    17     3     8    1
    18     9     8    1
    19     1     6    1
