@<TRIPOS>MOLECULE
mol_data/opt/b3lyp/geoms/mol2/12af12af12af-12af.out
 34 37 0 0 0
SMALL
GASTEIGER

@<TRIPOS>ATOM
      1 C           0.4961    1.6154    0.0000 C.ar    1  LIG1        0.0964
      2 C           1.8514    1.7498   -0.0001 C.ar    1  LIG1        0.0185
      3 C           2.0994    3.1544   -0.0001 C.ar    1  LIG1        0.1657
      4 C           0.8696    3.7850   -0.0001 C.ar    1  LIG1        0.2109
      5 O          -0.1181    2.8254   -0.0001 O.2     1  LIG1       -0.4560
      6 H          -0.1575    0.7573    0.0001 H       1  LIG1        0.1031
      7 H           2.5944    0.9669   -0.0001 H       1  LIG1        0.0686
      8 O           3.3497    3.6818   -0.0000 O.3     1  LIG1       -0.5031
      9 H           3.3014    4.6456   -0.0001 H       1  LIG1        0.2923
     10 C           0.4752    5.1628   -0.0001 C.ar    1  LIG1        0.1780
     11 C           1.1896    6.3434   -0.0001 C.ar    1  LIG1        0.0298
     12 C           0.2280    7.3886   -0.0001 C.ar    1  LIG1        0.1665
     13 C          -1.0178    6.7922   -0.0002 C.ar    1  LIG1        0.2119
     14 O          -0.8640    5.4239   -0.0002 O.2     1  LIG1       -0.4447
     15 H           2.2599    6.4885    0.0000 H       1  LIG1        0.0693
     16 O           0.5289    8.7062   -0.0001 O.3     1  LIG1       -0.5031
     17 H          -0.3037    9.2040   -0.0001 H       1  LIG1        0.2923
     18 C          -2.3282    7.3480   -0.0002 C.ar    1  LIG1        0.1780
     19 C          -3.5989    6.8281   -0.0002 C.ar    1  LIG1        0.0298
     20 C          -4.4846    7.9451   -0.0002 C.ar    1  LIG1        0.1665
     21 C          -3.7184    9.0915   -0.0003 C.ar    1  LIG1        0.2119
     22 O          -2.3819    8.7198   -0.0002 O.2     1  LIG1       -0.4447
     23 H          -3.8587    5.7794   -0.0002 H       1  LIG1        0.0693
     24 O          -5.8418    7.9324   -0.0002 O.3     1  LIG1       -0.5031
     25 H          -6.1415    7.0149   -0.0002 H       1  LIG1        0.2923
     26 C          -4.0038   10.4936   -0.0003 C.ar    1  LIG1        0.1770
     27 C          -3.1942   11.6046   -0.0002 C.ar    1  LIG1        0.0290
     28 C          -4.0772   12.7258   -0.0002 C.ar    1  LIG1        0.1551
     29 C          -5.3532   12.2362   -0.0004 C.ar    1  LIG1        0.1340
     30 O          -5.3163   10.8618   -0.0004 O.2     1  LIG1       -0.4560
     31 H          -6.3311   12.6891   -0.0005 H       1  LIG1        0.1068
     32 H          -2.1158   11.6357   -0.0001 H       1  LIG1        0.0693
     33 O          -3.6349   14.0147   -0.0002 O.3     1  LIG1       -0.5036
     34 H          -4.3961   14.6092   -0.0002 H       1  LIG1        0.2923
@<TRIPOS>BOND
     1    31    29    1
     2    30    29   ar
     3    30    26   ar
     4    29    28   ar
     5    26    21    1
     6    26    27   ar
     7    21    20   ar
     8    21    22   ar
     9    24    20    1
    10    24    25    1
    11    28    27   ar
    12    28    33    1
    13    20    19   ar
    14    22    18   ar
    15    34    33    1
    16    19    18   ar
    17    19    23    1
    18    18    13    1
    19    27    32    1
    20    13    14   ar
    21    13    12   ar
    22    14    10   ar
    23    17    16    1
    24    12    16    1
    25    12    11   ar
    26     5     4   ar
    27     5     1   ar
    28    10     4    1
    29    10    11   ar
    30     4     3   ar
    31     7     2    1
    32     2     3   ar
    33     2     1   ar
    34    11    15    1
    35     3     8    1
    36     9     8    1
    37     1     6    1
