@<TRIPOS>MOLECULE
mol_data/opt/b3lyp/geoms/mol2/12af12af12af-12af-.out
 34 37 0 0 0
SMALL
GASTEIGER

@<TRIPOS>ATOM
      1 C           0.4753    1.5778   -0.0001 C.ar    1  LIG1        0.0964
      2 C           1.8318    1.6987    0.0000 C.ar    1  LIG1        0.0185
      3 C           2.0940    3.1007   -0.0000 C.ar    1  LIG1        0.1657
      4 C           0.8706    3.7437   -0.0001 C.ar    1  LIG1        0.2109
      5 O          -0.1268    2.7940   -0.0000 O.2     1  LIG1       -0.4560
      6 H          -0.1870    0.7264   -0.0002 H       1  LIG1        0.1031
      7 H           2.5670    0.9084    0.0001 H       1  LIG1        0.0686
      8 O           3.3494    3.6157   -0.0000 O.3     1  LIG1       -0.5031
      9 H           3.3105    4.5800   -0.0001 H       1  LIG1        0.2923
     10 C           0.4906    5.1255   -0.0001 C.ar    1  LIG1        0.1780
     11 C           1.2177    6.2983   -0.0001 C.ar    1  LIG1        0.0298
     12 C           0.2686    7.3553   -0.0001 C.ar    1  LIG1        0.1665
     13 C          -0.9836    6.7703   -0.0002 C.ar    1  LIG1        0.2119
     14 O          -0.8461    5.4007   -0.0001 O.2     1  LIG1       -0.4447
     15 H           2.2896    6.4312   -0.0000 H       1  LIG1        0.0693
     16 O           0.5855    8.6675   -0.0001 O.3     1  LIG1       -0.5031
     17 H          -0.2373    9.1835   -0.0001 H       1  LIG1        0.2923
     18 C          -2.2818    7.3519   -0.0002 C.ar    1  LIG1        0.1780
     19 C          -3.5711    6.8737   -0.0002 C.ar    1  LIG1        0.0298
     20 C          -4.4123    8.0228   -0.0002 C.ar    1  LIG1        0.1665
     21 C          -3.6071    9.1405   -0.0002 C.ar    1  LIG1        0.2119
     22 O          -2.2890    8.7239   -0.0002 O.2     1  LIG1       -0.4447
     23 H          -3.8668    5.8348   -0.0002 H       1  LIG1        0.0693
     24 O          -5.7725    8.0823   -0.0002 O.3     1  LIG1       -0.5031
     25 H          -6.1258    7.1841   -0.0002 H       1  LIG1        0.2923
     26 C          -3.8834   10.5432   -0.0002 C.ar    1  LIG1        0.1770
     27 C          -5.0640   11.2490   -0.0003 C.ar    1  LIG1        0.0290
     28 C          -4.6885   12.6282   -0.0003 C.ar    1  LIG1        0.1551
     29 C          -3.3236   12.6775   -0.0003 C.ar    1  LIG1        0.1340
     30 O          -2.8205   11.3967   -0.0002 O.2     1  LIG1       -0.4560
     31 H          -2.6083   13.4817   -0.0003 H       1  LIG1        0.1068
     32 H          -6.0576   10.8254   -0.0003 H       1  LIG1        0.0693
     33 O          -5.5033   13.7213   -0.0003 O.3     1  LIG1       -0.5036
     34 H          -6.4199   13.4205   -0.0003 H       1  LIG1        0.2923
@<TRIPOS>BOND
     1    34    33    1
     2    33    28    1
     3    31    29    1
     4    28    29   ar
     5    28    27   ar
     6    29    30   ar
     7    32    27    1
     8    27    26   ar
     9    26    30   ar
    10    26    21    1
    11    21    22   ar
    12    21    20   ar
    13    24    20    1
    14    24    25    1
    15    22    18   ar
    16    20    19   ar
    17    18    19   ar
    18    18    13    1
    19    19    23    1
    20     6     1    1
    21    13    14   ar
    22    13    12   ar
    23    17    16    1
    24    14    10   ar
    25    12    16    1
    26    12    11   ar
    27     1     5   ar
    28     1     2   ar
    29     9     8    1
    30    10    11   ar
    31    10     4    1
    32    11    15    1
    33     4     5   ar
    34     4     3   ar
    35     8     3    1
    36     3     2   ar
    37     2     7    1
