@<TRIPOS>MOLECULE
mol_data/opt/b3lyp/geoms/mol2/12af12af.out
 18 19 0 0 0
SMALL
GASTEIGER

@<TRIPOS>ATOM
      1 C           0.2300    1.7462   -0.0000 C.ar    1  LIG1        0.0964
      2 C           1.5905    1.7980   -0.0000 C.ar    1  LIG1        0.0185
      3 C           1.9227    3.1860   -0.0000 C.ar    1  LIG1        0.1657
      4 C           0.7354    3.8887   -0.0001 C.ar    1  LIG1        0.2108
      5 O          -0.3087    2.9919   -0.0001 O.2     1  LIG1       -0.4560
      6 H          -0.4751    0.9306   -0.0000 H       1  LIG1        0.1031
      7 H           2.2847    0.9714    0.0000 H       1  LIG1        0.0686
      8 O           3.2037    3.6392    0.0000 O.3     1  LIG1       -0.5031
      9 H           3.2083    4.6042    0.0000 H       1  LIG1        0.2923
     10 C           0.4258    5.2930   -0.0001 C.ar    1  LIG1        0.1769
     11 C           1.2092    6.4240   -0.0001 C.ar    1  LIG1        0.0290
     12 C           0.3040    7.5290   -0.0001 C.ar    1  LIG1        0.1551
     13 C          -0.9596    7.0120   -0.0002 C.ar    1  LIG1        0.1340
     14 O          -0.8910    5.6386   -0.0002 O.2     1  LIG1       -0.4560
     15 H          -1.9471    7.4430   -0.0003 H       1  LIG1        0.1068
     16 H           2.2864    6.5072    0.0000 H       1  LIG1        0.0693
     17 O           0.7253    8.8239   -0.0001 O.3     1  LIG1       -0.5036
     18 H          -0.0444    9.4073   -0.0001 H       1  LIG1        0.2923
@<TRIPOS>BOND
     1    15    13    1
     2    14    13   ar
     3    14    10   ar
     4    13    12   ar
     5    18    17    1
     6    12    17    1
     7    12    11   ar
     8     5     4   ar
     9     5     1   ar
    10    10     4    1
    11    10    11   ar
    12     4     3   ar
    13    11    16    1
    14     2     1   ar
    15     2     3   ar
    16     2     7    1
    17     1     6    1
    18     3     8    1
    19     9     8    1
