@<TRIPOS>MOLECULE
mol_data/opt/b3lyp/geoms/mol2/12ag12ag12ag12ag.out
 34 37 0 0 0
SMALL
GASTEIGER

@<TRIPOS>ATOM
      1 C           0.5802    1.7312    0.0148 C.ar    1  LIG1        0.0938
      2 C           1.9327    1.8589    0.0176 C.ar    1  LIG1       -0.0099
      3 C           2.2036    3.2668    0.0130 C.ar    1  LIG1        0.0537
      4 C           0.9740    3.8974    0.0182 C.ar    1  LIG1        0.1828
      5 O          -0.0166    2.9583    0.0190 O.2     1  LIG1       -0.4587
      6 H          -0.0905    0.8866    0.0137 H       1  LIG1        0.1030
      7 H           2.6657    1.0661    0.0253 H       1  LIG1        0.0660
      8 S           3.8021    4.0358    0.0923 S.3     1  LIG1       -0.1389
      9 H           4.1296    3.9220   -1.2148 H       1  LIG1        0.1072
     10 C           0.5577    5.2750    0.0224 C.ar    1  LIG1        0.1729
     11 C           1.2310    6.4709    0.0383 C.ar    1  LIG1        0.0012
     12 C           0.2404    7.4949    0.0369 C.ar    1  LIG1        0.0544
     13 C          -0.9873    6.8555    0.0100 C.ar    1  LIG1        0.1838
     14 O          -0.7942    5.5059   -0.0008 O.2     1  LIG1       -0.4475
     15 H           2.3009    6.6054    0.0517 H       1  LIG1        0.0668
     16 S           0.5322    9.2462   -0.0189 S.3     1  LIG1       -0.1389
     17 H           0.8842    9.4122    1.2755 H       1  LIG1        0.1072
     18 C          -2.3486    7.3134   -0.0059 C.ar    1  LIG1        0.1729
     19 C          -2.9320    8.5567   -0.0124 C.ar    1  LIG1        0.0012
     20 C          -4.3404    8.3437   -0.0276 C.ar    1  LIG1        0.0544
     21 C          -4.5324    6.9731   -0.0201 C.ar    1  LIG1        0.1838
     22 O          -3.3219    6.3466   -0.0039 O.2     1  LIG1       -0.4475
     23 H          -2.4204    9.5060   -0.0078 H       1  LIG1        0.0668
     24 S          -5.5990    9.5956    0.0328 S.3     1  LIG1       -0.1389
     25 H          -5.4673   10.0428   -1.2356 H       1  LIG1        0.1072
     26 C          -5.6962    6.1270   -0.0261 C.ar    1  LIG1        0.1719
     27 C          -7.0465    6.3798   -0.0036 C.ar    1  LIG1        0.0005
     28 C          -7.6914    5.1041   -0.0363 C.ar    1  LIG1        0.0433
     29 C          -6.6942    4.1705   -0.0751 C.ar    1  LIG1        0.1058
     30 O          -5.4743    4.7785   -0.0665 O.2     1  LIG1       -0.4587
     31 H          -6.6871    3.0928   -0.1064 H       1  LIG1        0.1041
     32 H          -7.5136    7.3512    0.0373 H       1  LIG1        0.0667
     33 S          -9.4508    4.8819   -0.0317 S.3     1  LIG1       -0.1396
     34 H          -9.4360    3.5375    0.0594 H       1  LIG1        0.1072
@<TRIPOS>BOND
     1    25    24    1
     2     9     8    1
     3    31    29    1
     4    29    30   ar
     5    29    28   ar
     6    30    26   ar
     7    28    33    1
     8    28    27   ar
     9    33    34    1
    10    20    21   ar
    11    20    19   ar
    12    20    24    1
    13    26    21    1
    14    26    27   ar
    15    21    22   ar
    16    16    12    1
    17    16    17    1
    18    19    23    1
    19    19    18   ar
    20    18    22   ar
    21    18    13    1
    22    27    32    1
    23    14    13   ar
    24    14    10   ar
    25    13    12   ar
    26     3     2   ar
    27     3     4   ar
    28     3     8    1
    29     6     1    1
    30     1     2   ar
    31     1     5   ar
    32     2     7    1
    33     4     5   ar
    34     4    10    1
    35    10    11   ar
    36    12    11   ar
    37    11    15    1
