@<TRIPOS>MOLECULE
mol_data/opt/b3lyp/geoms/mol2/12ag12ag-12ag-12ag.out
 34 37 0 0 0
SMALL
GASTEIGER

@<TRIPOS>ATOM
      1 C           0.5833    1.7338   -0.0691 C.ar    1  LIG1        0.0938
      2 C           1.9356    1.8622   -0.0524 C.ar    1  LIG1       -0.0099
      3 C           2.2055    3.2701   -0.0276 C.ar    1  LIG1        0.0537
      4 C           0.9757    3.9002   -0.0417 C.ar    1  LIG1        0.1828
      5 O          -0.0142    2.9606   -0.0669 O.2     1  LIG1       -0.4587
      6 H          -0.0868    0.8890   -0.0869 H       1  LIG1        0.1030
      7 H           2.6692    1.0698   -0.0598 H       1  LIG1        0.0660
      8 S           3.8043    4.0413   -0.0770 S.3     1  LIG1       -0.1389
      9 H           4.1188    3.9037    1.2309 H       1  LIG1        0.1072
     10 C           0.5586    5.2775   -0.0350 C.ar    1  LIG1        0.1729
     11 C           1.2311    6.4739   -0.0274 C.ar    1  LIG1        0.0012
     12 C           0.2398    7.4972   -0.0271 C.ar    1  LIG1        0.0544
     13 C          -0.9877    6.8568   -0.0245 C.ar    1  LIG1        0.1838
     14 O          -0.7937    5.5073   -0.0276 O.2     1  LIG1       -0.4475
     15 H           2.3010    6.6091   -0.0245 H       1  LIG1        0.0668
     16 S           0.5299    9.2479    0.0536 S.3     1  LIG1       -0.1389
     17 H           0.8884    9.4318   -1.2367 H       1  LIG1        0.1072
     18 C          -2.3494    7.3137   -0.0216 C.ar    1  LIG1        0.1729
     19 C          -2.9338    8.5564   -0.0069 C.ar    1  LIG1        0.0012
     20 C          -4.3421    8.3425   -0.0138 C.ar    1  LIG1        0.0544
     21 C          -4.5329    6.9721   -0.0417 C.ar    1  LIG1        0.1838
     22 O          -3.3219    6.3465   -0.0495 O.2     1  LIG1       -0.4475
     23 H          -2.4229    9.5060    0.0078 H       1  LIG1        0.0668
     24 S          -5.6006    9.5943   -0.0750 S.3     1  LIG1       -0.1389
     25 H          -5.4854   10.0261    1.2004 H       1  LIG1        0.1072
     26 C          -5.6961    6.1253   -0.0627 C.ar    1  LIG1        0.1719
     27 C          -7.0461    6.3778   -0.0999 C.ar    1  LIG1        0.0005
     28 C          -7.6906    5.1014   -0.0929 C.ar    1  LIG1        0.0433
     29 C          -6.6934    4.1678   -0.0535 C.ar    1  LIG1        0.1058
     30 O          -5.4738    4.7765   -0.0373 O.2     1  LIG1       -0.4587
     31 H          -6.6860    3.0898   -0.0366 H       1  LIG1        0.1041
     32 H          -7.5133    7.3493   -0.1337 H       1  LIG1        0.0667
     33 S          -9.4495    4.8786   -0.1248 S.3     1  LIG1       -0.1396
     34 H          -9.4329    3.5345   -0.2193 H       1  LIG1        0.1072
@<TRIPOS>BOND
     1    17    16    1
     2    34    33    1
     3    32    27    1
     4    33    28    1
     5    27    28   ar
     6    27    26   ar
     7    28    29   ar
     8     6     1    1
     9     8     3    1
    10     8     9    1
    11    24    20    1
    12    24    25    1
    13     1     5   ar
    14     1     2   ar
    15     5     4   ar
    16    26    21    1
    17    26    30   ar
    18     7     2    1
    19    29    30   ar
    20    29    31    1
    21     2     3   ar
    22    22    21   ar
    23    22    18   ar
    24    21    20   ar
    25     4    10    1
    26     4     3   ar
    27    10    14   ar
    28    10    11   ar
    29    14    13   ar
    30    11    12   ar
    31    11    15    1
    32    12    13   ar
    33    12    16    1
    34    13    18    1
    35    18    19   ar
    36    20    19   ar
    37    19    23    1
