@<TRIPOS>MOLECULE
mol_data/opt/b3lyp/geoms/mol2/12ag12ag-12ag-12ag-.out
 34 37 0 0 0
SMALL
GASTEIGER

@<TRIPOS>ATOM
      1 C           0.5817    1.7323   -0.0768 C.ar    1  LIG1        0.0938
      2 C           1.9341    1.8600   -0.0558 C.ar    1  LIG1       -0.0099
      3 C           2.2046    3.2676   -0.0260 C.ar    1  LIG1        0.0537
      4 C           0.9752    3.8984   -0.0418 C.ar    1  LIG1        0.1828
      5 O          -0.0151    2.9594   -0.0726 O.2     1  LIG1       -0.4587
      6 H          -0.0887    0.8879   -0.0990 H       1  LIG1        0.1030
      7 H           2.6673    1.0672   -0.0634 H       1  LIG1        0.0660
      8 S           3.8039    4.0380   -0.0680 S.3     1  LIG1       -0.1389
      9 H           4.1137    3.8971    1.2406 H       1  LIG1        0.1072
     10 C           0.5587    5.2759   -0.0323 C.ar    1  LIG1        0.1729
     11 C           1.2318    6.4719   -0.0200 C.ar    1  LIG1        0.0012
     12 C           0.2410    7.4957   -0.0188 C.ar    1  LIG1        0.0544
     13 C          -0.9868    6.8559   -0.0206 C.ar    1  LIG1        0.1838
     14 O          -0.7935    5.5064   -0.0271 O.2     1  LIG1       -0.4475
     15 H           2.3017    6.6068   -0.0147 H       1  LIG1        0.0668
     16 S           0.5322    9.2460    0.0672 S.3     1  LIG1       -0.1389
     17 H           0.8863    9.4345   -1.2236 H       1  LIG1        0.1072
     18 C          -2.3482    7.3135   -0.0190 C.ar    1  LIG1        0.1729
     19 C          -2.9319    8.5566   -0.0027 C.ar    1  LIG1        0.0012
     20 C          -4.3403    8.3435   -0.0123 C.ar    1  LIG1        0.0544
     21 C          -4.5320    6.9733   -0.0434 C.ar    1  LIG1        0.1838
     22 O          -3.3213    6.3470   -0.0506 O.2     1  LIG1       -0.4475
     23 H          -2.4204    9.5058    0.0150 H       1  LIG1        0.0668
     24 S          -5.5979    9.5964   -0.0731 S.3     1  LIG1       -0.1389
     25 H          -5.4849   10.0252    1.2035 H       1  LIG1        0.1072
     26 C          -5.6956    6.1273   -0.0681 C.ar    1  LIG1        0.1719
     27 C          -7.0454    6.3808   -0.1062 C.ar    1  LIG1        0.0005
     28 C          -7.6907    5.1048   -0.1033 C.ar    1  LIG1        0.0433
     29 C          -6.6942    4.1705   -0.0653 C.ar    1  LIG1        0.1058
     30 O          -5.4743    4.7783   -0.0458 O.2     1  LIG1       -0.4587
     31 H          -6.6875    3.0924   -0.0512 H       1  LIG1        0.1041
     32 H          -7.5119    7.3528   -0.1377 H       1  LIG1        0.0667
     33 S          -9.4498    4.8835   -0.1386 S.3     1  LIG1       -0.1396
     34 H          -9.4342    3.5386   -0.2216 H       1  LIG1        0.1072
@<TRIPOS>BOND
     1    17    16    1
     2    34    33    1
     3    33    28    1
     4    32    27    1
     5    27    28   ar
     6    27    26   ar
     7    28    29   ar
     8     6     1    1
     9     1     5   ar
    10     1     2   ar
    11    24    20    1
    12    24    25    1
    13     5     4   ar
    14    26    30   ar
    15    26    21    1
    16     8     3    1
    17     8     9    1
    18    29    31    1
    19    29    30   ar
    20     7     2    1
    21     2     3   ar
    22    22    21   ar
    23    22    18   ar
    24    21    20   ar
    25     4    10    1
    26     4     3   ar
    27    10    14   ar
    28    10    11   ar
    29    14    13   ar
    30    13    18    1
    31    13    12   ar
    32    11    12   ar
    33    11    15    1
    34    18    19   ar
    35    12    16    1
    36    20    19   ar
    37    19    23    1
