@<TRIPOS>MOLECULE
mol_data/opt/b3lyp/geoms/mol2/12ag12ag12ag12ag-.out
 34 37 0 0 0
SMALL
GASTEIGER

@<TRIPOS>ATOM
      1 C           0.5846    1.7342    0.0477 C.ar    1  LIG1        0.0938
      2 C           1.9370    1.8634    0.0467 C.ar    1  LIG1       -0.0099
      3 C           2.2064    3.2714    0.0294 C.ar    1  LIG1        0.0537
      4 C           0.9761    3.9008    0.0314 C.ar    1  LIG1        0.1828
      5 O          -0.0134    2.9608    0.0422 O.2     1  LIG1       -0.4587
      6 H          -0.0852    0.8890    0.0553 H       1  LIG1        0.1030
      7 H           2.6709    1.0714    0.0598 H       1  LIG1        0.0660
      8 S           3.8045    4.0425    0.0985 S.3     1  LIG1       -0.1389
      9 H           4.1264    3.9238   -1.2094 H       1  LIG1        0.1072
     10 C           0.5585    5.2780    0.0243 C.ar    1  LIG1        0.1729
     11 C           1.2305    6.4746    0.0296 C.ar    1  LIG1        0.0012
     12 C           0.2389    7.4976    0.0204 C.ar    1  LIG1        0.0544
     13 C          -0.9882    6.8568   -0.0002 C.ar    1  LIG1        0.1838
     14 O          -0.7937    5.5073    0.0003 O.2     1  LIG1       -0.4475
     15 H           2.3003    6.6103    0.0412 H       1  LIG1        0.0668
     16 S           0.5293    9.2486   -0.0503 S.3     1  LIG1       -0.1389
     17 H           0.8718    9.4279    1.2449 H       1  LIG1        0.1072
     18 C          -2.3499    7.3131   -0.0191 C.ar    1  LIG1        0.1729
     19 C          -2.9346    8.5557   -0.0347 C.ar    1  LIG1        0.0012
     20 C          -4.3427    8.3412   -0.0480 C.ar    1  LIG1        0.0544
     21 C          -4.5334    6.9706   -0.0303 C.ar    1  LIG1        0.1838
     22 O          -3.3223    6.3454   -0.0097 O.2     1  LIG1       -0.4475
     23 H          -2.4239    9.5055   -0.0373 H       1  LIG1        0.0668
     24 S          -5.6026    9.5923    0.0032 S.3     1  LIG1       -0.1389
     25 H          -5.4702   10.0314   -1.2679 H       1  LIG1        0.1072
     26 C          -5.6963    6.1233   -0.0299 C.ar    1  LIG1        0.1719
     27 C          -7.0469    6.3749   -0.0082 C.ar    1  LIG1        0.0005
     28 C          -7.6905    5.0983   -0.0320 C.ar    1  LIG1        0.0433
     29 C          -6.6924    4.1655   -0.0653 C.ar    1  LIG1        0.1058
     30 O          -5.4731    4.7748   -0.0612 O.2     1  LIG1       -0.4587
     31 H          -6.6842    3.0876   -0.0895 H       1  LIG1        0.1041
     32 H          -7.5150    7.3460    0.0267 H       1  LIG1        0.0667
     33 S          -9.4496    4.8742   -0.0258 S.3     1  LIG1       -0.1396
     34 H          -9.4334    3.5317    0.0893 H       1  LIG1        0.1072
@<TRIPOS>BOND
     1    25    24    1
     2     9     8    1
     3    31    29    1
     4    29    30   ar
     5    29    28   ar
     6    30    26   ar
     7    16    12    1
     8    16    17    1
     9    20    19   ar
    10    20    21   ar
    11    20    24    1
    12    23    19    1
    13    19    18   ar
    14    28    33    1
    15    28    27   ar
    16    21    26    1
    17    21    22   ar
    18    26    27   ar
    19    33    34    1
    20    18    22   ar
    21    18    13    1
    22    27    32    1
    23    13    14   ar
    24    13    12   ar
    25    14    10   ar
    26    12    11   ar
    27    10    11   ar
    28    10     4    1
    29     3     4   ar
    30     3     2   ar
    31     3     8    1
    32    11    15    1
    33     4     5   ar
    34     5     1   ar
    35     2     1   ar
    36     2     7    1
    37     1     6    1
