@<TRIPOS>MOLECULE
mol_data/opt/b3lyp/geoms/mol2/12ag12ag-12ag.out
 26 28 0 0 0
SMALL
GASTEIGER

@<TRIPOS>ATOM
      1 C           0.2607    1.6848   -0.0001 C.ar    1  LIG1        0.0938
      2 C           1.6197    1.6955   -0.0000 C.ar    1  LIG1       -0.0099
      3 C           2.0104    3.0747   -0.0000 C.ar    1  LIG1        0.0537
      4 C           0.8404    3.8096   -0.0001 C.ar    1  LIG1        0.1828
      5 O          -0.2315    2.9481   -0.0001 O.2     1  LIG1       -0.4587
      6 H          -0.4721    0.8933   -0.0001 H       1  LIG1        0.1030
      7 H           2.2775    0.8388    0.0000 H       1  LIG1        0.0660
      8 S           3.7135    3.5481    0.0000 S.3     1  LIG1       -0.1389
      9 H           3.5404    4.8799    0.0001 H       1  LIG1        0.1072
     10 C           0.5159    5.2115   -0.0001 C.ar    1  LIG1        0.1729
     11 C           1.2521    6.3722   -0.0001 C.ar    1  LIG1        0.0012
     12 C           0.3210    7.4528   -0.0001 C.ar    1  LIG1        0.0544
     13 C          -0.9382    6.8858   -0.0001 C.ar    1  LIG1        0.1838
     14 O          -0.8128    5.5176   -0.0001 O.2     1  LIG1       -0.4475
     15 H           2.3254    6.4776   -0.0001 H       1  LIG1        0.0668
     16 S           0.8671    9.1351   -0.0001 S.3     1  LIG1       -0.1389
     17 H          -0.3404    9.7222   -0.0001 H       1  LIG1        0.1072
     18 C          -2.2860    7.3906   -0.0002 C.ar    1  LIG1        0.1719
     19 C          -2.8458    8.6473   -0.0002 C.ar    1  LIG1        0.0005
     20 C          -4.2647    8.4593   -0.0003 C.ar    1  LIG1        0.0433
     21 C          -4.4717    7.1110   -0.0002 C.ar    1  LIG1        0.1058
     22 O          -3.2771    6.4500   -0.0002 O.2     1  LIG1       -0.4587
     23 H          -5.3555    6.4938   -0.0003 H       1  LIG1        0.1041
     24 H          -2.3389    9.5992   -0.0002 H       1  LIG1        0.0667
     25 S          -5.4390    9.7895   -0.0003 S.3     1  LIG1       -0.1396
     26 H          -6.5437    9.0182   -0.0003 H       1  LIG1        0.1072
@<TRIPOS>BOND
     1    25    26    1
     2    25    20    1
     3    23    21    1
     4    20    21   ar
     5    20    19   ar
     6    21    22   ar
     7    24    19    1
     8    19    18   ar
     9    22    18   ar
    10    18    13    1
    11    13    14   ar
    12    13    12   ar
    13     6     1    1
    14    16    12    1
    15    16    17    1
    16    14    10   ar
    17    12    11   ar
    18     1     5   ar
    19     1     2   ar
    20    10    11   ar
    21    10     4    1
    22    11    15    1
    23     5     4   ar
    24     4     3   ar
    25     3     2   ar
    26     3     8    1
    27     2     7    1
    28     8     9    1
