@<TRIPOS>MOLECULE
mol_data/opt/b3lyp/geoms/mol2/12ag12ag.out
 18 19 0 0 0
SMALL
GASTEIGER

@<TRIPOS>ATOM
      1 C           0.2040    1.7793   -0.0278 C.ar    1  LIG1        0.0938
      2 C           1.5580    1.8286    0.0645 C.ar    1  LIG1       -0.0099
      3 C           1.9079    3.2192    0.1042 C.ar    1  LIG1        0.0537
      4 C           0.7198    3.9196    0.0422 C.ar    1  LIG1        0.1827
      5 O          -0.3207    3.0396   -0.0391 O.2     1  LIG1       -0.4587
      6 H          -0.5122    0.9752   -0.0885 H       1  LIG1        0.1030
      7 H           2.2428    0.9947    0.1039 H       1  LIG1        0.0660
      8 S           3.5409    3.8904    0.2977 S.3     1  LIG1       -0.1389
      9 H           3.9347    3.7991   -0.9927 H       1  LIG1        0.1072
     10 C           0.3809    5.3213    0.0447 C.ar    1  LIG1        0.1718
     11 C           1.1239    6.4702    0.1517 C.ar    1  LIG1        0.0005
     12 C           0.1938    7.5553    0.0785 C.ar    1  LIG1        0.0433
     13 C          -1.0421    6.9925   -0.0669 C.ar    1  LIG1        0.1058
     14 O          -0.9440    5.6319   -0.0867 O.2     1  LIG1       -0.4587
     15 H          -2.0365    7.3981   -0.1623 H       1  LIG1        0.1041
     16 H           2.1938    6.5289    0.2751 H       1  LIG1        0.0667
     17 S           0.6574    9.2647    0.1626 S.3     1  LIG1       -0.1396
     18 H          -0.5938    9.7651    0.1501 H       1  LIG1        0.1072
@<TRIPOS>BOND
     1     9     8    1
     2    15    13    1
     3     6     1    1
     4    14    13   ar
     5    14    10   ar
     6    13    12   ar
     7     5     1   ar
     8     5     4   ar
     9     1     2   ar
    10     4    10    1
    11     4     3   ar
    12    10    11   ar
    13     2     7    1
    14     2     3   ar
    15    12    11   ar
    16    12    17    1
    17     3     8    1
    18    18    17    1
    19    11    16    1
