@<TRIPOS>MOLECULE
mol_data/opt/b3lyp/geoms/mol2/12ag12ag12ag.out
 26 28 0 0 0
SMALL
GASTEIGER

@<TRIPOS>ATOM
      1 C           0.3500    1.7207    0.0626 C.ar    1  LIG1        0.0938
      2 C           1.7054    1.8091    0.0849 C.ar    1  LIG1       -0.0099
      3 C           2.0177    3.2085    0.0713 C.ar    1  LIG1        0.0537
      4 C           0.8074    3.8748    0.0518 C.ar    1  LIG1        0.1828
      5 O          -0.2103    2.9653    0.0454 O.2     1  LIG1       -0.4587
      6 H          -0.3452    0.8963    0.0591 H       1  LIG1        0.1030
      7 H           2.4148    0.9955    0.1109 H       1  LIG1        0.0660
      8 S           3.6380    3.9292    0.1656 S.3     1  LIG1       -0.1389
      9 H           3.9602    3.8407   -1.1447 H       1  LIG1        0.1072
     10 C           0.4325    5.2644    0.0356 C.ar    1  LIG1        0.1729
     11 C           1.1406    6.4392    0.0537 C.ar    1  LIG1        0.0012
     12 C           0.1806    7.4927    0.0231 C.ar    1  LIG1        0.0544
     13 C          -1.0638    6.8905   -0.0224 C.ar    1  LIG1        0.1838
     14 O          -0.9113    5.5356   -0.0170 O.2     1  LIG1       -0.4475
     15 H           2.2136    6.5419    0.0875 H       1  LIG1        0.0668
     16 S           0.5273    9.2335   -0.0445 S.3     1  LIG1       -0.1389
     17 H           0.8787    9.3981    1.2501 H       1  LIG1        0.1072
     18 C          -2.4139    7.3870   -0.0717 C.ar    1  LIG1        0.1719
     19 C          -2.9524    8.6495   -0.1286 C.ar    1  LIG1        0.0005
     20 C          -4.3719    8.4769   -0.1477 C.ar    1  LIG1        0.0433
     21 C          -4.5957    7.1297   -0.1019 C.ar    1  LIG1        0.1058
     22 O          -3.4127    6.4534   -0.0590 O.2     1  LIG1       -0.4587
     23 H          -5.4885    6.5252   -0.0969 H       1  LIG1        0.1041
     24 H          -2.4025    9.5768   -0.1604 H       1  LIG1        0.0667
     25 S          -5.5330    9.8158   -0.2096 S.3     1  LIG1       -0.1396
     26 H          -6.6352    9.0569   -0.3675 H       1  LIG1        0.1072
@<TRIPOS>BOND
     1     9     8    1
     2    26    25    1
     3    25    20    1
     4    24    19    1
     5    20    19   ar
     6    20    21   ar
     7    19    18   ar
     8    21    23    1
     9    21    22   ar
    10    18    22   ar
    11    18    13    1
    12    16    12    1
    13    16    17    1
    14    13    14   ar
    15    13    12   ar
    16    14    10   ar
    17    12    11   ar
    18    10     4    1
    19    10    11   ar
    20     5     4   ar
    21     5     1   ar
    22     4     3   ar
    23    11    15    1
    24     6     1    1
    25     1     2   ar
    26     3     2   ar
    27     3     8    1
    28     2     7    1
