@<TRIPOS>MOLECULE
mol_data/opt/b3lyp/geoms/mol2/12ag12ag12ag-12ag.out
 34 37 0 0 0
SMALL
GASTEIGER

@<TRIPOS>ATOM
      1 C           0.5854    1.7349    0.0211 C.ar    1  LIG1        0.0938
      2 C           1.9377    1.8642    0.0333 C.ar    1  LIG1       -0.0099
      3 C           2.2069    3.2724    0.0310 C.ar    1  LIG1        0.0537
      4 C           0.9766    3.9016    0.0278 C.ar    1  LIG1        0.1828
      5 O          -0.0128    2.9613    0.0216 O.2     1  LIG1       -0.4587
      6 H          -0.0842    0.8895    0.0151 H       1  LIG1        0.1030
      7 H           2.6716    1.0722    0.0459 H       1  LIG1        0.0660
      8 S           3.8037    4.0438    0.1217 S.3     1  LIG1       -0.1389
      9 H           4.1440    3.9229   -1.1813 H       1  LIG1        0.1072
     10 C           0.5586    5.2787    0.0295 C.ar    1  LIG1        0.1729
     11 C           1.2300    6.4755    0.0506 C.ar    1  LIG1        0.0012
     12 C           0.2382    7.4982    0.0420 C.ar    1  LIG1        0.0544
     13 C          -0.9885    6.8571    0.0059 C.ar    1  LIG1        0.1838
     14 O          -0.7935    5.5078   -0.0033 O.2     1  LIG1       -0.4475
     15 H           2.2996    6.6115    0.0719 H       1  LIG1        0.0668
     16 S           0.5290    9.2497   -0.0110 S.3     1  LIG1       -0.1389
     17 H           0.8475    9.4203    1.2915 H       1  LIG1        0.1072
     18 C          -2.3502    7.3132   -0.0200 C.ar    1  LIG1        0.1729
     19 C          -2.9351    8.5557   -0.0307 C.ar    1  LIG1        0.0012
     20 C          -4.3430    8.3410   -0.0568 C.ar    1  LIG1        0.0544
     21 C          -4.5334    6.9702   -0.0511 C.ar    1  LIG1        0.1838
     22 O          -3.3223    6.3452   -0.0256 O.2     1  LIG1       -0.4475
     23 H          -2.4246    9.5057   -0.0222 H       1  LIG1        0.0668
     24 S          -5.6036    9.5913   -0.0059 S.3     1  LIG1       -0.1389
     25 H          -5.4612   10.0404   -1.2725 H       1  LIG1        0.1072
     26 C          -5.6960    6.1227   -0.0661 C.ar    1  LIG1        0.1719
     27 C          -7.0468    6.3738   -0.0531 C.ar    1  LIG1        0.0005
     28 C          -7.6899    5.0973   -0.0914 C.ar    1  LIG1        0.0433
     29 C          -6.6912    4.1650   -0.1237 C.ar    1  LIG1        0.1058
     30 O          -5.4722    4.7745   -0.1057 O.2     1  LIG1       -0.4587
     31 H          -6.6825    3.0873   -0.1559 H       1  LIG1        0.1041
     32 H          -7.5155    7.3445   -0.0147 H       1  LIG1        0.0667
     33 S          -9.4489    4.8727   -0.1003 S.3     1  LIG1       -0.1396
     34 H          -9.4331    3.5290    0.0001 H       1  LIG1        0.1072
@<TRIPOS>BOND
     1    25    24    1
     2     9     8    1
     3    31    29    1
     4    29    30   ar
     5    29    28   ar
     6    30    26   ar
     7    33    28    1
     8    33    34    1
     9    28    27   ar
    10    26    27   ar
    11    26    21    1
    12    20    21   ar
    13    20    19   ar
    14    20    24    1
    15    27    32    1
    16    21    22   ar
    17    19    23    1
    18    19    18   ar
    19    22    18   ar
    20    18    13    1
    21    16    12    1
    22    16    17    1
    23    14    13   ar
    24    14    10   ar
    25    13    12   ar
    26     6     1    1
    27     1     5   ar
    28     1     2   ar
    29     5     4   ar
    30     4    10    1
    31     4     3   ar
    32    10    11   ar
    33     3     2   ar
    34     3     8    1
    35     2     7    1
    36    12    11   ar
    37    11    15    1
