@<TRIPOS>MOLECULE
mol_data/opt/b3lyp/geoms/mol2/12ag12ag-.out
 18 19 0 0 0
SMALL
GASTEIGER

@<TRIPOS>ATOM
      1 C           0.1570    1.7432   -0.0001 C.ar    1  LIG1        0.0938
      2 C           1.5155    1.7421   -0.0000 C.ar    1  LIG1       -0.0099
      3 C           1.9182    3.1186   -0.0000 C.ar    1  LIG1        0.0537
      4 C           0.7563    3.8634   -0.0001 C.ar    1  LIG1        0.1827
      5 O          -0.3236    3.0119   -0.0001 O.2     1  LIG1       -0.4587
      6 H          -0.5833    0.9587   -0.0001 H       1  LIG1        0.1030
      7 H           2.1660    0.8796    0.0000 H       1  LIG1        0.0660
      8 S           3.6259    3.5779    0.0001 S.3     1  LIG1       -0.1389
      9 H           3.4632    4.9110    0.0001 H       1  LIG1        0.1072
     10 C           0.4433    5.2710   -0.0001 C.ar    1  LIG1        0.1718
     11 C           1.1897    6.4251   -0.0001 C.ar    1  LIG1        0.0005
     12 C           0.2571    7.5120   -0.0001 C.ar    1  LIG1        0.0433
     13 C          -0.9851    6.9495   -0.0002 C.ar    1  LIG1        0.1058
     14 O          -0.8861    5.5873   -0.0001 O.2     1  LIG1       -0.4587
     15 H          -1.9849    7.3527   -0.0002 H       1  LIG1        0.1041
     16 H           2.2642    6.5200   -0.0001 H       1  LIG1        0.0667
     17 S           0.7318    9.2213   -0.0002 S.3     1  LIG1       -0.1396
     18 H          -0.5166    9.7281   -0.0002 H       1  LIG1        0.1072
@<TRIPOS>BOND
     1    15    13    1
     2    13    12   ar
     3    13    14   ar
     4    17    18    1
     5    17    12    1
     6    12    11   ar
     7    14    10   ar
     8    10    11   ar
     9    10     4    1
    10    11    16    1
    11     5     1   ar
    12     5     4   ar
    13     6     1    1
    14     1     2   ar
    15     4     3   ar
    16     3     2   ar
    17     3     8    1
    18     2     7    1
    19     8     9    1
