@<TRIPOS>MOLECULE
mol_data/opt/b3lyp/geoms/mol2/12ag12ag-12ag12ag.out
 34 37 0 0 0
SMALL
GASTEIGER

@<TRIPOS>ATOM
      1 C           0.5982    1.7441    0.1253 C.ar    1  LIG1        0.0938
      2 C           1.9475    1.8783    0.0416 C.ar    1  LIG1       -0.0099
      3 C           2.2101    3.2876    0.0148 C.ar    1  LIG1        0.0537
      4 C           0.9802    3.9122    0.0962 C.ar    1  LIG1        0.1828
      5 O          -0.0034    2.9678    0.1650 O.2     1  LIG1       -0.4587
      6 H          -0.0665    0.8959    0.1693 H       1  LIG1        0.1030
      7 H           2.6832    1.0886    0.0060 H       1  LIG1        0.0660
      8 S           3.8041    4.0687   -0.0112 S.3     1  LIG1       -0.1389
      9 H           4.0933    3.8553   -1.3145 H       1  LIG1        0.1072
     10 C           0.5576    5.2876    0.1237 C.ar    1  LIG1        0.1729
     11 C           1.2254    6.4866    0.1290 C.ar    1  LIG1        0.0012
     12 C           0.2297    7.5058    0.1437 C.ar    1  LIG1        0.0544
     13 C          -0.9948    6.8605    0.1604 C.ar    1  LIG1        0.1838
     14 O          -0.7951    5.5112    0.1514 O.2     1  LIG1       -0.4475
     15 H           2.2948    6.6258    0.1300 H       1  LIG1        0.0668
     16 S           0.5079    9.2576    0.2272 S.3     1  LIG1       -0.1389
     17 H           0.9835    9.4211   -1.0269 H       1  LIG1        0.1072
     18 C          -2.3581    7.3117    0.1868 C.ar    1  LIG1        0.1729
     19 C          -2.9475    8.5493    0.2700 C.ar    1  LIG1        0.0012
     20 C          -4.3549    8.3318    0.2291 C.ar    1  LIG1        0.0544
     21 C          -4.5403    6.9635    0.1371 C.ar    1  LIG1        0.1838
     22 O          -3.3269    6.3430    0.1136 O.2     1  LIG1       -0.4475
     23 H          -2.4419    9.4979    0.3565 H       1  LIG1        0.0668
     24 S          -5.6190    9.5708    0.3763 S.3     1  LIG1       -0.1389
     25 H          -5.5039   10.0930   -0.8649 H       1  LIG1        0.1072
     26 C          -5.6999    6.1147    0.0651 C.ar    1  LIG1        0.1719
     27 C          -7.0515    6.3585    0.1041 C.ar    1  LIG1        0.0005
     28 C          -7.6900    5.0858   -0.0263 C.ar    1  LIG1        0.0433
     29 C          -6.6881    4.1627   -0.1344 C.ar    1  LIG1        0.1058
     30 O          -5.4713    4.7741   -0.0761 O.2     1  LIG1       -0.4587
     31 H          -6.6757    3.0905   -0.2474 H       1  LIG1        0.1041
     32 H          -7.5235    7.3215    0.2194 H       1  LIG1        0.0667
     33 S          -9.4484    4.8550   -0.0461 S.3     1  LIG1       -0.1396
     34 H          -9.4279    3.5089    0.0127 H       1  LIG1        0.1072
@<TRIPOS>BOND
     1     9     8    1
     2    17    16    1
     3    25    24    1
     4    31    29    1
     5    29    30   ar
     6    29    28   ar
     7    30    26   ar
     8    33    28    1
     9    33    34    1
    10    28    27   ar
    11     8     3    1
    12     7     2    1
    13     3     2   ar
    14     3     4   ar
    15     2     1   ar
    16    26    27   ar
    17    26    21    1
    18     4    10    1
    19     4     5   ar
    20    27    32    1
    21    22    21   ar
    22    22    18   ar
    23    10    11   ar
    24    10    14   ar
    25     1     5   ar
    26     1     6    1
    27    11    15    1
    28    11    12   ar
    29    21    20   ar
    30    12    13   ar
    31    12    16    1
    32    14    13   ar
    33    13    18    1
    34    18    19   ar
    35    20    19   ar
    36    20    24    1
    37    19    23    1
