@<TRIPOS>MOLECULE
mol_data/opt/b3lyp/geoms/mol2/12ag12ag12ag-.out
 26 28 0 0 0
SMALL
GASTEIGER

@<TRIPOS>ATOM
      1 C           0.3521    1.7215    0.0692 C.ar    1  LIG1        0.0938
      2 C           1.7074    1.8105    0.0910 C.ar    1  LIG1       -0.0099
      3 C           2.0190    3.2099    0.0757 C.ar    1  LIG1        0.0537
      4 C           0.8085    3.8758    0.0557 C.ar    1  LIG1        0.1828
      5 O          -0.2089    2.9658    0.0506 O.2     1  LIG1       -0.4587
      6 H          -0.3428    0.8968    0.0670 H       1  LIG1        0.1030
      7 H           2.4172    0.9972    0.1177 H       1  LIG1        0.0660
      8 S           3.6389    3.9317    0.1686 S.3     1  LIG1       -0.1389
      9 H           3.9607    3.8419   -1.1418 H       1  LIG1        0.1072
     10 C           0.4329    5.2652    0.0378 C.ar    1  LIG1        0.1729
     11 C           1.1404    6.4403    0.0550 C.ar    1  LIG1        0.0012
     12 C           0.1798    7.4933    0.0227 C.ar    1  LIG1        0.0544
     13 C          -1.0643    6.8904   -0.0229 C.ar    1  LIG1        0.1838
     14 O          -0.9111    5.5356   -0.0159 O.2     1  LIG1       -0.4475
     15 H           2.2133    6.5437    0.0895 H       1  LIG1        0.0668
     16 S           0.5255    9.2343   -0.0464 S.3     1  LIG1       -0.1389
     17 H           0.8771    9.4000    1.2480 H       1  LIG1        0.1072
     18 C          -2.4146    7.3862   -0.0735 C.ar    1  LIG1        0.1719
     19 C          -2.9538    8.6482   -0.1324 C.ar    1  LIG1        0.0005
     20 C          -4.3732    8.4748   -0.1519 C.ar    1  LIG1        0.0433
     21 C          -4.5963    7.1275   -0.1043 C.ar    1  LIG1        0.1058
     22 O          -3.4129    6.4520   -0.0600 O.2     1  LIG1       -0.4587
     23 H          -5.4887    6.5225   -0.0988 H       1  LIG1        0.1041
     24 H          -2.4045    9.5759   -0.1654 H       1  LIG1        0.0667
     25 S          -5.5353    9.8130   -0.2159 S.3     1  LIG1       -0.1396
     26 H          -6.6365    9.0534   -0.3770 H       1  LIG1        0.1072
@<TRIPOS>BOND
     1     9     8    1
     2    26    25    1
     3    25    20    1
     4    24    19    1
     5    20    19   ar
     6    20    21   ar
     7    19    18   ar
     8    21    23    1
     9    21    22   ar
    10    18    22   ar
    11    18    13    1
    12    16    12    1
    13    16    17    1
    14    13    14   ar
    15    13    12   ar
    16    14    10   ar
    17    12    11   ar
    18    10    11   ar
    19    10     4    1
    20     5     4   ar
    21     5     1   ar
    22    11    15    1
    23     4     3   ar
    24     6     1    1
    25     1     2   ar
    26     3     2   ar
    27     3     8    1
    28     2     7    1
