@<TRIPOS>MOLECULE
mol_data/opt/b3lyp/geoms/mol2/12ag12ag-12ag-.out
 26 28 0 0 0
SMALL
GASTEIGER

@<TRIPOS>ATOM
      1 C           0.3513    1.7210   -0.0768 C.ar    1  LIG1        0.0938
      2 C           1.7068    1.8097   -0.0915 C.ar    1  LIG1       -0.0099
      3 C           2.0186    3.2091   -0.0760 C.ar    1  LIG1        0.0537
      4 C           0.8081    3.8752   -0.0631 C.ar    1  LIG1        0.1828
      5 O          -0.2094    2.9654   -0.0625 O.2     1  LIG1       -0.4587
      6 H          -0.3437    0.8964   -0.0774 H       1  LIG1        0.1030
      7 H           2.4166    0.9962   -0.1137 H       1  LIG1        0.0660
      8 S           3.6392    3.9303   -0.1612 S.3     1  LIG1       -0.1389
      9 H           3.9541    3.8418    1.1509 H       1  LIG1        0.1072
     10 C           0.4327    5.2647   -0.0485 C.ar    1  LIG1        0.1729
     11 C           1.1407    6.4396   -0.0624 C.ar    1  LIG1        0.0012
     12 C           0.1802    7.4929   -0.0363 C.ar    1  LIG1        0.0544
     13 C          -1.0643    6.8904    0.0025 C.ar    1  LIG1        0.1838
     14 O          -0.9114    5.5355   -0.0027 O.2     1  LIG1       -0.4475
     15 H           2.2137    6.5426   -0.0908 H       1  LIG1        0.0668
     16 S           0.5261    9.2337    0.0336 S.3     1  LIG1       -0.1389
     17 H           0.8844    9.3987   -1.2590 H       1  LIG1        0.1072
     18 C          -2.4147    7.3866    0.0451 C.ar    1  LIG1        0.1719
     19 C          -2.9538    8.6487    0.1024 C.ar    1  LIG1        0.0005
     20 C          -4.3734    8.4758    0.1122 C.ar    1  LIG1        0.0433
     21 C          -4.5966    7.1287    0.0608 C.ar    1  LIG1        0.1058
     22 O          -3.4133    6.4527    0.0237 O.2     1  LIG1       -0.4587
     23 H          -5.4893    6.5241    0.0484 H       1  LIG1        0.1041
     24 H          -2.4045    9.5761    0.1409 H       1  LIG1        0.0667
     25 S          -5.5354    9.8144    0.1696 S.3     1  LIG1       -0.1396
     26 H          -6.6361    9.0562    0.3409 H       1  LIG1        0.1072
@<TRIPOS>BOND
     1    17    16    1
     2     8     3    1
     3     8     9    1
     4     7     2    1
     5     2     1   ar
     6     2     3   ar
     7    15    11    1
     8     6     1    1
     9     1     5   ar
    10     3     4   ar
    11     4     5   ar
    12     4    10    1
    13    11    10   ar
    14    11    12   ar
    15    10    14   ar
    16    12    13   ar
    17    12    16    1
    18    14    13   ar
    19    13    18    1
    20    22    18   ar
    21    22    21   ar
    22    18    19   ar
    23    23    21    1
    24    21    20   ar
    25    19    20   ar
    26    19    24    1
    27    20    25    1
    28    25    26    1
