@<TRIPOS>MOLECULE
mol_data/opt/b3lyp/geoms/mol2/12ag12ag12ag-12ag-.out
 34 37 0 0 0
SMALL
GASTEIGER

@<TRIPOS>ATOM
      1 C           0.5869    1.7368    0.0436 C.ar    1  LIG1        0.0938
      2 C           1.9370    1.8685    0.1173 C.ar    1  LIG1       -0.0099
      3 C           2.2039    3.2772    0.1204 C.ar    1  LIG1        0.0537
      4 C           0.9741    3.9042    0.0574 C.ar    1  LIG1        0.1828
      5 O          -0.0126    2.9621    0.0108 O.2     1  LIG1       -0.4587
      6 H          -0.0804    0.8902    0.0109 H       1  LIG1        0.1030
      7 H           2.6707    1.0778    0.1675 H       1  LIG1        0.0660
      8 S           3.7932    4.0522    0.2820 S.3     1  LIG1       -0.1389
      9 H           4.2012    3.9114   -0.9994 H       1  LIG1        0.1072
     10 C           0.5544    5.2805    0.0308 C.ar    1  LIG1        0.1729
     11 C           1.2238    6.4781    0.0666 C.ar    1  LIG1        0.0012
     12 C           0.2320    7.4994    0.0105 C.ar    1  LIG1        0.0544
     13 C          -0.9916    6.8569   -0.0672 C.ar    1  LIG1        0.1838
     14 O          -0.7950    5.5072   -0.0587 O.2     1  LIG1       -0.4475
     15 H           2.2919    6.6144    0.1273 H       1  LIG1        0.0668
     16 S           0.5168    9.2514   -0.0441 S.3     1  LIG1       -0.1389
     17 H           0.9379    9.4016    1.2310 H       1  LIG1        0.1072
     18 C          -2.3515    7.3111   -0.1521 C.ar    1  LIG1        0.1729
     19 C          -2.9345    8.5508   -0.2498 C.ar    1  LIG1        0.0012
     20 C          -4.3426    8.3358   -0.2762 C.ar    1  LIG1        0.0544
     21 C          -4.5343    6.9671   -0.2068 C.ar    1  LIG1        0.1838
     22 O          -3.3243    6.3438   -0.1334 O.2     1  LIG1       -0.4475
     23 H          -2.4240    9.4992   -0.3028 H       1  LIG1        0.0668
     24 S          -5.5963    9.5794   -0.4686 S.3     1  LIG1       -0.1389
     25 H          -5.5420   10.0846    0.7838 H       1  LIG1        0.1072
     26 C          -5.6974    6.1200   -0.1971 C.ar    1  LIG1        0.1719
     27 C          -7.0454    6.3678   -0.2927 C.ar    1  LIG1        0.0005
     28 C          -7.6916    5.0952   -0.2058 C.ar    1  LIG1        0.0433
     29 C          -6.6973    4.1682   -0.0660 C.ar    1  LIG1        0.1058
     30 O          -5.4779    4.7775   -0.0607 O.2     1  LIG1       -0.4587
     31 H          -6.6919    3.0947    0.0342 H       1  LIG1        0.1041
     32 H          -7.5098    7.3336   -0.4146 H       1  LIG1        0.0667
     33 S          -9.4492    4.8695   -0.2738 S.3     1  LIG1       -0.1396
     34 H          -9.4340    3.5231   -0.2190 H       1  LIG1        0.1072
@<TRIPOS>BOND
     1     9     8    1
     2    24    20    1
     3    24    25    1
     4    32    27    1
     5    23    19    1
     6    27    28   ar
     7    27    26   ar
     8    20    19   ar
     9    20    21   ar
    10    33    34    1
    11    33    28    1
    12    19    18   ar
    13    21    26    1
    14    21    22   ar
    15    28    29   ar
    16    26    30   ar
    17    18    22   ar
    18    18    13    1
    19    13    14   ar
    20    13    12   ar
    21    29    30   ar
    22    29    31    1
    23    14    10   ar
    24    16    12    1
    25    16    17    1
    26    12    11   ar
    27     5     1   ar
    28     5     4   ar
    29     6     1    1
    30    10     4    1
    31    10    11   ar
    32     1     2   ar
    33     4     3   ar
    34    11    15    1
    35     2     3   ar
    36     2     7    1
    37     3     8    1
