@<TRIPOS>MOLECULE
mol_data/opt/b3lyp/geoms/mol2/12ag12ag-12ag12ag-.out
 34 37 0 0 0
SMALL
GASTEIGER

@<TRIPOS>ATOM
      1 C           0.4035    1.6936   -0.0001 C.ar    1  LIG1        0.0938
      2 C           1.7625    1.7199   -0.0001 C.ar    1  LIG1       -0.0099
      3 C           2.1371    3.1032   -0.0000 C.ar    1  LIG1        0.0537
      4 C           0.9582    3.8244   -0.0001 C.ar    1  LIG1        0.1828
      5 O          -0.1034    2.9505   -0.0001 O.2     1  LIG1       -0.4587
      6 H          -0.3199    0.8936   -0.0001 H       1  LIG1        0.1030
      7 H           2.4302    0.8708   -0.0001 H       1  LIG1        0.0660
      8 S           3.8345    3.5958    0.0000 S.3     1  LIG1       -0.1389
      9 H           3.6461    4.9255    0.0001 H       1  LIG1        0.1072
     10 C           0.6169    5.2217   -0.0001 C.ar    1  LIG1        0.1729
     11 C           1.3404    6.3912   -0.0001 C.ar    1  LIG1        0.0012
     12 C           0.3984    7.4607   -0.0001 C.ar    1  LIG1        0.0544
     13 C          -0.8559    6.8787   -0.0001 C.ar    1  LIG1        0.1838
     14 O          -0.7146    5.5120   -0.0001 O.2     1  LIG1       -0.4475
     15 H           2.4126    6.5087   -0.0000 H       1  LIG1        0.0668
     16 S           0.9264    9.1479   -0.0001 S.3     1  LIG1       -0.1389
     17 H          -0.2872    9.7222   -0.0001 H       1  LIG1        0.1072
     18 C          -2.2056    7.3684   -0.0002 C.ar    1  LIG1        0.1729
     19 C          -2.7779    8.6197   -0.0002 C.ar    1  LIG1        0.0012
     20 C          -4.1903    8.4282   -0.0003 C.ar    1  LIG1        0.0544
     21 C          -4.4016    7.0627   -0.0002 C.ar    1  LIG1        0.1838
     22 O          -3.1869    6.4217   -0.0002 O.2     1  LIG1       -0.4475
     23 H          -2.2816    9.5773   -0.0002 H       1  LIG1        0.0668
     24 S          -5.3030    9.8030   -0.0003 S.3     1  LIG1       -0.1389
     25 H          -6.4531    9.1103   -0.0003 H       1  LIG1        0.1072
     26 C          -5.5595    6.2089   -0.0003 C.ar    1  LIG1        0.1719
     27 C          -6.9184    6.4250   -0.0004 C.ar    1  LIG1        0.0005
     28 C          -7.5344    5.1332   -0.0004 C.ar    1  LIG1        0.0433
     29 C          -6.5167    4.2245   -0.0003 C.ar    1  LIG1        0.1058
     30 O          -5.3116    4.8652   -0.0002 O.2     1  LIG1       -0.4587
     31 H          -6.4813    3.1471   -0.0003 H       1  LIG1        0.1041
     32 H          -7.4403    7.3690   -0.0004 H       1  LIG1        0.0667
     33 S          -9.2896    4.8748   -0.0004 S.3     1  LIG1       -0.1396
     34 H          -9.2470    3.5282   -0.0003 H       1  LIG1        0.1072
@<TRIPOS>BOND
     1    33    28    1
     2    33    34    1
     3    32    27    1
     4    27    28   ar
     5    27    26   ar
     6    28    29   ar
     7    24    20    1
     8    24    25    1
     9    26    21    1
    10    26    30   ar
    11    29    31    1
    12    29    30   ar
    13    20    21   ar
    14    20    19   ar
    15    21    22   ar
    16    19    23    1
    17    19    18   ar
    18    22    18   ar
    19    18    13    1
    20    13    14   ar
    21    13    12   ar
    22     5     4   ar
    23     5     1   ar
    24    14    10   ar
    25    12    16    1
    26    12    11   ar
    27    10     4    1
    28    10    11   ar
    29    16    17    1
    30     2     7    1
    31     2     1   ar
    32     2     3   ar
    33     4     3   ar
    34     1     6    1
    35    11    15    1
    36     3     8    1
    37     8     9    1
