@<TRIPOS>MOLECULE
mol_data/opt/b3lyp/geoms/mol2/12ah12hl12if-12fi-.out
 46 49 0 0 0
SMALL
GASTEIGER

@<TRIPOS>ATOM
      1 C           1.1723    1.6580    1.3425 C.ar    1  LIG1        0.0946
      2 C           2.3592    1.7323    0.6811 C.ar    1  LIG1       -0.0024
      3 C           2.4381    3.0611    0.1491 C.ar    1  LIG1        0.0741
      4 C           1.2891    3.7122    0.5505 C.ar    1  LIG1        0.1921
      5 O           0.5060    2.8431    1.2688 O.2     1  LIG1       -0.4579
      6 H           0.6708    0.8693    1.8806 H       1  LIG1        0.1030
      7 H           3.0861    0.9400    0.5651 H       1  LIG1        0.0668
      8 N           3.4608    3.6277   -0.6661 N.pl3   1  LIG1       -0.3550
      9 H           4.3149    3.0828   -0.6044 H       1  LIG1        0.1424
     10 H           3.1820    3.6505   -1.6449 H       1  LIG1        0.1424
     11 C           0.8366    5.0617    0.3807 C.ar    1  LIG1        0.1968
     12 C           1.5270    6.2407    0.1658 C.ar    1  LIG1        0.1172
     13 C           0.5237    7.2521    0.0429 C.ar    1  LIG1        0.1902
     14 C          -0.7055    6.6533    0.2335 C.ar    1  LIG1        0.2143
     15 O          -0.5203    5.3119    0.4206 O.2     1  LIG1       -0.4428
     16 N           2.8909    6.4604    0.1465 N.pl3   1  LIG1       -0.3521
     17 H           3.4362    5.6551   -0.1621 H       1  LIG1        0.1425
     18 H           3.1463    7.3392   -0.2835 H       1  LIG1        0.1425
     19 O           0.8324    8.5653   -0.2060 O.3     1  LIG1       -0.4896
     20 C           0.3332    9.0724   -1.4500 C.3     1  LIG1        0.0791
     21 H           0.7169   10.0904   -1.5423 H       1  LIG1        0.0660
     22 H           0.6901    8.4659   -2.2911 H       1  LIG1        0.0660
     23 H          -0.7614    9.0930   -1.4628 H       1  LIG1        0.0660
     24 C          -2.0573    7.1460    0.2782 C.ar    1  LIG1        0.1810
     25 C          -2.6112    8.3489    0.6679 C.ar    1  LIG1        0.0407
     26 C          -4.0173    8.1979    0.4743 C.ar    1  LIG1        0.1696
     27 C          -4.2380    6.9201   -0.0028 C.ar    1  LIG1        0.2157
     28 O          -3.0336    6.2740   -0.1292 O.2     1  LIG1       -0.4443
     29 C          -1.9549    9.5575    1.2605 C.3     1  LIG1       -0.0325
     30 H          -2.3156    9.7272    2.2814 H       1  LIG1        0.0280
     31 H          -2.2016   10.4584    0.6873 H       1  LIG1        0.0280
     32 H          -0.8695    9.4539    1.2876 H       1  LIG1        0.0280
     33 O          -4.9037    9.1784    0.7634 O.3     1  LIG1       -0.5029
     34 H          -5.8060    8.8541    0.5759 H       1  LIG1        0.2923
     35 C          -5.4354    6.2163   -0.3583 C.ar    1  LIG1        0.2147
     36 C          -6.7571    6.5951   -0.4069 C.ar    1  LIG1        0.1688
     37 C          -7.5343    5.4617   -0.8120 C.ar    1  LIG1        0.0295
     38 C          -6.6197    4.4667   -0.9928 C.ar    1  LIG1        0.0993
     39 O          -5.3525    4.9000   -0.7170 O.2     1  LIG1       -0.4556
     40 H          -6.7064    3.4355   -1.2974 H       1  LIG1        0.1033
     41 O          -7.2369    7.8453   -0.0413 O.3     1  LIG1       -0.5030
     42 H          -7.7309    8.2250   -0.7816 H       1  LIG1        0.2923
     43 C          -9.0208    5.4080   -0.9855 C.3     1  LIG1       -0.0332
     44 H          -9.3504    4.3963   -1.2347 H       1  LIG1        0.0280
     45 H          -9.3643    6.0707   -1.7899 H       1  LIG1        0.0280
     46 H          -9.5380    5.7154   -0.0698 H       1  LIG1        0.0280
@<TRIPOS>BOND
     1    22    20    1
     2    45    43    1
     3    10     8    1
     4    21    20    1
     5    23    20    1
     6    20    19    1
     7    40    38    1
     8    44    43    1
     9    38    37   ar
    10    38    39   ar
    11    43    37    1
    12    43    46    1
    13    37    36   ar
    14    42    41    1
    15    39    35   ar
    16     8     9    1
    17     8     3    1
    18    36    35   ar
    19    36    41    1
    20    35    27    1
    21    18    16    1
    22    19    13    1
    23    17    16    1
    24    28    27   ar
    25    28    24   ar
    26    27    26   ar
    27    13    12   ar
    28    13    14   ar
    29    16    12    1
    30     3     4   ar
    31     3     2   ar
    32    12    11   ar
    33    14    24    1
    34    14    15   ar
    35    24    25   ar
    36    11    15   ar
    37    11     4    1
    38    26    25   ar
    39    26    33    1
    40     4     5   ar
    41     7     2    1
    42    34    33    1
    43    25    29    1
    44     2     1   ar
    45    31    29    1
    46    29    32    1
    47    29    30    1
    48     5     1   ar
    49     1     6    1
