@<TRIPOS>MOLECULE
mol_data/opt/b3lyp/geoms/mol2/12ah12he-6ah13aa.out
 41 44 0 0 0
SMALL
GASTEIGER

@<TRIPOS>ATOM
      1 C           0.4968    1.5959   -0.5198 C.ar    1  LIG1        0.0946
      2 C           1.7318    1.6836    0.0464 C.ar    1  LIG1       -0.0024
      3 C           1.9728    3.0792    0.2836 C.ar    1  LIG1        0.0741
      4 C           0.8493    3.7398   -0.1856 C.ar    1  LIG1        0.1920
      5 O          -0.0610    2.8197   -0.6757 O.2     1  LIG1       -0.4579
      6 H          -0.1002    0.7597   -0.8499 H       1  LIG1        0.1030
      7 H           2.3891    0.8626    0.2961 H       1  LIG1        0.0668
      8 N           3.0611    3.6297    0.9423 N.pl3   1  LIG1       -0.3550
      9 H           3.9050    3.0766    0.8803 H       1  LIG1        0.1424
     10 H           3.2181    4.6173    0.7387 H       1  LIG1        0.1424
     11 C           0.5086    5.1299   -0.2319 C.ar    1  LIG1        0.1941
     12 C           1.2782    6.2685   -0.2749 C.ar    1  LIG1        0.0904
     13 C           0.3705    7.3854   -0.2167 C.ar    1  LIG1        0.0918
     14 C          -0.9100    6.8500   -0.1731 C.ar    1  LIG1        0.1545
     15 O          -0.8179    5.4882   -0.1884 O.2     1  LIG1       -0.4484
     16 N           2.6895    6.3296   -0.3603 N.pl3   1  LIG1       -0.3540
     17 H           3.0221    5.9993   -1.2636 H       1  LIG1        0.1425
     18 H           3.0069    7.2877   -0.2397 H       1  LIG1        0.1425
     19 C           0.7901    8.7367   -0.2356 C.1     1  LIG1       -0.0640
     20 C           1.2375    9.8638   -0.2569 C.1     1  LIG1       -0.1137
     21 H           1.6052   10.8637   -0.2678 H       1  LIG1        0.1232
     22 C          -3.3767    6.5730   -0.1324 C.ar    1  LIG1        0.0391
     23 C          -2.2441    7.4119   -0.1311 C.ar    1  LIG1        0.0384
     24 C          -2.4767    8.7959   -0.1087 C.ar    1  LIG1       -0.0267
     25 C          -3.7772    9.2963   -0.0587 C.ar    1  LIG1        0.0530
     26 C          -4.8482    8.3628   -0.0045 C.ar    1  LIG1        0.1076
     27 N          -4.6197    7.0348   -0.0722 N.ar    1  LIG1       -0.2510
     28 H          -1.6422    9.4888   -0.1417 H       1  LIG1        0.0644
     29 H          -3.2566    5.4953   -0.1802 H       1  LIG1        0.0837
     30 N          -4.0147   10.6714   -0.0348 N.pl3   1  LIG1       -0.3563
     31 H          -3.2264   11.2258   -0.3441 H       1  LIG1        0.1424
     32 H          -4.8689   10.9474   -0.5043 H       1  LIG1        0.1424
     33 C          -6.2519    8.7466    0.0928 C.ar    1  LIG1        0.0667
     34 C          -6.9371    9.9187    0.4223 C.ar    1  LIG1       -0.0349
     35 C          -8.3251    9.6313    0.3790 C.ar    1  LIG1       -0.0438
     36 C          -8.4602    8.3007    0.0276 C.ar    1  LIG1        0.0022
     37 N          -7.2083    7.7840   -0.1424 N.ar    1  LIG1       -0.3594
     38 H          -6.9426    6.8310   -0.3457 H       1  LIG1        0.1654
     39 H          -9.3423    7.6942   -0.1150 H       1  LIG1        0.0807
     40 H          -6.4904   10.8498    0.7355 H       1  LIG1        0.0639
     41 H          -9.1335   10.3176    0.5874 H       1  LIG1        0.0633
@<TRIPOS>BOND
     1    17    16    1
     2     6     1    1
     3     5     1   ar
     4     5     4   ar
     5     1     2   ar
     6    32    30    1
     7    16    12    1
     8    16    18    1
     9    38    37    1
    10    31    30    1
    11    12    11   ar
    12    12    13   ar
    13    21    20    1
    14    20    19    3
    15    19    13    1
    16    11    15   ar
    17    11     4    1
    18    13    14   ar
    19    15    14   ar
    20     4     3   ar
    21    29    22    1
    22    14    23    1
    23    37    36   ar
    24    37    33   ar
    25    28    24    1
    26    22    23   ar
    27    22    27   ar
    28    23    24   ar
    29    39    36    1
    30    24    25   ar
    31    27    26   ar
    32    25    30    1
    33    25    26   ar
    34    26    33    1
    35    36    35   ar
    36     2     3   ar
    37     2     7    1
    38    33    34   ar
    39     3     8    1
    40    35    34   ar
    41    35    41    1
    42    34    40    1
    43    10     8    1
    44     9     8    1
