@<TRIPOS>MOLECULE
mol_data/opt/b3lyp/geoms/mol2/12ai12ai12ai.out
 32 34 0 0 0
SMALL
GASTEIGER

@<TRIPOS>ATOM
      1 C           0.3837    1.5630   -0.1245 C.ar    1  LIG1        0.0930
      2 C           1.7363    1.6742   -0.0160 C.ar    1  LIG1       -0.0203
      3 C           2.0365    3.0735    0.0376 C.ar    1  LIG1       -0.0017
      4 C           0.8172    3.7135   -0.0475 C.ar    1  LIG1        0.1726
      5 O          -0.1942    2.7942   -0.1459 O.2     1  LIG1       -0.4596
      6 H          -0.2926    0.7254   -0.1907 H       1  LIG1        0.1029
      7 H           2.4489    0.8624    0.0274 H       1  LIG1        0.0652
      8 C           3.3917    3.7015    0.1648 C.3     1  LIG1       -0.0360
      9 H           3.4186    4.4431    0.9715 H       1  LIG1        0.0279
     10 H           3.6948    4.2136   -0.7572 H       1  LIG1        0.0279
     11 H           4.1498    2.9449    0.3833 H       1  LIG1        0.0279
     12 C           0.4517    5.1031   -0.0530 C.ar    1  LIG1        0.1712
     13 C           1.1876    6.2657   -0.0831 C.ar    1  LIG1       -0.0091
     14 C           0.2646    7.3509   -0.0549 C.ar    1  LIG1       -0.0009
     15 C          -0.9883    6.7727   -0.0163 C.ar    1  LIG1        0.1736
     16 O          -0.8793    5.4071   -0.0131 O.2     1  LIG1       -0.4484
     17 H           2.2637    6.3444   -0.1266 H       1  LIG1        0.0659
     18 C           0.5942    8.8132   -0.0664 C.3     1  LIG1       -0.0360
     19 H           0.0524    9.3527    0.7186 H       1  LIG1        0.0279
     20 H           0.3338    9.2836   -1.0228 H       1  LIG1        0.0279
     21 H           1.6635    8.9708    0.0968 H       1  LIG1        0.0279
     22 C          -2.3120    7.3314    0.0171 C.ar    1  LIG1        0.1702
     23 C          -2.7884    8.6162   -0.0958 C.ar    1  LIG1       -0.0099
     24 C          -4.2152    8.5444    0.0326 C.ar    1  LIG1       -0.0120
     25 C          -4.4963    7.2216    0.2101 C.ar    1  LIG1        0.0956
     26 O          -3.3572    6.4694    0.2051 O.2     1  LIG1       -0.4596
     27 H          -5.4173    6.6761    0.3465 H       1  LIG1        0.1032
     28 H          -2.2004    9.5058   -0.2647 H       1  LIG1        0.0659
     29 C          -5.1902    9.6817   -0.0229 C.3     1  LIG1       -0.0367
     30 H          -6.2180    9.3278    0.0964 H       1  LIG1        0.0278
     31 H          -5.1297   10.2142   -0.9789 H       1  LIG1        0.0278
     32 H          -4.9963   10.4148    0.7683 H       1  LIG1        0.0278
@<TRIPOS>BOND
     1    20    18    1
     2    31    29    1
     3    10     8    1
     4    28    23    1
     5     6     1    1
     6     5     1   ar
     7     5     4   ar
     8    17    13    1
     9     1     2   ar
    10    23    22   ar
    11    23    24   ar
    12    13    14   ar
    13    13    12   ar
    14    18    14    1
    15    18    21    1
    16    18    19    1
    17    14    15   ar
    18    12     4    1
    19    12    16   ar
    20     4     3   ar
    21    29    24    1
    22    29    30    1
    23    29    32    1
    24    15    16   ar
    25    15    22    1
    26     2     7    1
    27     2     3   ar
    28    22    26   ar
    29    24    25   ar
    30     3     8    1
    31     8    11    1
    32     8     9    1
    33    26    25   ar
    34    25    27    1
