@<TRIPOS>MOLECULE
mol_data/opt/b3lyp/geoms/mol2/12ai12ai-.out
 22 23 0 0 0
SMALL
GASTEIGER

@<TRIPOS>ATOM
      1 C           0.1314    1.8040   -0.0986 C.ar    1  LIG1        0.0930
      2 C           1.4886    1.7481   -0.0625 C.ar    1  LIG1       -0.0203
      3 C           1.9647    3.1030   -0.0163 C.ar    1  LIG1       -0.0017
      4 C           0.8333    3.8869   -0.0283 C.ar    1  LIG1        0.1725
      5 O          -0.2913    3.0983   -0.0786 O.2     1  LIG1       -0.4596
      6 H          -0.6454    1.0565   -0.1382 H       1  LIG1        0.1029
      7 H           2.0960    0.8536   -0.0677 H       1  LIG1        0.0652
      8 C           3.4015    3.5300    0.0336 C.3     1  LIG1       -0.0360
      9 H           3.4959    4.6153    0.0626 H       1  LIG1        0.0279
     10 H           3.9498    3.1631   -0.8421 H       1  LIG1        0.0279
     11 H           3.9014    3.1202    0.9193 H       1  LIG1        0.0279
     12 C           0.5737    5.3044   -0.0008 C.ar    1  LIG1        0.1702
     13 C          -0.5906    6.0263   -0.0152 C.ar    1  LIG1       -0.0099
     14 C          -0.2223    7.4131    0.0289 C.ar    1  LIG1       -0.0120
     15 C           1.1400    7.4270    0.0668 C.ar    1  LIG1        0.0956
     16 O           1.6451    6.1547    0.0496 O.2     1  LIG1       -0.4596
     17 H           1.8702    8.2204    0.1063 H       1  LIG1        0.1032
     18 H          -1.5884    5.6147   -0.0528 H       1  LIG1        0.0659
     19 C          -1.1428    8.5963    0.0325 C.3     1  LIG1       -0.0367
     20 H          -1.8177    8.5743    0.8956 H       1  LIG1        0.0278
     21 H          -1.7690    8.6175   -0.8666 H       1  LIG1        0.0278
     22 H          -0.5828    9.5348    0.0710 H       1  LIG1        0.0278
@<TRIPOS>BOND
     1    21    19    1
     2    10     8    1
     3     6     1    1
     4     1     5   ar
     5     1     2   ar
     6     5     4   ar
     7     7     2    1
     8     2     3   ar
     9    18    13    1
    10     4     3   ar
    11     4    12    1
    12     3     8    1
    13    13    12   ar
    14    13    14   ar
    15    12    16   ar
    16    14    19    1
    17    14    15   ar
    18    19    22    1
    19    19    20    1
    20     8     9    1
    21     8    11    1
    22    16    15   ar
    23    15    17    1
