@<TRIPOS>MOLECULE
mol_data/opt/b3lyp/geoms/mol2/12ai12ai-12ai12ai.out
 42 45 0 0 0
SMALL
GASTEIGER

@<TRIPOS>ATOM
      1 C           0.1771    1.6309   -0.0585 C.ar    1  LIG1        0.0930
      2 C           1.5353    1.6185    0.0046 C.ar    1  LIG1       -0.0203
      3 C           1.9679    2.9866    0.0388 C.ar    1  LIG1       -0.0017
      4 C           0.8119    3.7353   -0.0104 C.ar    1  LIG1        0.1726
      5 O          -0.2863    2.9110   -0.0688 O.2     1  LIG1       -0.4596
      6 H          -0.5749    0.8585   -0.0970 H       1  LIG1        0.1029
      7 H           2.1702    0.7439    0.0300 H       1  LIG1        0.0652
      8 C           3.3877    3.4654    0.1010 C.3     1  LIG1       -0.0360
      9 H           3.4511    4.4789    0.4995 H       1  LIG1        0.0279
     10 H           3.8514    3.4722   -0.8934 H       1  LIG1        0.0279
     11 H           3.9899    2.8062    0.7344 H       1  LIG1        0.0279
     12 C           0.5175    5.1416   -0.0096 C.ar    1  LIG1        0.1712
     13 C          -0.6635    5.8391   -0.0032 C.ar    1  LIG1       -0.0091
     14 C          -0.3390    7.2296   -0.0072 C.ar    1  LIG1       -0.0009
     15 C           1.0398    7.2887   -0.0156 C.ar    1  LIG1        0.1736
     16 O           1.5689    6.0170   -0.0191 O.2     1  LIG1       -0.4484
     17 H          -1.6523    5.4044    0.0055 H       1  LIG1        0.0659
     18 C          -1.3222    8.3625   -0.0039 C.3     1  LIG1       -0.0360
     19 H          -1.9625    8.3182    0.8850 H       1  LIG1        0.0279
     20 H          -1.9824    8.3054   -0.8771 H       1  LIG1        0.0279
     21 H          -0.8237    9.3314   -0.0158 H       1  LIG1        0.0279
     22 C           2.0070    8.3472   -0.0245 C.ar    1  LIG1        0.1713
     23 C           3.3817    8.3534   -0.0528 C.ar    1  LIG1       -0.0091
     24 C           3.7984    9.7159   -0.0470 C.ar    1  LIG1       -0.0009
     25 C           2.6379   10.4630   -0.0158 C.ar    1  LIG1        0.1736
     26 O           1.5450    9.6333   -0.0015 O.2     1  LIG1       -0.4484
     27 H           4.0200    7.4826   -0.0786 H       1  LIG1        0.0659
     28 C           5.2075   10.2271   -0.0714 C.3     1  LIG1       -0.0360
     29 H           5.4387   10.8219    0.8204 H       1  LIG1        0.0279
     30 H           5.3918   10.8654   -0.9437 H       1  LIG1        0.0279
     31 H           5.9187    9.3983   -0.1104 H       1  LIG1        0.0279
     32 C           2.3875   11.8767    0.0026 C.ar    1  LIG1        0.1702
     33 C           3.2129   12.9762    0.0092 C.ar    1  LIG1       -0.0099
     34 C           2.3655   14.1333    0.0270 C.ar    1  LIG1       -0.0120
     35 C           1.0905   13.6495    0.0302 C.ar    1  LIG1        0.0956
     36 O           1.0807   12.2834    0.0155 O.2     1  LIG1       -0.4596
     37 H           0.1220   14.1251    0.0421 H       1  LIG1        0.1032
     38 H           4.2926   12.9682    0.0035 H       1  LIG1        0.0659
     39 C           2.7919   15.5704    0.0401 C.3     1  LIG1       -0.0367
     40 H           1.9271   16.2396    0.0530 H       1  LIG1        0.0278
     41 H           3.3918   15.8180   -0.8430 H       1  LIG1        0.0278
     42 H           3.4031   15.7985    0.9206 H       1  LIG1        0.0278
@<TRIPOS>BOND
     1    30    28    1
     2    10     8    1
     3    20    18    1
     4    41    39    1
     5    31    28    1
     6     6     1    1
     7    27    23    1
     8    28    24    1
     9    28    29    1
    10     5     1   ar
    11     5     4   ar
    12     1     2   ar
    13    23    24   ar
    14    23    22   ar
    15    24    25   ar
    16    22    15    1
    17    22    26   ar
    18    16    15   ar
    19    16    12   ar
    20    25    26   ar
    21    25    32    1
    22    21    18    1
    23    15    14   ar
    24     4    12    1
    25     4     3   ar
    26    12    13   ar
    27    14    18    1
    28    14    13   ar
    29    18    19    1
    30    13    17    1
    31    32    33   ar
    32    32    36   ar
    33    38    33    1
    34     2     7    1
    35     2     3   ar
    36    33    34   ar
    37    36    35   ar
    38    34    35   ar
    39    34    39    1
    40    35    37    1
    41     3     8    1
    42    39    40    1
    43    39    42    1
    44     8     9    1
    45     8    11    1
