@<TRIPOS>MOLECULE
mol_data/opt/b3lyp/geoms/mol2/12ai12ai-12ai-12ai-.out
 42 45 0 0 0
SMALL
GASTEIGER

@<TRIPOS>ATOM
      1 C          -0.2736    1.6857   -0.0213 C.ar    1  LIG1        0.0930
      2 C           1.0778    1.5384   -0.0249 C.ar    1  LIG1       -0.0203
      3 C           1.6467    2.8570   -0.0166 C.ar    1  LIG1       -0.0017
      4 C           0.5691    3.7160   -0.0087 C.ar    1  LIG1        0.1726
      5 O          -0.6083    3.0055   -0.0114 O.2     1  LIG1       -0.4596
      6 H          -1.0995    0.9916   -0.0245 H       1  LIG1        0.1029
      7 H           1.6225    0.6045   -0.0324 H       1  LIG1        0.0652
      8 C           3.1100    3.1867   -0.0175 C.3     1  LIG1       -0.0360
      9 H           3.2839    4.2625   -0.0044 H       1  LIG1        0.0279
     10 H           3.6021    2.7731   -0.9058 H       1  LIG1        0.0279
     11 H           3.6081    2.7503    0.8563 H       1  LIG1        0.0279
     12 C           0.4145    5.1445    0.0012 C.ar    1  LIG1        0.1712
     13 C          -0.6911    5.9604    0.0094 C.ar    1  LIG1       -0.0091
     14 C          -0.2232    7.3058    0.0167 C.ar    1  LIG1       -0.0009
     15 C           1.1562    7.2228    0.0124 C.ar    1  LIG1        0.1736
     16 O           1.5470    5.9075    0.0028 O.2     1  LIG1       -0.4484
     17 H          -1.7201    5.6322    0.0104 H       1  LIG1        0.0659
     18 C          -1.0582    8.5508    0.0271 C.3     1  LIG1       -0.0360
     19 H          -2.1224    8.3023    0.0330 H       1  LIG1        0.0279
     20 H          -0.8675    9.1748   -0.8543 H       1  LIG1        0.0279
     21 H          -0.8559    9.1676    0.9111 H       1  LIG1        0.0279
     22 C           2.1919    8.2122    0.0138 C.ar    1  LIG1        0.1713
     23 C           2.1784    9.5900    0.0161 C.ar    1  LIG1       -0.0091
     24 C           3.5342   10.0253    0.0198 C.ar    1  LIG1       -0.0009
     25 C           4.2967    8.8739    0.0167 C.ar    1  LIG1        0.1736
     26 O           3.4850    7.7697    0.0136 O.2     1  LIG1       -0.4484
     27 H           1.3042   10.2238    0.0193 H       1  LIG1        0.0659
     28 C           4.0238   11.4421    0.0281 C.3     1  LIG1       -0.0360
     29 H           3.1944   12.1376    0.1792 H       1  LIG1        0.0279
     30 H           4.5121   11.7105   -0.9168 H       1  LIG1        0.0279
     31 H           4.7524   11.6114    0.8292 H       1  LIG1        0.0279
     32 C           5.7157    8.6512    0.0152 C.ar    1  LIG1        0.1702
     33 C           6.7963    9.4962   -0.0811 C.ar    1  LIG1       -0.0099
     34 C           7.9724    8.6783   -0.0131 C.ar    1  LIG1       -0.0120
     35 C           7.5169    7.3992    0.1163 C.ar    1  LIG1        0.0956
     36 O           6.1523    7.3603    0.1365 O.2     1  LIG1       -0.4596
     37 H           8.0142    6.4454    0.2010 H       1  LIG1        0.1032
     38 H           6.7636   10.5691   -0.1983 H       1  LIG1        0.0659
     39 C           9.3994    9.1331   -0.0767 C.3     1  LIG1       -0.0367
     40 H           9.6360    9.8253    0.7393 H       1  LIG1        0.0278
     41 H           9.6112    9.6562   -1.0162 H       1  LIG1        0.0278
     42 H          10.0880    8.2865   -0.0050 H       1  LIG1        0.0278
@<TRIPOS>BOND
     1    41    39    1
     2    30    28    1
     3    10     8    1
     4    20    18    1
     5    38    33    1
     6    33    34   ar
     7    33    32   ar
     8    39    34    1
     9    39    42    1
    10    39    40    1
    11     7     2    1
    12     2     1   ar
    13     2     3   ar
    14     6     1    1
    15     1     5   ar
    16     8     3    1
    17     8     9    1
    18     8    11    1
    19     3     4   ar
    20    34    35   ar
    21     5     4   ar
    22     4    12    1
    23    12    16   ar
    24    12    13   ar
    25    16    15   ar
    26    13    17    1
    27    13    14   ar
    28    15    22    1
    29    15    14   ar
    30    26    22   ar
    31    26    25   ar
    32    22    23   ar
    33    32    25    1
    34    32    36   ar
    35    23    27    1
    36    23    24   ar
    37    25    24   ar
    38    14    18    1
    39    24    28    1
    40    18    19    1
    41    18    21    1
    42    28    29    1
    43    28    31    1
    44    35    36   ar
    45    35    37    1
