@<TRIPOS>MOLECULE
mol_data/opt/b3lyp/geoms/mol2/12ai12ai.out
 22 23 0 0 0
SMALL
GASTEIGER

@<TRIPOS>ATOM
      1 C           0.1658    1.6971   -0.1159 C.ar    1  LIG1        0.0930
      2 C           1.5244    1.7411   -0.0517 C.ar    1  LIG1       -0.0203
      3 C           1.8933    3.1248    0.0159 C.ar    1  LIG1       -0.0017
      4 C           0.7062    3.8229   -0.0199 C.ar    1  LIG1        0.1725
      5 O          -0.3523    2.9550   -0.0989 O.2     1  LIG1       -0.4596
      6 H          -0.5523    0.8940   -0.1697 H       1  LIG1        0.1029
      7 H           2.1969    0.8948   -0.0420 H       1  LIG1        0.0652
      8 C           3.2804    3.6841    0.1156 C.3     1  LIG1       -0.0360
      9 H           3.3140    4.5491    0.7863 H       1  LIG1        0.0279
     10 H           3.6631    4.0119   -0.8593 H       1  LIG1        0.0279
     11 H           3.9752    2.9327    0.5014 H       1  LIG1        0.0279
     12 C           0.4052    5.2319    0.0070 C.ar    1  LIG1        0.1702
     13 C           1.1739    6.3560   -0.1681 C.ar    1  LIG1       -0.0099
     14 C           0.3060    7.4865    0.0011 C.ar    1  LIG1       -0.0120
     15 C          -0.9252    6.9605    0.2593 C.ar    1  LIG1        0.0956
     16 O          -0.8871    5.5956    0.2701 O.2     1  LIG1       -0.4596
     17 H          -1.8911    7.4038    0.4462 H       1  LIG1        0.1032
     18 H           2.2252    6.3808   -0.4135 H       1  LIG1        0.0659
     19 C           0.6733    8.9366   -0.0966 C.3     1  LIG1       -0.0367
     20 H          -0.1981    9.5771    0.0658 H       1  LIG1        0.0278
     21 H           1.0865    9.1794   -1.0822 H       1  LIG1        0.0278
     22 H           1.4306    9.2092    0.6474 H       1  LIG1        0.0278
@<TRIPOS>BOND
     1    21    19    1
     2    10     8    1
     3    18    13    1
     4     6     1    1
     5    13    14   ar
     6    13    12   ar
     7     1     5   ar
     8     1     2   ar
     9     5     4   ar
    10    19    14    1
    11    19    20    1
    12    19    22    1
    13     2     7    1
    14     2     3   ar
    15     4    12    1
    16     4     3   ar
    17    14    15   ar
    18    12    16   ar
    19     3     8    1
    20     8    11    1
    21     8     9    1
    22    15    16   ar
    23    15    17    1
