@<TRIPOS>MOLECULE
mol_data/opt/b3lyp/geoms/mol2/12ai4af-6dh-6ah-.out
 46 49 0 0 0
SMALL
GASTEIGER

@<TRIPOS>ATOM
      1 C           0.5204    1.5643   -0.6392 C.ar    1  LIG1        0.0928
      2 C           1.6720    1.5584    0.0836 C.ar    1  LIG1       -0.0204
      3 C           1.9586    2.9216    0.4234 C.ar    1  LIG1       -0.0047
      4 C           0.9423    3.6705   -0.1333 C.ar    1  LIG1        0.1378
      5 O           0.0605    2.8338   -0.7807 O.2     1  LIG1       -0.4627
      6 H          -0.0726    0.7916   -1.1030 H       1  LIG1        0.1029
      7 H           2.2572    0.6922    0.3591 H       1  LIG1        0.0652
      8 C           3.1253    3.3791    1.2501 C.3     1  LIG1       -0.0361
      9 H           2.8306    4.1331    1.9864 H       1  LIG1        0.0279
     10 H           3.9230    3.8135    0.6348 H       1  LIG1        0.0279
     11 H           3.5596    2.5354    1.7932 H       1  LIG1        0.0279
     12 C           1.5426    6.0804    0.1879 C.ar    1  LIG1       -0.0503
     13 C           1.1756    7.4213    0.1723 C.ar    1  LIG1       -0.0498
     14 C           0.6052    5.0885   -0.1542 C.ar    1  LIG1        0.0210
     15 C          -0.1164    7.8370   -0.1770 C.ar    1  LIG1        0.0264
     16 H           1.9023    8.1754    0.4603 H       1  LIG1        0.0625
     17 C          -0.6850    5.4949   -0.5359 C.ar    1  LIG1       -0.0089
     18 C          -1.0405    6.8414   -0.5556 C.ar    1  LIG1        0.1253
     19 H          -1.4140    4.7458   -0.8287 H       1  LIG1        0.0661
     20 H           2.5563    5.8113    0.4539 H       1  LIG1        0.0625
     21 O          -2.2715    7.2548   -0.9710 O.3     1  LIG1       -0.5061
     22 H          -2.8747    6.5004   -0.9934 H       1  LIG1        0.2922
     23 C          -1.5469    9.8157    0.5716 C.ar    1  LIG1        0.1486
     24 C          -0.4695    9.2779   -0.1701 C.ar    1  LIG1        0.0232
     25 C           0.2935   10.1917   -0.8953 C.ar    1  LIG1       -0.0284
     26 C           0.0020   11.5616   -0.8857 C.ar    1  LIG1        0.0516
     27 C          -1.0914   11.9960   -0.0834 C.ar    1  LIG1        0.0945
     28 N          -1.8339   11.1230    0.6007 N.ar    1  LIG1       -0.2338
     29 H           1.1145    9.8260   -1.5063 H       1  LIG1        0.0643
     30 N          -3.0443    8.3105    2.0792 N.1     1  LIG1       -0.1893
     31 C          -2.3824    8.9799    1.3965 C.1     1  LIG1        0.1197
     32 N           0.7748   12.4433   -1.6275 N.pl3   1  LIG1       -0.3563
     33 H           1.2888   12.0242   -2.3907 H       1  LIG1        0.1424
     34 H           0.3198   13.3080   -1.8882 H       1  LIG1        0.1424
     35 C          -2.8747   13.7425    0.0237 C.ar    1  LIG1        0.0369
     36 C          -1.5062   13.4212    0.0186 C.ar    1  LIG1        0.0220
     37 C          -0.5887   14.4713    0.1470 C.ar    1  LIG1       -0.0289
     38 C          -1.0537   15.7885    0.2716 C.ar    1  LIG1        0.0435
     39 C          -2.4463   15.9836    0.2424 C.ar    1  LIG1        0.0482
     40 N          -3.3305   14.9930    0.1249 N.ar    1  LIG1       -0.2608
     41 H           0.4781   14.2699    0.1922 H       1  LIG1        0.0643
     42 H          -2.8512   16.9923    0.3282 H       1  LIG1        0.0848
     43 H          -3.6122   12.9497   -0.0565 H       1  LIG1        0.0836
     44 N          -0.1839   16.8537    0.4815 N.pl3   1  LIG1       -0.3568
     45 H           0.7619   16.7258    0.1507 H       1  LIG1        0.1424
     46 H          -0.5511   17.7681    0.2580 H       1  LIG1        0.1424
@<TRIPOS>BOND
     1    33    32    1
     2    34    32    1
     3    32    26    1
     4    29    25    1
     5     6     1    1
     6    22    21    1
     7    21    18    1
     8    25    26   ar
     9    25    24   ar
    10    26    27   ar
    11    19    17    1
    12     5     1   ar
    13     5     4   ar
    14     1     2   ar
    15    18    17   ar
    16    18    15   ar
    17    17    14   ar
    18    15    24    1
    19    15    13   ar
    20    24    23   ar
    21    14     4    1
    22    14    12   ar
    23     4     3   ar
    24    27    36    1
    25    27    28   ar
    26    43    35    1
    27    36    35   ar
    28    36    37   ar
    29    35    40   ar
    30     2     7    1
    31     2     3   ar
    32    40    39   ar
    33    37    41    1
    34    37    38   ar
    35    45    44    1
    36    13    12   ar
    37    13    16    1
    38    12    20    1
    39    39    38   ar
    40    39    42    1
    41    46    44    1
    42    38    44    1
    43     3     8    1
    44    23    28   ar
    45    23    31    1
    46    10     8    1
    47     8    11    1
    48     8     9    1
    49    31    30    3
