@<TRIPOS>MOLECULE
mol_data/opt/b3lyp/geoms/mol2/12ai12ai-12ai.out
 32 34 0 0 0
SMALL
GASTEIGER

@<TRIPOS>ATOM
      1 C           0.1169    1.7522   -0.1563 C.ar    1  LIG1        0.0930
      2 C           1.4731    1.7119   -0.0684 C.ar    1  LIG1       -0.0203
      3 C           1.9311    3.0704    0.0032 C.ar    1  LIG1       -0.0017
      4 C           0.7910    3.8422   -0.0518 C.ar    1  LIG1        0.1726
      5 O          -0.3215    3.0412   -0.1481 O.2     1  LIG1       -0.4596
      6 H          -0.6490    0.9957   -0.2251 H       1  LIG1        0.1029
      7 H           2.0906    0.8247   -0.0496 H       1  LIG1        0.0652
      8 C           3.3581    3.5204    0.1059 C.3     1  LIG1       -0.0360
      9 H           3.4315    4.5239    0.5274 H       1  LIG1        0.0279
     10 H           3.8440    3.5391   -0.8777 H       1  LIG1        0.0279
     11 H           3.9335    2.8366    0.7381 H       1  LIG1        0.0279
     12 C           0.5240    5.2542   -0.0241 C.ar    1  LIG1        0.1712
     13 C          -0.6419    5.9748   -0.0029 C.ar    1  LIG1       -0.0091
     14 C          -0.2874    7.3588    0.0190 C.ar    1  LIG1       -0.0009
     15 C           1.0907    7.3900    0.0104 C.ar    1  LIG1        0.1736
     16 O           1.5928    6.1082   -0.0177 O.2     1  LIG1       -0.4484
     17 H          -1.6396    5.5608   -0.0015 H       1  LIG1        0.0659
     18 C          -1.2466    8.5115    0.0458 C.3     1  LIG1       -0.0360
     19 H          -1.8604    8.4881    0.9539 H       1  LIG1        0.0279
     20 H          -1.9337    8.4657   -0.8070 H       1  LIG1        0.0279
     21 H          -0.7253    9.4678    0.0141 H       1  LIG1        0.0279
     22 C           2.0871    8.4271    0.0164 C.ar    1  LIG1        0.1702
     23 C           3.4569    8.3911   -0.0394 C.ar    1  LIG1       -0.0099
     24 C           3.9125    9.7512    0.0019 C.ar    1  LIG1       -0.0120
     25 C           2.7837   10.5115    0.0787 C.ar    1  LIG1        0.0956
     26 O           1.6621    9.7269    0.0899 O.2     1  LIG1       -0.4596
     27 H           2.6115   11.5753    0.1310 H       1  LIG1        0.1032
     28 H           4.0645    7.5007   -0.1066 H       1  LIG1        0.0659
     29 C           5.3313   10.2340   -0.0335 C.3     1  LIG1       -0.0367
     30 H           5.3801   11.3256    0.0095 H       1  LIG1        0.0278
     31 H           5.8393    9.9126   -0.9497 H       1  LIG1        0.0278
     32 H           5.9079    9.8402    0.8110 H       1  LIG1        0.0278
@<TRIPOS>BOND
     1    31    29    1
     2    10     8    1
     3    20    18    1
     4     6     1    1
     5     1     5   ar
     6     1     2   ar
     7     5     4   ar
     8    28    23    1
     9     2     7    1
    10     2     3   ar
    11     4    12    1
    12     4     3   ar
    13    23    24   ar
    14    23    22   ar
    15    29    24    1
    16    29    30    1
    17    29    32    1
    18    12    16   ar
    19    12    13   ar
    20    16    15   ar
    21    13    17    1
    22    13    14   ar
    23    24    25   ar
    24     3     8    1
    25    15    22    1
    26    15    14   ar
    27    21    18    1
    28    22    26   ar
    29    14    18    1
    30    18    19    1
    31    25    26   ar
    32    25    27    1
    33     8     9    1
    34     8    11    1
