@<TRIPOS>MOLECULE
mol_data/opt/b3lyp/geoms/mol2/12ai12ai12ai-12ai.out
 42 45 0 0 0
SMALL
GASTEIGER

@<TRIPOS>ATOM
      1 C           0.3146    1.6019   -0.0572 C.ar    1  LIG1        0.0930
      2 C           1.6736    1.6788   -0.0837 C.ar    1  LIG1       -0.0203
      3 C           2.0138    3.0695   -0.0622 C.ar    1  LIG1       -0.0017
      4 C           0.8087    3.7409   -0.0220 C.ar    1  LIG1        0.1726
      5 O          -0.2312    2.8478   -0.0193 O.2     1  LIG1       -0.4596
      6 H          -0.3860    0.7819   -0.0614 H       1  LIG1        0.1029
      7 H           2.3659    0.8491   -0.1171 H       1  LIG1        0.0652
      8 C           3.3901    3.6631   -0.0810 C.3     1  LIG1       -0.0360
      9 H           3.6122    4.2076    0.8450 H       1  LIG1        0.0279
     10 H           3.5155    4.3696   -0.9101 H       1  LIG1        0.0279
     11 H           4.1465    2.8823   -0.1935 H       1  LIG1        0.0279
     12 C           0.4811    5.1385    0.0166 C.ar    1  LIG1        0.1712
     13 C           1.2461    6.2810    0.0727 C.ar    1  LIG1       -0.0091
     14 C           0.3532    7.3927    0.0911 C.ar    1  LIG1       -0.0009
     15 C          -0.9146    6.8486    0.0427 C.ar    1  LIG1        0.1736
     16 O          -0.8424    5.4784   -0.0024 O.2     1  LIG1       -0.4484
     17 H           2.3241    6.3297    0.1089 H       1  LIG1        0.0659
     18 C           0.7370    8.8420    0.1424 C.3     1  LIG1       -0.0360
     19 H           0.0260    9.4236    0.7331 H       1  LIG1        0.0279
     20 H           0.7654    9.2863   -0.8601 H       1  LIG1        0.0279
     21 H           1.7313    8.9603    0.5826 H       1  LIG1        0.0279
     22 C          -2.2383    7.3964    0.0383 C.ar    1  LIG1        0.1713
     23 C          -3.4836    6.8201    0.0496 C.ar    1  LIG1       -0.0091
     24 C          -4.4419    7.8783    0.0379 C.ar    1  LIG1       -0.0009
     25 C          -3.7082    9.0463    0.0202 C.ar    1  LIG1        0.1736
     26 O          -2.3619    8.7597    0.0189 O.2     1  LIG1       -0.4484
     27 H          -3.6869    5.7593    0.0660 H       1  LIG1        0.0659
     28 C          -5.9327    7.7137    0.0445 C.3     1  LIG1       -0.0360
     29 H          -6.2653    7.2045    0.9567 H       1  LIG1        0.0279
     30 H          -6.2599    7.1002   -0.8027 H       1  LIG1        0.0279
     31 H          -6.4430    8.6749   -0.0120 H       1  LIG1        0.0279
     32 C          -4.0246   10.4485   -0.0023 C.ar    1  LIG1        0.1702
     33 C          -3.2374   11.5706   -0.0548 C.ar    1  LIG1       -0.0099
     34 C          -4.1212   12.7011   -0.0527 C.ar    1  LIG1       -0.0120
     35 C          -5.3797   12.1799    0.0005 C.ar    1  LIG1        0.0956
     36 O          -5.3445   10.8118    0.0326 O.2     1  LIG1       -0.4596
     37 H          -6.3628   12.6237    0.0216 H       1  LIG1        0.1032
     38 H          -2.1582   11.5849   -0.0942 H       1  LIG1        0.0659
     39 C          -3.7405   14.1502   -0.1003 C.3     1  LIG1       -0.0367
     40 H          -4.6249   14.7933   -0.0890 H       1  LIG1        0.0278
     41 H          -3.1696   14.3831   -1.0062 H       1  LIG1        0.0278
     42 H          -3.1152   14.4271    0.7559 H       1  LIG1        0.0278
@<TRIPOS>BOND
     1    41    39    1
     2    10     8    1
     3    20    18    1
     4    30    28    1
     5    11     8    1
     6     7     2    1
     7    39    40    1
     8    39    34    1
     9    39    42    1
    10    38    33    1
    11     2     3   ar
    12     2     1   ar
    13     8     3    1
    14     8     9    1
    15     3     4   ar
    16     6     1    1
    17     1     5   ar
    18    33    34   ar
    19    33    32   ar
    20    34    35   ar
    21     4     5   ar
    22     4    12    1
    23    31    28    1
    24    16    12   ar
    25    16    15   ar
    26    32    25    1
    27    32    36   ar
    28    35    37    1
    29    35    36   ar
    30    12    13   ar
    31    26    25   ar
    32    26    22   ar
    33    25    24   ar
    34    24    28    1
    35    24    23   ar
    36    22    15    1
    37    22    23   ar
    38    15    14   ar
    39    28    29    1
    40    23    27    1
    41    13    14   ar
    42    13    17    1
    43    14    18    1
    44    18    21    1
    45    18    19    1
