@<TRIPOS>MOLECULE
mol_data/opt/b3lyp/geoms/mol2/12ai12ai12ai-12ai-.out
 42 45 0 0 0
SMALL
GASTEIGER

@<TRIPOS>ATOM
      1 C           0.2296    1.5825    0.0078 C.ar    1  LIG1        0.0930
      2 C           1.5908    1.6088    0.0113 C.ar    1  LIG1       -0.0203
      3 C           1.9819    2.9862    0.0097 C.ar    1  LIG1       -0.0017
      4 C           0.8023    3.7022    0.0052 C.ar    1  LIG1        0.1726
      5 O          -0.2700    2.8482    0.0040 O.2     1  LIG1       -0.4596
      6 H          -0.5008    0.7889    0.0076 H       1  LIG1        0.1029
      7 H           2.2522    0.7537    0.0149 H       1  LIG1        0.0652
      8 C           3.3795    3.5283    0.0127 C.3     1  LIG1       -0.0360
      9 H           3.5690    4.1588    0.8898 H       1  LIG1        0.0279
     10 H           3.5803    4.1401   -0.8752 H       1  LIG1        0.0279
     11 H           4.1096    2.7152    0.0259 H       1  LIG1        0.0279
     12 C           0.5263    5.1117    0.0013 C.ar    1  LIG1        0.1712
     13 C           1.3327    6.2254   -0.0043 C.ar    1  LIG1       -0.0091
     14 C           0.4805    7.3708   -0.0056 C.ar    1  LIG1       -0.0009
     15 C          -0.8064    6.8723   -0.0008 C.ar    1  LIG1        0.1736
     16 O          -0.7844    5.4983    0.0035 O.2     1  LIG1       -0.4484
     17 H           2.4125    6.2339   -0.0078 H       1  LIG1        0.0659
     18 C           0.9281    8.8026   -0.0111 C.3     1  LIG1       -0.0360
     19 H           0.0819    9.4893   -0.0113 H       1  LIG1        0.0279
     20 H           1.5414    9.0156   -0.8945 H       1  LIG1        0.0279
     21 H           1.5454    9.0211    0.8682 H       1  LIG1        0.0279
     22 C          -2.1168    7.4546    0.0003 C.ar    1  LIG1        0.1713
     23 C          -3.3757    6.9029    0.0045 C.ar    1  LIG1       -0.0091
     24 C          -4.3079    7.9799    0.0028 C.ar    1  LIG1       -0.0009
     25 C          -3.5490    9.1335   -0.0020 C.ar    1  LIG1        0.1736
     26 O          -2.2135    8.8181   -0.0036 O.2     1  LIG1       -0.4484
     27 H          -3.6026    5.8469    0.0080 H       1  LIG1        0.0659
     28 C          -5.8036    7.8768    0.0057 C.3     1  LIG1       -0.0360
     29 H          -6.1187    6.8306    0.0010 H       1  LIG1        0.0279
     30 H          -6.2447    8.3616   -0.8734 H       1  LIG1        0.0279
     31 H          -6.2409    8.3522    0.8920 H       1  LIG1        0.0279
     32 C          -3.8943   10.5272   -0.0055 C.ar    1  LIG1        0.1702
     33 C          -5.0958   11.1957   -0.0007 C.ar    1  LIG1       -0.0099
     34 C          -4.7926   12.5976   -0.0087 C.ar    1  LIG1       -0.0120
     35 C          -3.4312   12.6747   -0.0176 C.ar    1  LIG1        0.0956
     36 O          -2.8662   11.4307   -0.0159 O.2     1  LIG1       -0.4596
     37 H          -2.7401   13.5033   -0.0253 H       1  LIG1        0.1032
     38 H          -6.0784   10.7484    0.0080 H       1  LIG1        0.0659
     39 C          -5.7674   13.7365   -0.0073 C.3     1  LIG1       -0.0367
     40 H          -6.4118   13.7105    0.8788 H       1  LIG1        0.0278
     41 H          -6.4227   13.7034   -0.8850 H       1  LIG1        0.0278
     42 H          -5.2502   14.7001   -0.0144 H       1  LIG1        0.0278
@<TRIPOS>BOND
     1    20    18    1
     2    41    39    1
     3    10     8    1
     4    30    28    1
     5    37    35    1
     6    35    36   ar
     7    35    34   ar
     8    36    32   ar
     9    42    39    1
    10    19    18    1
    11    18    14    1
    12    18    21    1
    13    34    39    1
    14    34    33   ar
    15    17    13    1
    16    39    40    1
    17    14    13   ar
    18    14    15   ar
    19    32    25    1
    20    32    33   ar
    21    13    12   ar
    22    26    25   ar
    23    26    22   ar
    24    25    24   ar
    25    15    22    1
    26    15    16   ar
    27    33    38    1
    28    22    23   ar
    29    29    28    1
    30    12    16   ar
    31    12     4    1
    32    24    23   ar
    33    24    28    1
    34     5     4   ar
    35     5     1   ar
    36    23    27    1
    37     4     3   ar
    38    28    31    1
    39     6     1    1
    40     1     2   ar
    41     3     2   ar
    42     3     8    1
    43     2     7    1
    44     8    11    1
    45     8     9    1
