@<TRIPOS>MOLECULE
mol_data/opt/b3lyp/geoms/mol2/12ai12ai12ai12ai-.out
 42 45 0 0 0
SMALL
GASTEIGER

@<TRIPOS>ATOM
      1 C           0.5584    1.5655   -0.0819 C.ar    1  LIG1        0.0930
      2 C           1.9111    1.7017   -0.0074 C.ar    1  LIG1       -0.0203
      3 C           2.1878    3.1062    0.0249 C.ar    1  LIG1       -0.0017
      4 C           0.9553    3.7241   -0.0361 C.ar    1  LIG1        0.1726
      5 O          -0.0418    2.7862   -0.1008 O.2     1  LIG1       -0.4596
      6 H          -0.1041    0.7154   -0.1252 H       1  LIG1        0.1029
      7 H           2.6389    0.9029    0.0252 H       1  LIG1        0.0652
      8 C           3.5344    3.7592    0.1106 C.3     1  LIG1       -0.0360
      9 H           3.5897    4.4644    0.9482 H       1  LIG1        0.0279
     10 H           3.7764    4.3192   -0.8013 H       1  LIG1        0.0279
     11 H           4.3185    3.0114    0.2544 H       1  LIG1        0.0279
     12 C           0.5659    5.1064   -0.0434 C.ar    1  LIG1        0.1712
     13 C           1.2826    6.2821   -0.0625 C.ar    1  LIG1       -0.0091
     14 C           0.3426    7.3511   -0.0540 C.ar    1  LIG1       -0.0009
     15 C          -0.9026    6.7518   -0.0317 C.ar    1  LIG1        0.1736
     16 O          -0.7705    5.3879   -0.0246 O.2     1  LIG1       -0.4484
     17 H           2.3577    6.3787   -0.0884 H       1  LIG1        0.0659
     18 C           0.6478    8.8186   -0.0705 C.3     1  LIG1       -0.0360
     19 H           0.2670    9.3227    0.8260 H       1  LIG1        0.0279
     20 H           0.1978    9.3164   -0.9377 H       1  LIG1        0.0279
     21 H           1.7264    8.9893   -0.1130 H       1  LIG1        0.0279
     22 C          -2.2318    7.2878   -0.0158 C.ar    1  LIG1        0.1713
     23 C          -2.7263    8.5717    0.0010 C.ar    1  LIG1       -0.0091
     24 C          -4.1508    8.4799    0.0146 C.ar    1  LIG1       -0.0009
     25 C          -4.4344    7.1300    0.0041 C.ar    1  LIG1        0.1736
     26 O          -3.2712    6.4006   -0.0142 O.2     1  LIG1       -0.4484
     27 H          -2.1455    9.4820    0.0079 H       1  LIG1        0.0659
     28 C          -5.1071    9.6354    0.0306 C.3     1  LIG1       -0.0360
     29 H          -6.1343    9.3027    0.1785 H       1  LIG1        0.0279
     30 H          -5.0658   10.1937   -0.9125 H       1  LIG1        0.0279
     31 H          -4.8538   10.3386    0.8318 H       1  LIG1        0.0279
     32 C          -5.6371    6.3425    0.0107 C.ar    1  LIG1        0.1702
     33 C          -5.8479    4.9877    0.0198 C.ar    1  LIG1       -0.0099
     34 C          -7.2686    4.7877    0.0233 C.ar    1  LIG1       -0.0120
     35 C          -7.8134    6.0377    0.0161 C.ar    1  LIG1        0.0956
     36 O          -6.8392    6.9992    0.0075 O.2     1  LIG1       -0.4596
     37 H          -8.8294    6.4006    0.0151 H       1  LIG1        0.1032
     38 H          -5.0777    4.2304    0.0244 H       1  LIG1        0.0659
     39 C          -8.0009    3.4798    0.0329 C.3     1  LIG1       -0.0367
     40 H          -7.7457    2.8862    0.9180 H       1  LIG1        0.0278
     41 H          -7.7486    2.8749   -0.8453 H       1  LIG1        0.0278
     42 H          -9.0840    3.6315    0.0337 H       1  LIG1        0.0278
@<TRIPOS>BOND
     1    20    18    1
     2    30    28    1
     3    41    39    1
     4    10     8    1
     5     6     1    1
     6    21    18    1
     7     5     1   ar
     8     5     4   ar
     9    17    13    1
    10     1     2   ar
    11    18    14    1
    12    18    19    1
    13    13    14   ar
    14    13    12   ar
    15    14    15   ar
    16    12     4    1
    17    12    16   ar
    18     4     3   ar
    19    15    16   ar
    20    15    22    1
    21    22    26   ar
    22    22    23   ar
    23    26    25   ar
    24     2     3   ar
    25     2     7    1
    26    23    27    1
    27    23    24   ar
    28    25    32    1
    29    25    24   ar
    30    36    32   ar
    31    36    35   ar
    32    32    33   ar
    33    24    28    1
    34    37    35    1
    35    35    34   ar
    36    33    34   ar
    37    33    38    1
    38    34    39    1
    39     3     8    1
    40    28    29    1
    41    28    31    1
    42    39    42    1
    43    39    40    1
    44     8    11    1
    45     8     9    1
