@<TRIPOS>MOLECULE
mol_data/opt/b3lyp/geoms/mol2/12ai12ai-12ai-12ai.out
 42 45 0 0 0
SMALL
GASTEIGER

@<TRIPOS>ATOM
      1 C          -0.1152    1.7034   -0.0264 C.ar    1  LIG1        0.0930
      2 C           1.2392    1.5893   -0.0090 C.ar    1  LIG1       -0.0203
      3 C           1.7747    2.9217   -0.0012 C.ar    1  LIG1       -0.0017
      4 C           0.6768    3.7543   -0.0148 C.ar    1  LIG1        0.1726
      5 O          -0.4822    3.0147   -0.0302 O.2     1  LIG1       -0.4596
      6 H          -0.9237    0.9893   -0.0372 H       1  LIG1        0.1029
      7 H           1.8066    0.6691   -0.0022 H       1  LIG1        0.0652
      8 C           3.2289    3.2887    0.0179 C.3     1  LIG1       -0.0360
      9 H           3.3707    4.3694    0.0192 H       1  LIG1        0.0279
     10 H           3.7469    2.8771   -0.8565 H       1  LIG1        0.0279
     11 H           3.7236    2.8780    0.9060 H       1  LIG1        0.0279
     12 C           0.4856    5.1785   -0.0159 C.ar    1  LIG1        0.1712
     13 C          -0.6420    5.9634   -0.0304 C.ar    1  LIG1       -0.0091
     14 C          -0.2120    7.3213   -0.0237 C.ar    1  LIG1       -0.0009
     15 C           1.1689    7.2773   -0.0043 C.ar    1  LIG1        0.1736
     16 O           1.5969    5.9728    0.0002 O.2     1  LIG1       -0.4484
     17 H          -1.6613    5.6066   -0.0455 H       1  LIG1        0.0659
     18 C          -1.0818    8.5422   -0.0360 C.3     1  LIG1       -0.0360
     19 H          -2.1368    8.2644   -0.0979 H       1  LIG1        0.0279
     20 H          -0.8569    9.1905   -0.8911 H       1  LIG1        0.0279
     21 H          -0.9495    9.1443    0.8711 H       1  LIG1        0.0279
     22 C           2.1746    8.2976    0.0116 C.ar    1  LIG1        0.1713
     23 C           2.1193    9.6718    0.0436 C.ar    1  LIG1       -0.0091
     24 C           3.4634   10.1529    0.0462 C.ar    1  LIG1       -0.0009
     25 C           4.2602    9.0275    0.0146 C.ar    1  LIG1        0.1736
     26 O           3.4816    7.8953   -0.0065 O.2     1  LIG1       -0.4484
     27 H           1.2251   10.2765    0.0694 H       1  LIG1        0.0659
     28 C           3.8815   11.5932    0.0722 C.3     1  LIG1       -0.0360
     29 H           3.3591   12.1344    0.8689 H       1  LIG1        0.0279
     30 H           3.6334   12.0925   -0.8723 H       1  LIG1        0.0279
     31 H           4.9544   11.6962    0.2335 H       1  LIG1        0.0279
     32 C           5.6770    8.7853    0.0023 C.ar    1  LIG1        0.1702
     33 C           6.4139    7.6287   -0.0050 C.ar    1  LIG1       -0.0099
     34 C           7.7956    8.0149   -0.0161 C.ar    1  LIG1       -0.0120
     35 C           7.7935    9.3783   -0.0148 C.ar    1  LIG1        0.0956
     36 O           6.5154    9.8683   -0.0047 O.2     1  LIG1       -0.4596
     37 H           8.5787   10.1183   -0.0210 H       1  LIG1        0.1032
     38 H           6.0137    6.6256   -0.0015 H       1  LIG1        0.0659
     39 C           8.9906    7.1099   -0.0271 C.3     1  LIG1       -0.0367
     40 H           9.9221    7.6828   -0.0344 H       1  LIG1        0.0278
     41 H           8.9910    6.4601   -0.9094 H       1  LIG1        0.0278
     42 H           9.0059    6.4585    0.8539 H       1  LIG1        0.0278
@<TRIPOS>BOND
     1    41    39    1
     2    20    18    1
     3    30    28    1
     4    10     8    1
     5    19    18    1
     6    17    13    1
     7     6     1    1
     8    18    14    1
     9    18    21    1
    10    40    39    1
    11    13    14   ar
    12    13    12   ar
    13     5     1   ar
    14     5     4   ar
    15    39    34    1
    16    39    42    1
    17     1     2   ar
    18    14    15   ar
    19    37    35    1
    20    34    35   ar
    21    34    33   ar
    22    12     4    1
    23    12    16   ar
    24     4     3   ar
    25    35    36   ar
    26     2     7    1
    27     2     3   ar
    28    26    22   ar
    29    26    25   ar
    30    33    38    1
    31    33    32   ar
    32    36    32   ar
    33    15    16   ar
    34    15    22    1
    35     3     8    1
    36    32    25    1
    37    22    23   ar
    38    25    24   ar
    39     8     9    1
    40     8    11    1
    41    23    24   ar
    42    23    27    1
    43    24    28    1
    44    28    31    1
    45    28    29    1
