@<TRIPOS>MOLECULE
mol_data/opt/b3lyp/geoms/mol2/12ai12ai-12ai12ai-.out
 42 45 0 0 0
SMALL
GASTEIGER

@<TRIPOS>ATOM
      1 C           0.0514    1.7106   -0.1180 C.ar    1  LIG1        0.0930
      2 C           1.4084    1.6386   -0.0724 C.ar    1  LIG1       -0.0203
      3 C           1.9004    2.9858   -0.0194 C.ar    1  LIG1       -0.0017
      4 C           0.7774    3.7846   -0.0408 C.ar    1  LIG1        0.1726
      5 O          -0.3562    3.0095   -0.0999 O.2     1  LIG1       -0.4596
      6 H          -0.7337    0.9721   -0.1608 H       1  LIG1        0.1029
      7 H           2.0051    0.7370   -0.0706 H       1  LIG1        0.0652
      8 C           3.3405    3.4008    0.0341 C.3     1  LIG1       -0.0360
      9 H           3.4506    4.4165    0.4160 H       1  LIG1        0.0279
     10 H           3.8023    3.3696   -0.9607 H       1  LIG1        0.0279
     11 H           3.9135    2.7253    0.6777 H       1  LIG1        0.0279
     12 C           0.5428    5.2015   -0.0116 C.ar    1  LIG1        0.1712
     13 C          -0.6087    5.9483    0.0278 C.ar    1  LIG1       -0.0091
     14 C          -0.2268    7.3217    0.0452 C.ar    1  LIG1       -0.0009
     15 C           1.1534    7.3239    0.0125 C.ar    1  LIG1        0.1736
     16 O           1.6287    6.0337   -0.0233 O.2     1  LIG1       -0.4484
     17 H          -1.6149    5.5562    0.0488 H       1  LIG1        0.0659
     18 C          -1.1487    8.5049    0.0807 C.3     1  LIG1       -0.0360
     19 H          -2.1594    8.1937    0.3579 H       1  LIG1        0.0279
     20 H          -1.2078    8.9985   -0.8965 H       1  LIG1        0.0279
     21 H          -0.8100    9.2565    0.7986 H       1  LIG1        0.0279
     22 C           2.1472    8.3546    0.0093 C.ar    1  LIG1        0.1713
     23 C           3.5199    8.3348    0.0043 C.ar    1  LIG1       -0.0091
     24 C           3.9654    9.6914    0.0038 C.ar    1  LIG1       -0.0009
     25 C           2.8204   10.4603    0.0081 C.ar    1  LIG1        0.1736
     26 O           1.7071    9.6509    0.0106 O.2     1  LIG1       -0.4484
     27 H           4.1407    7.4509    0.0004 H       1  LIG1        0.0659
     28 C           5.3946   10.1463   -0.0010 C.3     1  LIG1       -0.0360
     29 H           5.4700   11.2328   -0.0356 H       1  LIG1        0.0279
     30 H           5.9304    9.7372   -0.8652 H       1  LIG1        0.0279
     31 H           5.9188    9.7968    0.8963 H       1  LIG1        0.0279
     32 C           2.5388   11.8699    0.0062 C.ar    1  LIG1        0.1702
     33 C           1.3624   12.5751   -0.0155 C.ar    1  LIG1       -0.0099
     34 C           1.7101   13.9672   -0.0049 C.ar    1  LIG1       -0.0120
     35 C           3.0725   14.0026    0.0220 C.ar    1  LIG1        0.0956
     36 O           3.5974   12.7384    0.0298 O.2     1  LIG1       -0.4596
     37 H           3.7905   14.8077    0.0381 H       1  LIG1        0.1032
     38 H           0.3702   12.1492   -0.0392 H       1  LIG1        0.0659
     39 C           0.7727   15.1369   -0.0212 C.3     1  LIG1       -0.0367
     40 H           0.1053   15.1259    0.8478 H       1  LIG1        0.0278
     41 H           0.1392   15.1282   -0.9154 H       1  LIG1        0.0278
     42 H           1.3197   16.0837   -0.0095 H       1  LIG1        0.0278
@<TRIPOS>BOND
     1    10     8    1
     2    41    39    1
     3    20    18    1
     4    30    28    1
     5     6     1    1
     6     1     5   ar
     7     1     2   ar
     8     5     4   ar
     9     2     7    1
    10     2     3   ar
    11     4     3   ar
    12     4    12    1
    13    38    33    1
    14    29    28    1
    15    16    12   ar
    16    16    15   ar
    17    39    42    1
    18    39    34    1
    19    39    40    1
    20     3     8    1
    21    33    34   ar
    22    33    32   ar
    23    12    13   ar
    24    34    35   ar
    25    28    24    1
    26    28    31    1
    27    27    23    1
    28    24    23   ar
    29    24    25   ar
    30    23    22   ar
    31    32    25    1
    32    32    36   ar
    33    25    26   ar
    34    22    26   ar
    35    22    15    1
    36    15    14   ar
    37    35    36   ar
    38    35    37    1
    39    13    14   ar
    40    13    17    1
    41     8     9    1
    42     8    11    1
    43    14    18    1
    44    18    19    1
    45    18    21    1
