@<TRIPOS>MOLECULE
mol_data/opt/b3lyp/geoms/mol2/12ai12ai12ai12ai.out
 42 45 0 0 0
SMALL
GASTEIGER

@<TRIPOS>ATOM
      1 C           0.7586    1.5430   -0.1008 C.ar    1  LIG1        0.0930
      2 C           2.1062    1.7222   -0.0224 C.ar    1  LIG1       -0.0203
      3 C           2.3371    3.1345    0.0230 C.ar    1  LIG1       -0.0017
      4 C           1.0850    3.7124   -0.0348 C.ar    1  LIG1        0.1726
      5 O           0.1195    2.7434   -0.1099 O.2     1  LIG1       -0.4596
      6 H           0.1238    0.6726   -0.1532 H       1  LIG1        0.1029
      7 H           2.8595    0.9471    0.0042 H       1  LIG1        0.0652
      8 C           3.6616    3.8303    0.1168 C.3     1  LIG1       -0.0360
      9 H           3.6959    4.5231    0.9660 H       1  LIG1        0.0279
     10 H           3.8824    4.4131   -0.7862 H       1  LIG1        0.0279
     11 H           4.4704    3.1067    0.2465 H       1  LIG1        0.0279
     12 C           0.6510    5.0814   -0.0314 C.ar    1  LIG1        0.1712
     13 C           1.3299    6.2796   -0.0339 C.ar    1  LIG1       -0.0091
     14 C           0.3559    7.3176   -0.0230 C.ar    1  LIG1       -0.0009
     15 C          -0.8697    6.6781   -0.0168 C.ar    1  LIG1        0.1736
     16 O          -0.6936    5.3197   -0.0211 O.2     1  LIG1       -0.4484
     17 H           2.4015    6.4106   -0.0488 H       1  LIG1        0.0659
     18 C           0.6148    8.7940   -0.0221 C.3     1  LIG1       -0.0360
     19 H           0.1813    9.2816    0.8593 H       1  LIG1        0.0279
     20 H           0.1867    9.2823   -0.9060 H       1  LIG1        0.0279
     21 H           1.6884    8.9986   -0.0189 H       1  LIG1        0.0279
     22 C          -2.2147    7.1729   -0.0105 C.ar    1  LIG1        0.1713
     23 C          -2.7446    8.4451   -0.0170 C.ar    1  LIG1       -0.0091
     24 C          -4.1618    8.3121   -0.0010 C.ar    1  LIG1       -0.0009
     25 C          -4.4086    6.9531    0.0109 C.ar    1  LIG1        0.1736
     26 O          -3.2287    6.2578    0.0061 O.2     1  LIG1       -0.4484
     27 H          -2.1905    9.3718   -0.0272 H       1  LIG1        0.0659
     28 C          -5.1694    9.4219    0.0046 C.3     1  LIG1       -0.0360
     29 H          -5.9138    9.2849    0.7971 H       1  LIG1        0.0279
     30 H          -5.7143    9.4835   -0.9456 H       1  LIG1        0.0279
     31 H          -4.6820   10.3867    0.1673 H       1  LIG1        0.0279
     32 C          -5.6269    6.1918    0.0257 C.ar    1  LIG1        0.1702
     33 C          -6.9518    6.5443   -0.0830 C.ar    1  LIG1       -0.0099
     34 C          -7.7142    5.3337    0.0151 C.ar    1  LIG1       -0.0120
     35 C          -6.7945    4.3386    0.1728 C.ar    1  LIG1        0.0956
     36 O          -5.5242    4.8371    0.1829 O.2     1  LIG1       -0.4596
     37 H          -6.8787    3.2687    0.2847 H       1  LIG1        0.1032
     38 H          -7.3408    7.5409   -0.2294 H       1  LIG1        0.0659
     39 C          -9.2053    5.1923   -0.0488 C.3     1  LIG1       -0.0367
     40 H          -9.5081    4.1460    0.0493 H       1  LIG1        0.0278
     41 H          -9.6023    5.5663   -0.9994 H       1  LIG1        0.0278
     42 H          -9.6961    5.7577    0.7515 H       1  LIG1        0.0278
@<TRIPOS>BOND
     1    41    39    1
     2    30    28    1
     3    20    18    1
     4    10     8    1
     5    38    33    1
     6     6     1    1
     7     5     1   ar
     8     5     4   ar
     9     1     2   ar
    10    33    34   ar
    11    33    32   ar
    12    39    34    1
    13    39    40    1
    14    39    42    1
    15    17    13    1
    16     4    12    1
    17     4     3   ar
    18    13    12   ar
    19    13    14   ar
    20    12    16   ar
    21    27    23    1
    22    14    18    1
    23    14    15   ar
    24     2     7    1
    25     2     3   ar
    26    18    21    1
    27    18    19    1
    28    16    15   ar
    29    23    22   ar
    30    23    24   ar
    31    15    22    1
    32    22    26   ar
    33    24    28    1
    34    24    25   ar
    35    28    31    1
    36    28    29    1
    37    26    25   ar
    38    25    32    1
    39    34    35   ar
    40     3     8    1
    41    32    36   ar
    42     8    11    1
    43     8     9    1
    44    35    36   ar
    45    35    37    1
