@<TRIPOS>MOLECULE
mol_data/opt/b3lyp/geoms/mol2/12al12al12al12al-.out
 46 49 0 0 0
SMALL
GASTEIGER

@<TRIPOS>ATOM
      1 C           0.6322    1.4021    0.0001 C.ar    1  LIG1        0.0964
      2 C           1.9876    1.5647   -0.0001 C.ar    1  LIG1        0.0187
      3 C           2.2029    2.9782   -0.0000 C.ar    1  LIG1        0.1687
      4 C           0.9581    3.5777   -0.0001 C.ar    1  LIG1        0.2111
      5 O          -0.0037    2.5998   -0.0001 O.2     1  LIG1       -0.4560
      6 H          -0.0027    0.5308    0.0002 H       1  LIG1        0.1031
      7 H           2.7281    0.7793   -0.0001 H       1  LIG1        0.0686
      8 O           3.3638    3.6840    0.0000 O.3     1  LIG1       -0.4912
      9 C           4.5620    2.9185   -0.0001 C.3     1  LIG1        0.0790
     10 H           5.3830    3.6363   -0.0001 H       1  LIG1        0.0660
     11 H           4.6330    2.2871    0.8945 H       1  LIG1        0.0660
     12 H           4.6330    2.2872   -0.8946 H       1  LIG1        0.0660
     13 C           0.5607    4.9515   -0.0001 C.ar    1  LIG1        0.1780
     14 C           1.3007    6.1156   -0.0001 C.ar    1  LIG1        0.0300
     15 C           0.3511    7.1730   -0.0001 C.ar    1  LIG1        0.1694
     16 C          -0.9090    6.5997   -0.0002 C.ar    1  LIG1        0.2121
     17 O          -0.7718    5.2326   -0.0002 O.2     1  LIG1       -0.4447
     18 H           2.3773    6.1733   -0.0000 H       1  LIG1        0.0694
     19 O           0.5468    8.5168   -0.0001 O.3     1  LIG1       -0.4912
     20 C           1.9014    8.9493   -0.0001 C.3     1  LIG1        0.0790
     21 H           1.8739   10.0397   -0.0001 H       1  LIG1        0.0660
     22 H           2.4320    8.5992    0.8940 H       1  LIG1        0.0660
     23 H           2.4320    8.5992   -0.8942 H       1  LIG1        0.0660
     24 C          -2.2161    7.1712   -0.0002 C.ar    1  LIG1        0.1780
     25 C          -2.6416    8.4832   -0.0002 C.ar    1  LIG1        0.0300
     26 C          -4.0645    8.4310   -0.0003 C.ar    1  LIG1        0.1694
     27 C          -4.4279    7.0959   -0.0003 C.ar    1  LIG1        0.2121
     28 O          -3.2854    6.3274   -0.0003 O.2     1  LIG1       -0.4447
     29 H          -1.9993    9.3489   -0.0002 H       1  LIG1        0.0694
     30 O          -4.9574    9.4503   -0.0003 O.3     1  LIG1       -0.4912
     31 C          -4.4080   10.7595   -0.0003 C.3     1  LIG1        0.0790
     32 H          -5.2568   11.4447   -0.0003 H       1  LIG1        0.0660
     33 H          -3.7971   10.9398    0.8936 H       1  LIG1        0.0660
     34 H          -3.7971   10.9397   -0.8942 H       1  LIG1        0.0660
     35 C          -5.6738    6.3921   -0.0003 C.ar    1  LIG1        0.1770
     36 C          -5.9677    5.0506   -0.0003 C.ar    1  LIG1        0.0292
     37 C          -7.3938    4.9690   -0.0003 C.ar    1  LIG1        0.1583
     38 C          -7.8754    6.2513   -0.0004 C.ar    1  LIG1        0.1342
     39 O          -6.8199    7.1329   -0.0005 O.2     1  LIG1       -0.4560
     40 H          -8.8580    6.6890   -0.0005 H       1  LIG1        0.1068
     41 H          -5.2673    4.2301   -0.0002 H       1  LIG1        0.0693
     42 O          -8.0628    3.7874   -0.0003 O.3     1  LIG1       -0.4919
     43 C          -9.4774    3.9002   -0.0004 C.3     1  LIG1        0.0789
     44 H          -9.8729    2.8836   -0.0003 H       1  LIG1        0.0660
     45 H          -9.8332    4.4310    0.8932 H       1  LIG1        0.0660
     46 H          -9.8331    4.4309   -0.8940 H       1  LIG1        0.0660
@<TRIPOS>BOND
     1    12     9    1
     2    23    20    1
     3    34    31    1
     4    46    43    1
     5    40    38    1
     6    39    38   ar
     7    39    35   ar
     8    38    37   ar
     9    43    44    1
    10    43    42    1
    11    43    45    1
    12    35    27    1
    13    35    36   ar
    14    37    36   ar
    15    37    42    1
    16    32    31    1
    17    27    28   ar
    18    27    26   ar
    19    36    41    1
    20    31    30    1
    21    31    33    1
    22    28    24   ar
    23    26    30    1
    24    26    25   ar
    25    25    24   ar
    26    25    29    1
    27    24    16    1
    28    17    16   ar
    29    17    13   ar
    30    16    15   ar
    31     5     4   ar
    32     5     1   ar
    33    15    19    1
    34    15    14   ar
    35    21    20    1
    36    13     4    1
    37    13    14   ar
    38     7     2    1
    39    20    19    1
    40    20    22    1
    41     4     3   ar
    42     2     3   ar
    43     2     1   ar
    44    14    18    1
    45     9    10    1
    46     9     8    1
    47     9    11    1
    48     3     8    1
    49     1     6    1
