@<TRIPOS>MOLECULE
mol_data/opt/b3lyp/geoms/mol2/12al4ha-6ae12ei4fa-12fi-12da-4ee.out
 92 99 0 0 0
SMALL
GASTEIGER

@<TRIPOS>ATOM
      1 C           2.0810    2.0091    1.8659 C.ar    1  LIG1        0.0962
      2 C           2.2633    1.6351    0.5695 C.ar    1  LIG1        0.0186
      3 C           2.0157    2.8147   -0.2031 C.ar    1  LIG1        0.1656
      4 C           1.7135    3.8412    0.6683 C.ar    1  LIG1        0.1779
      5 O           1.7520    3.3199    1.9469 O.2     1  LIG1       -0.4591
      6 H           2.1548    1.4784    2.8021 H       1  LIG1        0.1031
      7 H           2.5275    0.6510    0.2144 H       1  LIG1        0.0686
      8 O           2.0192    2.9462   -1.5655 O.3     1  LIG1       -0.4913
      9 C           2.3756    1.7881   -2.3128 C.3     1  LIG1        0.0790
     10 H           2.3374    2.0795   -3.3631 H       1  LIG1        0.0660
     11 H           3.3880    1.4467   -2.0651 H       1  LIG1        0.0660
     12 H           1.6636    0.9729   -2.1379 H       1  LIG1        0.0660
     13 C           1.8237    6.1223   -0.4424 C.ar    1  LIG1        0.0360
     14 C           1.4041    7.4632   -0.4328 C.ar    1  LIG1       -0.0326
     15 C           1.3262    5.2461    0.5617 C.ar    1  LIG1        0.0415
     16 C           0.5423    7.9762    0.5410 C.ar    1  LIG1       -0.0146
     17 H           1.7625    8.1155   -1.2252 H       1  LIG1        0.0642
     18 C           0.4574    5.7748    1.5340 C.ar    1  LIG1       -0.0486
     19 C           0.0683    7.1059    1.5383 C.ar    1  LIG1       -0.0532
     20 H           0.0928    5.1093    2.3089 H       1  LIG1        0.0625
     21 N           2.7633    5.7103   -1.3781 N.pl3   1  LIG1       -0.3574
     22 H           2.6920    4.7487   -1.6903 H       1  LIG1        0.1423
     23 H           2.8958    6.3578   -2.1426 H       1  LIG1        0.1423
     24 H          -0.5797    7.4764    2.3254 H       1  LIG1        0.0624
     25 C          -1.1617    9.8002    0.8910 C.ar    1  LIG1        0.0362
     26 C           0.1360    9.3991    0.5172 C.ar    1  LIG1        0.0015
     27 C           0.9959   10.4172    0.1018 C.ar    1  LIG1       -0.0350
     28 C           0.5758   11.7569    0.0872 C.ar    1  LIG1        0.0543
     29 C          -0.7335   12.0419    0.5575 C.ar    1  LIG1        0.1225
     30 N          -1.5802   11.0605    0.9215 N.ar    1  LIG1       -0.2500
     31 H           2.0061   10.1863   -0.2192 H       1  LIG1        0.0637
     32 H          -1.8982    9.0485    1.1678 H       1  LIG1        0.0836
     33 C           1.4466   12.7483   -0.4536 C.1     1  LIG1       -0.0674
     34 C           2.2115   13.5388   -0.9573 C.1     1  LIG1       -0.1138
     35 H           2.8655   14.2666   -1.3781 H       1  LIG1        0.1232
     36 C          -1.2689   13.4005    0.6612 C.ar    1  LIG1        0.1705
     37 C          -0.7845   14.6041    1.1442 C.ar    1  LIG1        0.0754
     38 C          -1.8643   15.5577    1.0498 C.ar    1  LIG1        0.0115
     39 C          -2.9249   14.8695    0.5109 C.ar    1  LIG1        0.1434
     40 O          -2.5670   13.5602    0.2927 O.2     1  LIG1       -0.4516
     41 C           0.4710   14.8632    1.7479 C.1     1  LIG1       -0.0655
     42 C           1.5167   15.1292    2.2968 C.1     1  LIG1       -0.1138
     43 H           2.4471   15.3356    2.7721 H       1  LIG1        0.1232
     44 C          -1.7995   16.9701    1.5413 C.3     1  LIG1       -0.0349
     45 H          -2.7728   17.3128    1.8985 H       1  LIG1        0.0279
     46 H          -1.4840   17.6570    0.7493 H       1  LIG1        0.0279
     47 H          -1.0778   17.0455    2.3595 H       1  LIG1        0.0279
     48 C          -4.7236   16.4153   -0.3560 C.ar    1  LIG1        0.1282
     49 C          -6.0650   16.6688   -0.6323 C.ar    1  LIG1       -0.0087
     50 C          -4.3166   15.1827    0.1996 C.ar    1  LIG1        0.0590
     51 C          -7.0479   15.6930   -0.3904 C.ar    1  LIG1        0.0244
     52 H          -6.3508   17.6253   -1.0588 H       1  LIG1        0.0661
     53 C          -5.3124   14.2110    0.4149 C.ar    1  LIG1       -0.0469
     54 C          -6.6484   14.4483    0.1332 C.ar    1  LIG1       -0.0501
     55 H          -5.0091   13.2514    0.8191 H       1  LIG1        0.0626
     56 O          -3.7590   17.3412   -0.6416 O.3     1  LIG1       -0.5060
     57 H          -4.1787   18.1111   -1.0475 H       1  LIG1        0.2922
     58 H          -7.3897   13.6811    0.3216 H       1  LIG1        0.0625
     59 C          -8.4414   15.9631   -0.6779 C.ar    1  LIG1        0.1774
     60 C          -9.1254   17.0447   -1.1997 C.ar    1  LIG1        0.1663
     61 C         -10.5111   16.7193   -1.2641 C.ar    1  LIG1        0.0405
     62 C         -10.5976   15.4413   -0.7441 C.ar    1  LIG1        0.1784
     63 O          -9.3564   14.9800   -0.4038 O.2     1  LIG1       -0.4476
     64 O          -8.5366   18.2006   -1.6190 O.3     1  LIG1       -0.5030
     65 H          -9.2227   18.8607   -1.7825 H       1  LIG1        0.2923
     66 C         -11.5810   17.5858   -1.8549 C.3     1  LIG1       -0.0325
     67 H         -12.3595   16.9851   -2.3305 H       1  LIG1        0.0280
     68 H         -11.1605   18.2383   -2.6298 H       1  LIG1        0.0280
     69 H         -12.0770   18.2159   -1.1094 H       1  LIG1        0.0280
     70 C         -11.6880   14.5388   -0.5192 C.ar    1  LIG1        0.1882
     71 C         -13.0470   14.7014   -0.2790 C.ar    1  LIG1        0.1011
     72 C         -13.5994   13.3874   -0.1445 C.ar    1  LIG1        0.0024
     73 C         -12.5639   12.5029   -0.2876 C.ar    1  LIG1        0.1383
     74 O         -11.4023   13.2119   -0.5197 O.2     1  LIG1       -0.4503
     75 N         -14.3272   16.9158    0.0774 N.1     1  LIG1       -0.1907
     76 C         -13.7459   15.9206   -0.0923 C.1     1  LIG1        0.1031
     77 H         -14.6287   13.1480    0.0585 H       1  LIG1        0.0668
     78 C         -13.5194   10.1638   -0.1011 C.ar    1  LIG1        0.0354
     79 C         -13.2765    8.7769   -0.0572 C.ar    1  LIG1       -0.0445
     80 C         -12.4159   11.0529   -0.2367 C.ar    1  LIG1        0.0338
     81 C         -11.9953    8.2581   -0.1443 C.ar    1  LIG1       -0.0451
     82 H         -14.1264    8.1112    0.0464 H       1  LIG1        0.0630
     83 C         -11.1244   10.5098   -0.3251 C.ar    1  LIG1       -0.0345
     84 C         -10.8967    9.1282   -0.2809 C.ar    1  LIG1        0.0254
     85 H         -10.2783   11.1769   -0.4285 H       1  LIG1        0.0637
     86 H         -11.8317    7.1868   -0.1082 H       1  LIG1        0.0630
     87 C         -14.8773   10.5929   -0.0117 C.1     1  LIG1       -0.0690
     88 C         -16.0517   10.8786    0.0685 C.1     1  LIG1       -0.1139
     89 H         -17.0822   11.1420    0.1365 H       1  LIG1        0.1232
     90 C          -9.5666    8.6156   -0.3713 C.1     1  LIG1       -0.0696
     91 C          -8.4406    8.1794   -0.4474 C.1     1  LIG1       -0.1139
     92 H          -7.4459    7.8027   -0.5136 H       1  LIG1        0.1232
@<TRIPOS>BOND
     1    10     9    1
     2    68    66    1
     3    67    66    1
     4     9    12    1
     5     9    11    1
     6     9     8    1
     7    23    21    1
     8    66    61    1
     9    66    69    1
    10    65    64    1
    11    22    21    1
    12    64    60    1
    13     8     3    1
    14    21    13    1
    15    35    34    1
    16    61    60   ar
    17    61    62   ar
    18    17    14    1
    19    60    59   ar
    20    52    49    1
    21    57    56    1
    22    34    33    3
    23    62    70    1
    24    62    63   ar
    25    59    63   ar
    26    59    51    1
    27    56    48    1
    28    49    51   ar
    29    49    48   ar
    30    74    70   ar
    31    74    73   ar
    32    70    71   ar
    33    92    91    1
    34    33    28    1
    35    91    90    3
    36    13    14   ar
    37    13    15   ar
    38    14    16   ar
    39    85    83    1
    40    51    54   ar
    41    90    84    1
    42    48    50   ar
    43    83    84   ar
    44    83    80   ar
    45    73    80    1
    46    73    72   ar
    47    84    81   ar
    48    71    72   ar
    49    71    76    1
    50    80    78   ar
    51    31    27    1
    52     3     2   ar
    53     3     4   ar
    54    72    77    1
    55    81    86    1
    56    81    79   ar
    57    78    79   ar
    58    78    87    1
    59    76    75    3
    60    79    82    1
    61    87    88    3
    62    88    89    1
    63    28    27   ar
    64    28    29   ar
    65    27    26   ar
    66    54    58    1
    67    54    53   ar
    68    50    53   ar
    69    50    39    1
    70     7     2    1
    71    40    39   ar
    72    40    36   ar
    73    53    55    1
    74    39    38   ar
    75    26    16    1
    76    26    25   ar
    77    16    19   ar
    78    29    36    1
    79    29    30   ar
    80    15     4    1
    81    15    18   ar
    82     2     1   ar
    83    36    37   ar
    84     4     5   ar
    85    46    44    1
    86    25    30   ar
    87    25    32    1
    88    38    37   ar
    89    38    44    1
    90    37    41    1
    91    18    19   ar
    92    18    20    1
    93    19    24    1
    94    44    45    1
    95    44    47    1
    96    41    42    3
    97     1     5   ar
    98     1     6    1
    99    42    43    1
