@<TRIPOS>MOLECULE
mol_data/opt/b3lyp/geoms/mol2/12al12al-12al-12al.out
 46 49 0 0 0
SMALL
GASTEIGER

@<TRIPOS>ATOM
      1 C           0.3278    1.8138    0.0006 C.ar    1  LIG1        0.0964
      2 C           1.6905    1.8039    0.0003 C.ar    1  LIG1        0.0187
      3 C           2.0905    3.1803    0.0004 C.ar    1  LIG1        0.1687
      4 C           0.9323    3.9341    0.0001 C.ar    1  LIG1        0.2111
      5 O          -0.1489    3.0826    0.0000 O.2     1  LIG1       -0.4560
      6 H          -0.4132    1.0301    0.0008 H       1  LIG1        0.1031
      7 H           2.3247    0.9309    0.0004 H       1  LIG1        0.0686
      8 O           3.3390    3.7050    0.0005 O.3     1  LIG1       -0.4912
      9 C           4.4071    2.7683    0.0007 C.3     1  LIG1        0.0790
     10 H           5.3258    3.3559    0.0008 H       1  LIG1        0.0660
     11 H           4.3852    2.1331    0.8955 H       1  LIG1        0.0660
     12 H           4.3854    2.1329   -0.8939 H       1  LIG1        0.0660
     13 C           0.6367    5.3353   -0.0000 C.ar    1  LIG1        0.1780
     14 C          -0.5526    6.0153   -0.0003 C.ar    1  LIG1        0.0300
     15 C          -0.2253    7.3993   -0.0004 C.ar    1  LIG1        0.1694
     16 C           1.1655    7.4986   -0.0001 C.ar    1  LIG1        0.2121
     17 O           1.6746    6.2072    0.0001 O.2     1  LIG1       -0.4447
     18 H          -1.5490    5.6024   -0.0005 H       1  LIG1        0.0694
     19 O          -1.2449    8.2921   -0.0008 O.3     1  LIG1       -0.4912
     20 C          -0.9795    9.6861   -0.0014 C.3     1  LIG1        0.0790
     21 H          -1.9549   10.1752   -0.0023 H       1  LIG1        0.0660
     22 H          -0.4294    9.9874    0.8962 H       1  LIG1        0.0660
     23 H          -0.4283    9.9863   -0.8988 H       1  LIG1        0.0660
     24 C           2.2011    8.5070    0.0001 C.ar    1  LIG1        0.1780
     25 C           2.2769    9.8790    0.0005 C.ar    1  LIG1        0.0300
     26 C           3.6588   10.2275    0.0005 C.ar    1  LIG1        0.1694
     27 C           4.3788    9.0404    0.0000 C.ar    1  LIG1        0.2121
     28 O           3.4675    7.9994   -0.0002 O.2     1  LIG1       -0.4447
     29 H           1.4822   10.6032    0.0008 H       1  LIG1        0.0694
     30 O           3.9837   11.5413    0.0009 O.3     1  LIG1       -0.4912
     31 C           5.3490   11.9469    0.0010 C.3     1  LIG1        0.0790
     32 H           5.3280   13.0381    0.0014 H       1  LIG1        0.0660
     33 H           5.8734   11.5866    0.8905 H       1  LIG1        0.0660
     34 H           5.8734   11.5873   -0.8887 H       1  LIG1        0.0660
     35 C           5.7351    8.5564   -0.0002 C.ar    1  LIG1        0.1770
     36 C           6.1943    7.2589   -0.0006 C.ar    1  LIG1        0.0292
     37 C           7.6228    7.3522   -0.0008 C.ar    1  LIG1        0.1583
     38 C           7.9413    8.6808   -0.0005 C.ar    1  LIG1        0.1342
     39 O           6.7839    9.4247   -0.0002 O.2     1  LIG1       -0.4560
     40 H           8.8704    9.2241   -0.0005 H       1  LIG1        0.1068
     41 H           5.5715    6.3786   -0.0007 H       1  LIG1        0.0693
     42 O           8.5523    6.3586   -0.0011 O.3     1  LIG1       -0.4919
     43 C           8.0485    5.0330   -0.0013 C.3     1  LIG1        0.0789
     44 H           8.9188    4.3747   -0.0016 H       1  LIG1        0.0660
     45 H           7.4445    4.8311    0.8934 H       1  LIG1        0.0660
     46 H           7.4441    4.8315   -0.8959 H       1  LIG1        0.0660
@<TRIPOS>BOND
     1    23    20    1
     2    46    43    1
     3    12     9    1
     4    34    31    1
     5    21    20    1
     6    44    43    1
     7    20    19    1
     8    20    22    1
     9    43    42    1
    10    43    45    1
    11    42    37    1
    12    19    15    1
    13    37    36   ar
    14    37    38   ar
    15    41    36    1
    16    36    35   ar
    17    40    38    1
    18    18    14    1
    19    38    39   ar
    20    15    14   ar
    21    15    16   ar
    22    14    13   ar
    23    35    39   ar
    24    35    27    1
    25    28    27   ar
    26    28    24   ar
    27    16    24    1
    28    16    17   ar
    29    13    17   ar
    30    13     4    1
    31    27    26   ar
    32     5     4   ar
    33     5     1   ar
    34    24    25   ar
    35     4     3   ar
    36     2     3   ar
    37     2     7    1
    38     2     1   ar
    39     3     8    1
    40    26    25   ar
    41    26    30    1
    42    25    29    1
    43     8     9    1
    44     1     6    1
    45     9    10    1
    46     9    11    1
    47    30    31    1
    48    31    32    1
    49    31    33    1
