@<TRIPOS>MOLECULE
mol_data/opt/b3lyp/geoms/mol2/12al12al12al12al.out
 46 49 0 0 0
SMALL
GASTEIGER

@<TRIPOS>ATOM
      1 C           0.8165    1.3545   -0.0002 C.ar    1  LIG1        0.0964
      2 C           2.1661    1.5600    0.0000 C.ar    1  LIG1        0.0187
      3 C           2.3365    2.9795   -0.0000 C.ar    1  LIG1        0.1687
      4 C           1.0731    3.5392   -0.0001 C.ar    1  LIG1        0.2111
      5 O           0.1430    2.5313   -0.0001 O.2     1  LIG1       -0.4560
      6 H           0.2090    0.4635   -0.0002 H       1  LIG1        0.1031
      7 H           2.9311    0.7988    0.0001 H       1  LIG1        0.0686
      8 O           3.4743    3.7221    0.0000 O.3     1  LIG1       -0.4912
      9 C           4.6963    2.9953   -0.0000 C.3     1  LIG1        0.0790
     10 H           5.4944    3.7387   -0.0000 H       1  LIG1        0.0660
     11 H           4.7873    2.3665    0.8945 H       1  LIG1        0.0660
     12 H           4.7873    2.3665   -0.8946 H       1  LIG1        0.0660
     13 C           0.6329    4.8998   -0.0001 C.ar    1  LIG1        0.1780
     14 C           1.3368    6.0862   -0.0001 C.ar    1  LIG1        0.0300
     15 C           0.3550    7.1132   -0.0001 C.ar    1  LIG1        0.1694
     16 C          -0.8870    6.5013   -0.0001 C.ar    1  LIG1        0.2121
     17 O          -0.7076    5.1394   -0.0001 O.2     1  LIG1       -0.4447
     18 H           2.4109    6.1764   -0.0000 H       1  LIG1        0.0694
     19 O           0.5085    8.4629   -0.0001 O.3     1  LIG1       -0.4912
     20 C           1.8486    8.9382   -0.0002 C.3     1  LIG1        0.0790
     21 H           1.7871   10.0272   -0.0002 H       1  LIG1        0.0660
     22 H           2.3900    8.6050    0.8939 H       1  LIG1        0.0660
     23 H           2.3900    8.6049   -0.8943 H       1  LIG1        0.0660
     24 C          -2.2101    7.0346   -0.0002 C.ar    1  LIG1        0.1780
     25 C          -2.6691    8.3370   -0.0002 C.ar    1  LIG1        0.0300
     26 C          -4.0869    8.2426   -0.0002 C.ar    1  LIG1        0.1694
     27 C          -4.4152    6.8990   -0.0002 C.ar    1  LIG1        0.2121
     28 O          -3.2563    6.1613   -0.0002 O.2     1  LIG1       -0.4447
     29 H          -2.0492    9.2188   -0.0002 H       1  LIG1        0.0694
     30 O          -5.0231    9.2283   -0.0003 O.3     1  LIG1       -0.4912
     31 C          -4.5251   10.5593   -0.0003 C.3     1  LIG1        0.0790
     32 H          -5.3983   11.2131   -0.0004 H       1  LIG1        0.0660
     33 H          -3.9212   10.7602    0.8935 H       1  LIG1        0.0660
     34 H          -3.9212   10.7601   -0.8942 H       1  LIG1        0.0660
     35 C          -5.6768    6.2249   -0.0003 C.ar    1  LIG1        0.1770
     36 C          -6.9678    6.7065   -0.0003 C.ar    1  LIG1        0.0292
     37 C          -7.8087    5.5495   -0.0003 C.ar    1  LIG1        0.1583
     38 C          -6.9878    4.4545   -0.0003 C.ar    1  LIG1        0.1342
     39 O          -5.6787    4.8630   -0.0003 O.2     1  LIG1       -0.4560
     40 H          -7.1684    3.3934   -0.0003 H       1  LIG1        0.1068
     41 H          -7.2482    7.7472   -0.0003 H       1  LIG1        0.0693
     42 O          -9.1676    5.4727   -0.0003 O.3     1  LIG1       -0.4919
     43 C          -9.8589    6.7118   -0.0004 C.3     1  LIG1        0.0789
     44 H         -10.9228    6.4690   -0.0005 H       1  LIG1        0.0660
     45 H          -9.6245    7.3055    0.8928 H       1  LIG1        0.0660
     46 H          -9.6244    7.3054   -0.8937 H       1  LIG1        0.0660
@<TRIPOS>BOND
     1    12     9    1
     2    23    20    1
     3    34    31    1
     4    46    43    1
     5    44    43    1
     6    43    42    1
     7    43    45    1
     8    32    31    1
     9    42    37    1
    10    40    38    1
    11    31    30    1
    12    31    33    1
    13    37    38   ar
    14    37    36   ar
    15    38    39   ar
    16    41    36    1
    17    36    35   ar
    18    35    39   ar
    19    35    27    1
    20    30    26    1
    21     6     1    1
    22    27    26   ar
    23    27    28   ar
    24    26    25   ar
    25    28    24   ar
    26    25    24   ar
    27    25    29    1
    28    21    20    1
    29    24    16    1
    30     1     5   ar
    31     1     2   ar
    32    20    19    1
    33    20    22    1
    34    16    17   ar
    35    16    15   ar
    36    17    13   ar
    37    15    19    1
    38    15    14   ar
    39    13    14   ar
    40    13     4    1
    41     5     4   ar
    42    14    18    1
    43     4     3   ar
    44     3     8    1
    45     3     2   ar
    46     9    10    1
    47     9     8    1
    48     9    11    1
    49     2     7    1
