@<TRIPOS>MOLECULE
mol_data/opt/b3lyp/geoms/mol2/12al6lh-6ef13ea-.out
 50 53 0 0 0
SMALL
GASTEIGER

@<TRIPOS>ATOM
      1 C           0.2291    1.4732    0.4740 C.ar    1  LIG1        0.0962
      2 C           1.5541    1.4992    0.1517 C.ar    1  LIG1        0.0186
      3 C           1.8601    2.8770   -0.0705 C.ar    1  LIG1        0.1657
      4 C           0.6983    3.6052    0.1347 C.ar    1  LIG1        0.1813
      5 O          -0.2974    2.7160    0.4681 O.2     1  LIG1       -0.4590
      6 H          -0.4495    0.6729    0.7247 H       1  LIG1        0.1031
      7 H           2.2177    0.6511    0.0845 H       1  LIG1        0.0686
      8 O           3.0528    3.4323   -0.4196 O.3     1  LIG1       -0.4913
      9 C           4.1621    2.5465   -0.4967 C.3     1  LIG1        0.0790
     10 H           5.0260    3.1611   -0.7528 H       1  LIG1        0.0660
     11 H           4.3432    2.0488    0.4640 H       1  LIG1        0.0660
     12 H           4.0150    1.7871   -1.2750 H       1  LIG1        0.0660
     13 C          -0.8036    5.6331    0.4961 C.ar    1  LIG1        0.2262
     14 C           0.4065    5.0252    0.0454 C.ar    1  LIG1        0.0841
     15 C           1.3465    5.9001   -0.5071 C.ar    1  LIG1       -0.0230
     16 C           1.1144    7.2793   -0.6035 C.ar    1  LIG1        0.0519
     17 C          -0.1165    7.7622   -0.1196 C.ar    1  LIG1        0.0982
     18 N          -1.0315    6.9263    0.4080 N.ar    1  LIG1       -0.2104
     19 H           2.2833    5.4980   -0.8751 H       1  LIG1        0.0645
     20 O          -1.7547    4.8383    1.0454 O.3     1  LIG1       -0.4792
     21 C          -2.9491    5.4847    1.4878 C.3     1  LIG1        0.0804
     22 H          -3.5872    4.6821    1.8614 H       1  LIG1        0.0660
     23 H          -2.7389    6.2040    2.2855 H       1  LIG1        0.0660
     24 H          -3.4396    6.0177    0.6684 H       1  LIG1        0.0660
     25 N           2.1078    8.1159   -1.1343 N.pl3   1  LIG1       -0.3563
     26 H           2.7413    7.6386   -1.7628 H       1  LIG1        0.1424
     27 H           1.7561    8.9680   -1.5523 H       1  LIG1        0.1424
     28 C          -1.7457    9.6608   -0.6090 C.ar    1  LIG1        0.1233
     29 C          -0.4831    9.2004   -0.1467 C.ar    1  LIG1        0.0396
     30 C           0.3969   10.1760    0.3188 C.ar    1  LIG1       -0.0061
     31 C           0.0519   11.5311    0.3537 C.ar    1  LIG1        0.1449
     32 C          -1.2427   11.8965   -0.0910 C.ar    1  LIG1        0.1309
     33 N          -2.0813   10.9546   -0.5647 N.ar    1  LIG1       -0.2326
     34 H           1.3804    9.9014    0.6844 H       1  LIG1        0.0662
     35 C          -2.7192    8.7918   -1.2067 C.1     1  LIG1       -0.0491
     36 C          -3.5578    8.1163   -1.7578 C.1     1  LIG1       -0.1124
     37 H          -4.2877    7.5055   -2.2361 H       1  LIG1        0.1232
     38 O           1.0122   12.3653    0.8028 O.3     1  LIG1       -0.5045
     39 H           0.7065   13.2851    0.9143 H       1  LIG1        0.2922
     40 C          -1.8188   13.2510   -0.1418 C.ar    1  LIG1        0.0841
     41 C          -1.4740   14.5489    0.2873 C.ar    1  LIG1        0.0515
     42 C          -2.5397   15.4222   -0.1032 C.ar    1  LIG1       -0.0283
     43 C          -3.4867   14.6561   -0.7397 C.ar    1  LIG1        0.0034
     44 N          -3.0392   13.3659   -0.7542 N.ar    1  LIG1       -0.3584
     45 H          -3.4931   12.5363   -1.1159 H       1  LIG1        0.1654
     46 H          -4.4342   14.9279   -1.1796 H       1  LIG1        0.0807
     47 C          -0.3302   14.9808    1.0030 C.1     1  LIG1       -0.0675
     48 C           0.6303   15.3978    1.6176 C.1     1  LIG1       -0.1138
     49 H           1.4720   15.7518    2.1668 H       1  LIG1        0.1232
     50 H          -2.5783   16.4853    0.0809 H       1  LIG1        0.0645
@<TRIPOS>BOND
     1    37    36    1
     2    26    25    1
     3    36    35    3
     4    27    25    1
     5    12     9    1
     6    35    28    1
     7    46    43    1
     8    25    16    1
     9    45    44    1
    10    19    15    1
    11    44    43   ar
    12    44    40   ar
    13    10     9    1
    14    43    42   ar
    15    28    33   ar
    16    28    29   ar
    17    16    15   ar
    18    16    17   ar
    19    33    32   ar
    20    15    14   ar
    21     9     8    1
    22     9    11    1
    23     8     3    1
    24    29    17    1
    25    29    30   ar
    26    40    32    1
    27    40    41   ar
    28    17    18   ar
    29    42    50    1
    30    42    41   ar
    31    32    31   ar
    32     3     4   ar
    33     3     2   ar
    34    14     4    1
    35    14    13   ar
    36     7     2    1
    37     4     5   ar
    38     2     1   ar
    39    41    47    1
    40    30    31   ar
    41    30    34    1
    42    31    38    1
    43    18    13   ar
    44     5     1   ar
    45     1     6    1
    46    13    20    1
    47    24    21    1
    48    38    39    1
    49    47    48    3
    50    20    21    1
    51    21    22    1
    52    21    23    1
    53    48    49    1
