@<TRIPOS>MOLECULE
mol_data/opt/b3lyp/geoms/mol2/12al12al-.out
 24 25 0 0 0
SMALL
GASTEIGER

@<TRIPOS>ATOM
      1 C           0.0661    1.7916   -0.0000 C.ar    1  LIG1        0.0964
      2 C           1.4257    1.6998   -0.0000 C.ar    1  LIG1        0.0187
      3 C           1.9070    3.0505   -0.0000 C.ar    1  LIG1        0.1687
      4 C           0.7974    3.8714   -0.0001 C.ar    1  LIG1        0.2110
      5 O          -0.3328    3.0881   -0.0001 O.2     1  LIG1       -0.4560
      6 H          -0.7210    1.0547    0.0000 H       1  LIG1        0.1031
      7 H           2.0072    0.7903    0.0000 H       1  LIG1        0.0686
      8 O           3.1835    3.5057    0.0000 O.3     1  LIG1       -0.4912
      9 C           4.2018    2.5162   -0.0000 C.3     1  LIG1        0.0790
     10 H           5.1493    3.0565   -0.0000 H       1  LIG1        0.0660
     11 H           4.1481    1.8820    0.8944 H       1  LIG1        0.0660
     12 H           4.1480    1.8820   -0.8945 H       1  LIG1        0.0660
     13 C           0.5969    5.2929   -0.0001 C.ar    1  LIG1        0.1770
     14 C          -0.5415    6.0578   -0.0001 C.ar    1  LIG1        0.0292
     15 C          -0.0942    7.4152   -0.0001 C.ar    1  LIG1        0.1583
     16 C           1.2752    7.3910   -0.0002 C.ar    1  LIG1        0.1342
     17 O           1.7061    6.0852   -0.0002 O.2     1  LIG1       -0.4560
     18 H           2.0442    8.1436   -0.0002 H       1  LIG1        0.1068
     19 H          -1.5626    5.7103   -0.0000 H       1  LIG1        0.0693
     20 O          -0.9485    8.4694   -0.0001 O.3     1  LIG1       -0.4919
     21 C          -0.3271    9.7460   -0.0002 C.3     1  LIG1        0.0789
     22 H          -1.1295   10.4848   -0.0002 H       1  LIG1        0.0660
     23 H           0.2965    9.8832    0.8935 H       1  LIG1        0.0660
     24 H           0.2964    9.8831   -0.8940 H       1  LIG1        0.0660
@<TRIPOS>BOND
     1    12     9    1
     2    24    21    1
     3    18    16    1
     4    17    16   ar
     5    17    13   ar
     6    16    15   ar
     7    21    22    1
     8    21    20    1
     9    21    23    1
    10    15    20    1
    11    15    14   ar
    12    13     4    1
    13    13    14   ar
    14     5     4   ar
    15     5     1   ar
    16     4     3   ar
    17    14    19    1
    18     3     2   ar
    19     3     8    1
    20    10     9    1
    21     9     8    1
    22     9    11    1
    23     2     1   ar
    24     2     7    1
    25     1     6    1
