@<TRIPOS>MOLECULE
mol_data/opt/b3lyp/geoms/mol2/12al12al12al-12al.out
 46 49 0 0 0
SMALL
GASTEIGER

@<TRIPOS>ATOM
      1 C           0.2816    1.5621   -0.0000 C.ar    1  LIG1        0.0964
      2 C           1.6425    1.6658   -0.0001 C.ar    1  LIG1        0.0187
      3 C           1.9196    3.0686   -0.0000 C.ar    1  LIG1        0.1687
      4 C           0.7022    3.7218   -0.0001 C.ar    1  LIG1        0.2111
      5 O          -0.3020    2.7865   -0.0001 O.2     1  LIG1       -0.4560
      6 H          -0.3908    0.7189    0.0000 H       1  LIG1        0.1031
      7 H           2.3481    0.8491   -0.0001 H       1  LIG1        0.0686
      8 O           3.1094    3.7228   -0.0000 O.3     1  LIG1       -0.4912
      9 C           4.2739    2.9061   -0.0001 C.3     1  LIG1        0.0790
     10 H           5.1252    3.5876   -0.0001 H       1  LIG1        0.0660
     11 H           4.3170    2.2723    0.8944 H       1  LIG1        0.0660
     12 H           4.3170    2.2724   -0.8947 H       1  LIG1        0.0660
     13 C           0.3649    5.1118   -0.0001 C.ar    1  LIG1        0.1780
     14 C           1.1514    6.2430   -0.0000 C.ar    1  LIG1        0.0300
     15 C           0.2493    7.3447   -0.0001 C.ar    1  LIG1        0.1694
     16 C          -1.0341    6.8249   -0.0001 C.ar    1  LIG1        0.2121
     17 O          -0.9538    5.4502   -0.0001 O.2     1  LIG1       -0.4447
     18 H           2.2293    6.2555   -0.0000 H       1  LIG1        0.0694
     19 O           0.5211    8.6720   -0.0001 O.3     1  LIG1       -0.4912
     20 C           1.8977    9.0252   -0.0001 C.3     1  LIG1        0.0790
     21 H           1.9321   10.1154   -0.0002 H       1  LIG1        0.0660
     22 H           2.4091    8.6466    0.8939 H       1  LIG1        0.0660
     23 H           2.4091    8.6465   -0.8942 H       1  LIG1        0.0660
     24 C          -2.3436    7.3937   -0.0001 C.ar    1  LIG1        0.1780
     25 C          -3.5947    6.8337   -0.0001 C.ar    1  LIG1        0.0300
     26 C          -4.5246    7.9140   -0.0001 C.ar    1  LIG1        0.1694
     27 C          -3.7851    9.0933   -0.0002 C.ar    1  LIG1        0.2121
     28 O          -2.4404    8.7501   -0.0002 O.2     1  LIG1       -0.4447
     29 H          -3.8443    5.7843    0.0000 H       1  LIG1        0.0694
     30 O          -5.8463    7.6248   -0.0001 O.3     1  LIG1       -0.4912
     31 C          -6.8141    8.6690   -0.0003 C.3     1  LIG1        0.0790
     32 H          -7.7832    8.1672   -0.0003 H       1  LIG1        0.0660
     33 H          -6.7240    9.2990    0.8892 H       1  LIG1        0.0660
     34 H          -6.7238    9.2988   -0.8899 H       1  LIG1        0.0660
     35 C          -3.9602   10.5225   -0.0003 C.ar    1  LIG1        0.1770
     36 C          -3.0026   11.5114   -0.0002 C.ar    1  LIG1        0.0292
     37 C          -3.7195   12.7501   -0.0003 C.ar    1  LIG1        0.1583
     38 C          -5.0515   12.4447   -0.0005 C.ar    1  LIG1        0.1342
     39 O          -5.2039   11.0766   -0.0005 O.2     1  LIG1       -0.4560
     40 H          -5.9514   13.0351   -0.0007 H       1  LIG1        0.1068
     41 H          -1.9379   11.3469   -0.0000 H       1  LIG1        0.0693
     42 O          -3.2388   14.0223   -0.0003 O.3     1  LIG1       -0.4919
     43 C          -1.8251   14.1531   -0.0002 C.3     1  LIG1        0.0789
     44 H          -1.6176   15.2244   -0.0002 H       1  LIG1        0.0660
     45 H          -1.3778   13.6988    0.8933 H       1  LIG1        0.0660
     46 H          -1.3777   13.6987   -0.8936 H       1  LIG1        0.0660
@<TRIPOS>BOND
     1    12     9    1
     2    23    20    1
     3    46    43    1
     4    34    31    1
     5    40    38    1
     6    38    39   ar
     7    38    37   ar
     8    39    35   ar
     9    32    31    1
    10    37    42    1
    11    37    36   ar
    12    42    43    1
    13    31    30    1
    14    31    33    1
    15    35    27    1
    16    35    36   ar
    17    44    43    1
    18    27    28   ar
    19    27    26   ar
    20    43    45    1
    21    28    24   ar
    22    21    20    1
    23    36    41    1
    24    26    30    1
    25    26    25   ar
    26    20    19    1
    27    20    22    1
    28    10     9    1
    29     9     8    1
    30     9    11    1
    31    24    16    1
    32    24    25   ar
    33    19    15    1
    34    16    15   ar
    35    16    17   ar
    36     7     2    1
    37    15    14   ar
    38     2     3   ar
    39     2     1   ar
    40    17    13   ar
    41    25    29    1
    42     5     4   ar
    43     5     1   ar
    44    13     4    1
    45    13    14   ar
    46     4     3   ar
    47     3     8    1
    48    14    18    1
    49     1     6    1
