@<TRIPOS>MOLECULE
mol_data/opt/b3lyp/geoms/mol2/12al13fa-13da-4de.out
 44 47 0 0 0
SMALL
GASTEIGER

@<TRIPOS>ATOM
      1 C           0.2023    1.7428    0.0563 C.ar    1  LIG1        0.0963
      2 C           1.5597    1.6642   -0.0007 C.ar    1  LIG1        0.0187
      3 C           2.0347    3.0156   -0.0728 C.ar    1  LIG1        0.1672
      4 C           0.9231    3.8373   -0.0616 C.ar    1  LIG1        0.1958
      5 O          -0.2047    3.0403    0.0206 O.2     1  LIG1       -0.4575
      6 H          -0.5788    1.0019    0.1189 H       1  LIG1        0.1031
      7 H           2.1490    0.7603    0.0101 H       1  LIG1        0.0686
      8 O           3.3098    3.4631   -0.1308 O.3     1  LIG1       -0.4913
      9 C           4.3272    2.4729   -0.1552 C.3     1  LIG1        0.0790
     10 H           5.2727    3.0132   -0.2119 H       1  LIG1        0.0660
     11 H           4.3154    1.8602    0.7556 H       1  LIG1        0.0660
     12 H           4.2318    1.8184   -1.0313 H       1  LIG1        0.0660
     13 C           0.6676    5.2493   -0.0901 C.ar    1  LIG1        0.1282
     14 C           1.4771    6.3840   -0.2201 C.ar    1  LIG1        0.1458
     15 C           0.6569    7.5281   -0.1321 C.ar    1  LIG1        0.0074
     16 C          -0.6546    7.0934    0.0496 C.ar    1  LIG1        0.0682
     17 N          -0.6316    5.7127    0.0429 N.ar    1  LIG1       -0.3475
     18 H          -1.3738    5.1122    0.3658 H       1  LIG1        0.1661
     19 O           2.8212    6.3401   -0.4255 O.3     1  LIG1       -0.5045
     20 H           3.1581    7.2450   -0.4191 H       1  LIG1        0.2922
     21 H           0.9706    8.5584   -0.2217 H       1  LIG1        0.0676
     22 C          -1.8722    7.8398    0.1744 C.ar    1  LIG1        0.0810
     23 C          -2.0957    9.1865    0.5100 C.ar    1  LIG1        0.0790
     24 C          -3.4981    9.4234    0.4623 C.ar    1  LIG1       -0.0183
     25 C          -4.1193    8.2378    0.1140 C.ar    1  LIG1        0.0495
     26 N          -3.1108    7.2832   -0.0326 N.ar    1  LIG1       -0.3520
     27 H          -3.2440    6.4163   -0.5309 H       1  LIG1        0.1660
     28 N          -0.2560   10.8868    1.1376 N.1     1  LIG1       -0.1908
     29 C          -1.0919   10.1234    0.8605 C.1     1  LIG1        0.1013
     30 H          -3.9827   10.3578    0.6963 H       1  LIG1        0.0652
     31 C          -6.5353    8.7976   -0.3966 C.ar    1  LIG1        0.0609
     32 C          -7.8696    8.3772   -0.5323 C.ar    1  LIG1       -0.0426
     33 C          -5.5209    7.8673   -0.0380 C.ar    1  LIG1        0.0168
     34 C          -8.2287    7.0531   -0.3374 C.ar    1  LIG1       -0.0451
     35 H          -8.6202    9.1107   -0.8060 H       1  LIG1        0.0631
     36 C          -5.9136    6.5334    0.1651 C.ar    1  LIG1       -0.0360
     37 C          -7.2422    6.1119    0.0154 C.ar    1  LIG1        0.0254
     38 H          -5.1790    5.8033    0.4861 H       1  LIG1        0.0637
     39 H          -9.2593    6.7376   -0.4503 H       1  LIG1        0.0630
     40 N          -6.0652   11.3060   -0.8656 N.1     1  LIG1       -0.1908
     41 C          -6.2499   10.1765   -0.6525 C.1     1  LIG1        0.0998
     42 C          -7.5888    4.7437    0.2352 C.1     1  LIG1       -0.0696
     43 C          -7.8849    3.5851    0.4186 C.1     1  LIG1       -0.1139
     44 H          -8.1493    2.5657    0.5825 H       1  LIG1        0.1232
@<TRIPOS>BOND
     1    12     9    1
     2    40    41    3
     3    35    32    1
     4    41    31    1
     5    32    31   ar
     6    32    34   ar
     7    27    26    1
     8    39    34    1
     9    19    20    1
    10    19    14    1
    11    31    33   ar
    12    34    37   ar
    13    21    15    1
    14    14    15   ar
    15    14    13   ar
    16    10     9    1
    17     9     8    1
    18     9    11    1
    19    15    16   ar
    20     8     3    1
    21    13     4    1
    22    13    17   ar
    23     3     4   ar
    24     3     2   ar
    25     4     5   ar
    26    33    25    1
    27    33    36   ar
    28    26    25   ar
    29    26    22   ar
    30     2     7    1
    31     2     1   ar
    32    37    36   ar
    33    37    42    1
    34     5     1   ar
    35    17    16   ar
    36    17    18    1
    37    16    22    1
    38     1     6    1
    39    25    24   ar
    40    36    38    1
    41    22    23   ar
    42    42    43    3
    43    43    44    1
    44    24    23   ar
    45    24    30    1
    46    23    29    1
    47    29    28    3
