@<TRIPOS>MOLECULE
mol_data/opt/b3lyp/geoms/mol2/12al12al-12al12al-.out
 46 49 0 0 0
SMALL
GASTEIGER

@<TRIPOS>ATOM
      1 C           0.3172    1.6510   -0.0001 C.ar    1  LIG1        0.0964
      2 C           1.6790    1.7115   -0.0002 C.ar    1  LIG1        0.0187
      3 C           2.0065    3.1065   -0.0001 C.ar    1  LIG1        0.1687
      4 C           0.8104    3.7986   -0.0001 C.ar    1  LIG1        0.2111
      5 O          -0.2252    2.8938   -0.0002 O.2     1  LIG1       -0.4560
      6 H          -0.3822    0.8298   -0.0001 H       1  LIG1        0.1031
      7 H           2.3574    0.8723   -0.0003 H       1  LIG1        0.0686
      8 O           3.2236    3.7016   -0.0001 O.3     1  LIG1       -0.4912
      9 C           4.3463    2.8298   -0.0002 C.3     1  LIG1        0.0790
     10 H           5.2286    3.4708   -0.0002 H       1  LIG1        0.0660
     11 H           4.3617    2.1943    0.8944 H       1  LIG1        0.0660
     12 H           4.3617    2.1945   -0.8948 H       1  LIG1        0.0660
     13 C           0.4583    5.1859   -0.0001 C.ar    1  LIG1        0.1780
     14 C          -0.7485    5.8334   -0.0000 C.ar    1  LIG1        0.0300
     15 C          -0.4625    7.2299   -0.0000 C.ar    1  LIG1        0.1694
     16 C           0.9244    7.3646   -0.0001 C.ar    1  LIG1        0.2121
     17 O           1.4730    6.0891   -0.0001 O.2     1  LIG1       -0.4447
     18 H          -1.7325    5.3912   -0.0000 H       1  LIG1        0.0694
     19 O          -1.4982    8.0975    0.0000 O.3     1  LIG1       -0.4912
     20 C          -1.2652    9.5031   -0.0001 C.3     1  LIG1        0.0790
     21 H          -2.2554    9.9615   -0.0001 H       1  LIG1        0.0660
     22 H          -0.7130    9.8157    0.8906 H       1  LIG1        0.0660
     23 H          -0.7130    9.8155   -0.8909 H       1  LIG1        0.0660
     24 C           1.9486    8.3717   -0.0001 C.ar    1  LIG1        0.1780
     25 C           3.3173    8.2117    0.0000 C.ar    1  LIG1        0.0300
     26 C           3.8702    9.5242   -0.0000 C.ar    1  LIG1        0.1694
     27 C           2.8144   10.4158   -0.0001 C.ar    1  LIG1        0.2121
     28 O           1.6343    9.6969   -0.0002 O.2     1  LIG1       -0.4447
     29 H           3.8321    7.2652    0.0001 H       1  LIG1        0.0694
     30 O           5.1699    9.9036    0.0000 O.3     1  LIG1       -0.4912
     31 C           6.1274    8.8539    0.0001 C.3     1  LIG1        0.0790
     32 H           7.1057    9.3362    0.0002 H       1  LIG1        0.0660
     33 H           6.0332    8.2243    0.8941 H       1  LIG1        0.0660
     34 H           6.0333    8.2243   -0.8938 H       1  LIG1        0.0660
     35 C           2.7003   11.8423   -0.0002 C.ar    1  LIG1        0.1770
     36 C           1.6123   12.6810   -0.0002 C.ar    1  LIG1        0.0292
     37 C           2.1450   14.0065   -0.0003 C.ar    1  LIG1        0.1583
     38 C           3.5099   13.8962   -0.0003 C.ar    1  LIG1        0.1342
     39 O           3.8574   12.5651   -0.0003 O.2     1  LIG1       -0.4560
     40 H           4.3256   14.5982   -0.0004 H       1  LIG1        0.1068
     41 H           0.5699   12.4041   -0.0002 H       1  LIG1        0.0693
     42 O           1.3587   15.1128   -0.0004 O.3     1  LIG1       -0.4919
     43 C           2.0602   16.3472   -0.0004 C.3     1  LIG1        0.0789
     44 H           1.3069   17.1360   -0.0005 H       1  LIG1        0.0660
     45 H           2.6914   16.4440    0.8932 H       1  LIG1        0.0660
     46 H           2.6914   16.4439   -0.8941 H       1  LIG1        0.0660
@<TRIPOS>BOND
     1    12     9    1
     2    46    43    1
     3    34    31    1
     4    23    20    1
     5    44    43    1
     6    43    42    1
     7    43    45    1
     8    40    38    1
     9    42    37    1
    10    38    37   ar
    11    38    39   ar
    12    37    36   ar
    13     7     2    1
    14    39    35   ar
    15    36    41    1
    16    36    35   ar
    17     2     3   ar
    18     2     1   ar
    19    35    27    1
    20     9    10    1
    21     9     8    1
    22     9    11    1
    23     5     4   ar
    24     5     1   ar
    25    28    27   ar
    26    28    24   ar
    27    21    20    1
    28     4     3   ar
    29     4    13    1
    30     3     8    1
    31    27    26   ar
    32    17    13   ar
    33    17    16   ar
    34    20    19    1
    35    20    22    1
    36    13    14   ar
    37     1     6    1
    38    16    24    1
    39    16    15   ar
    40    24    25   ar
    41    14    15   ar
    42    14    18    1
    43    15    19    1
    44    26    25   ar
    45    26    30    1
    46    25    29    1
    47    30    31    1
    48    31    32    1
    49    31    33    1
