@<TRIPOS>MOLECULE
mol_data/opt/b3lyp/geoms/mol2/12al12al12al-12al-.out
 46 49 0 0 0
SMALL
GASTEIGER

@<TRIPOS>ATOM
      1 C           0.2555    1.5283    0.0001 C.ar    1  LIG1        0.0964
      2 C           1.6182    1.6041   -0.0001 C.ar    1  LIG1        0.0187
      3 C           1.9239    3.0010   -0.0001 C.ar    1  LIG1        0.1687
      4 C           0.7203    3.6791   -0.0001 C.ar    1  LIG1        0.2111
      5 O          -0.3028    2.7645   -0.0001 O.2     1  LIG1       -0.4560
      6 H          -0.4341    0.6991    0.0002 H       1  LIG1        0.1031
      7 H           2.3069    0.7733   -0.0002 H       1  LIG1        0.0686
      8 O           3.1273    3.6303   -0.0000 O.3     1  LIG1       -0.4912
      9 C           4.2744    2.7897   -0.0001 C.3     1  LIG1        0.0790
     10 H           5.1397    3.4534   -0.0001 H       1  LIG1        0.0660
     11 H           4.3044    2.1551    0.8944 H       1  LIG1        0.0660
     12 H           4.3044    2.1552   -0.8947 H       1  LIG1        0.0660
     13 C           0.4114    5.0759   -0.0001 C.ar    1  LIG1        0.1780
     14 C           1.2209    6.1906   -0.0001 C.ar    1  LIG1        0.0300
     15 C           0.3417    7.3110   -0.0001 C.ar    1  LIG1        0.1694
     16 C          -0.9521    6.8176   -0.0001 C.ar    1  LIG1        0.2121
     17 O          -0.9000    5.4408   -0.0001 O.2     1  LIG1       -0.4447
     18 H           2.2988    6.1816   -0.0000 H       1  LIG1        0.0694
     19 O           0.6381    8.6302   -0.0001 O.3     1  LIG1       -0.4912
     20 C           2.0191    8.9629   -0.0001 C.3     1  LIG1        0.0790
     21 H           2.0678   10.0523   -0.0001 H       1  LIG1        0.0660
     22 H           2.5250    8.5767    0.8940 H       1  LIG1        0.0660
     23 H           2.5250    8.5766   -0.8942 H       1  LIG1        0.0660
     24 C          -2.2527    7.4080   -0.0001 C.ar    1  LIG1        0.1780
     25 C          -3.5082    6.8569   -0.0001 C.ar    1  LIG1        0.0300
     26 C          -4.4247    7.9443   -0.0002 C.ar    1  LIG1        0.1694
     27 C          -3.6781    9.1211   -0.0002 C.ar    1  LIG1        0.2121
     28 O          -2.3377    8.7621   -0.0002 O.2     1  LIG1       -0.4447
     29 H          -3.7682    5.8101   -0.0001 H       1  LIG1        0.0694
     30 O          -5.7506    7.6545   -0.0002 O.3     1  LIG1       -0.4912
     31 C          -6.7130    8.6957   -0.0004 C.3     1  LIG1        0.0790
     32 H          -7.6866    8.2024   -0.0006 H       1  LIG1        0.0660
     33 H          -6.6289    9.3182    0.8968 H       1  LIG1        0.0660
     34 H          -6.6285    9.3182   -0.8976 H       1  LIG1        0.0660
     35 C          -3.8700   10.5578   -0.0002 C.ar    1  LIG1        0.1770
     36 C          -4.9342   11.4314   -0.0001 C.ar    1  LIG1        0.0292
     37 C          -4.3762   12.7457   -0.0002 C.ar    1  LIG1        0.1583
     38 C          -3.0164   12.6075   -0.0004 C.ar    1  LIG1        0.1342
     39 O          -2.7025   11.2725   -0.0004 O.2     1  LIG1       -0.4560
     40 H          -2.1843   13.2900   -0.0005 H       1  LIG1        0.1068
     41 H          -5.9867   11.2133    0.0000 H       1  LIG1        0.0693
     42 O          -5.1465   13.8639   -0.0002 O.3     1  LIG1       -0.4919
     43 C          -4.4252   15.0866   -0.0003 C.3     1  LIG1        0.0789
     44 H          -5.1656   15.8877   -0.0002 H       1  LIG1        0.0660
     45 H          -3.7923   15.1733    0.8932 H       1  LIG1        0.0660
     46 H          -3.7925   15.1733   -0.8940 H       1  LIG1        0.0660
@<TRIPOS>BOND
     1    34    31    1
     2    12     9    1
     3    23    20    1
     4    46    43    1
     5    32    31    1
     6    40    38    1
     7    31    30    1
     8    31    33    1
     9    39    38   ar
    10    39    35   ar
    11    38    37   ar
    12    43    44    1
    13    43    42    1
    14    43    45    1
    15    37    42    1
    16    37    36   ar
    17    35    27    1
    18    35    36   ar
    19    27    28   ar
    20    27    26   ar
    21    28    24   ar
    22     7     2    1
    23    30    26    1
    24    26    25   ar
    25    24    16    1
    26    24    25   ar
    27     2     3   ar
    28     2     1   ar
    29    36    41    1
    30     9    10    1
    31     9     8    1
    32     9    11    1
    33    16    17   ar
    34    16    15   ar
    35    17    13   ar
    36    25    29    1
    37     5     4   ar
    38     5     1   ar
    39    21    20    1
    40    20    19    1
    41    20    22    1
    42    15    19    1
    43    15    14   ar
    44    13     4    1
    45    13    14   ar
    46     4     3   ar
    47     3     8    1
    48    14    18    1
    49     1     6    1
