@<TRIPOS>MOLECULE
mol_data/opt/b3lyp/geoms/mol2/12al12al.out
 24 25 0 0 0
SMALL
GASTEIGER

@<TRIPOS>ATOM
      1 C           0.0770    1.6602   -0.0000 C.ar    1  LIG1        0.0964
      2 C           1.4413    1.6741   -0.0000 C.ar    1  LIG1        0.0187
      3 C           1.8097    3.0569   -0.0000 C.ar    1  LIG1        0.1687
      4 C           0.6397    3.7879   -0.0001 C.ar    1  LIG1        0.2110
      5 O          -0.4236    2.9213   -0.0001 O.2     1  LIG1       -0.4560
      6 H          -0.6497    0.8637    0.0000 H       1  LIG1        0.1031
      7 H           2.0922    0.8131   -0.0000 H       1  LIG1        0.0686
      8 O           3.0421    3.6310    0.0000 O.3     1  LIG1       -0.4912
      9 C           4.1479    2.7384   -0.0000 C.3     1  LIG1        0.0790
     10 H           5.0435    3.3609   -0.0000 H       1  LIG1        0.0660
     11 H           4.1497    2.1025    0.8944 H       1  LIG1        0.0660
     12 H           4.1496    2.1026   -0.8945 H       1  LIG1        0.0660
     13 C           0.3933    5.2016   -0.0001 C.ar    1  LIG1        0.1770
     14 C           1.2518    6.2763   -0.0001 C.ar    1  LIG1        0.0292
     15 C           0.4137    7.4368   -0.0001 C.ar    1  LIG1        0.1583
     16 C          -0.8817    6.9967   -0.0002 C.ar    1  LIG1        0.1342
     17 O          -0.9001    5.6256   -0.0002 O.2     1  LIG1       -0.4560
     18 H          -1.8339    7.4982   -0.0002 H       1  LIG1        0.1068
     19 H           2.3284    6.2193   -0.0001 H       1  LIG1        0.0693
     20 O           0.7633    8.7512   -0.0001 O.3     1  LIG1       -0.4919
     21 C           2.1562    9.0245   -0.0002 C.3     1  LIG1        0.0789
     22 H           2.2543   10.1112   -0.0002 H       1  LIG1        0.0660
     23 H           2.6477    8.6180    0.8933 H       1  LIG1        0.0660
     24 H           2.6476    8.6180   -0.8937 H       1  LIG1        0.0660
@<TRIPOS>BOND
     1    12     9    1
     2    24    21    1
     3    22    21    1
     4    18    16    1
     5    21    20    1
     6    21    23    1
     7    17    16   ar
     8    17    13   ar
     9    16    15   ar
    10    15    20    1
    11    15    14   ar
    12    13    14   ar
    13    13     4    1
    14     5     4   ar
    15     5     1   ar
    16    14    19    1
    17     4     3   ar
    18     2     3   ar
    19     2     1   ar
    20     2     7    1
    21     9    10    1
    22     9     8    1
    23     9    11    1
    24     3     8    1
    25     1     6    1
