@<TRIPOS>MOLECULE
mol_data/opt/b3lyp/geoms/mol2/12al12al-12al-12al-.out
 46 49 0 0 0
SMALL
GASTEIGER

@<TRIPOS>ATOM
      1 C           0.2076    1.7810   -0.0001 C.ar    1  LIG1        0.0964
      2 C           1.5708    1.7629    0.0000 C.ar    1  LIG1        0.0187
      3 C           1.9781    3.1369    0.0000 C.ar    1  LIG1        0.1687
      4 C           0.8239    3.8965   -0.0001 C.ar    1  LIG1        0.2111
      5 O          -0.2629    3.0525   -0.0002 O.2     1  LIG1       -0.4560
      6 H          -0.5377    1.0013   -0.0002 H       1  LIG1        0.1031
      7 H           2.2004    0.8866    0.0001 H       1  LIG1        0.0686
      8 O           3.2217    3.6642    0.0001 O.3     1  LIG1       -0.4912
      9 C           4.3012    2.7422    0.0002 C.3     1  LIG1        0.0790
     10 H           5.2097    3.3451    0.0003 H       1  LIG1        0.0660
     11 H           4.2876    2.1063    0.8949 H       1  LIG1        0.0660
     12 H           4.2877    2.1064   -0.8946 H       1  LIG1        0.0660
     13 C           0.5497    5.3017   -0.0001 C.ar    1  LIG1        0.1780
     14 C          -0.6267    6.0041   -0.0001 C.ar    1  LIG1        0.0300
     15 C          -0.2726    7.3814   -0.0001 C.ar    1  LIG1        0.1694
     16 C           1.1202    7.4538   -0.0001 C.ar    1  LIG1        0.2121
     17 O           1.6036    6.1538   -0.0001 O.2     1  LIG1       -0.4447
     18 H          -1.6308    5.6103   -0.0001 H       1  LIG1        0.0694
     19 O          -1.2774    8.2917   -0.0002 O.3     1  LIG1       -0.4912
     20 C          -0.9924    9.6812   -0.0004 C.3     1  LIG1        0.0790
     21 H          -1.9610   10.1840   -0.0005 H       1  LIG1        0.0660
     22 H          -0.4380    9.9754    0.8972 H       1  LIG1        0.0660
     23 H          -0.4378    9.9751   -0.8979 H       1  LIG1        0.0660
     24 C           2.1742    8.4442   -0.0001 C.ar    1  LIG1        0.1780
     25 C           2.2626    9.8157    0.0000 C.ar    1  LIG1        0.0300
     26 C           3.6456   10.1464   -0.0000 C.ar    1  LIG1        0.1694
     27 C           4.3579    8.9530   -0.0001 C.ar    1  LIG1        0.2121
     28 O           3.4327    7.9243   -0.0002 O.2     1  LIG1       -0.4447
     29 H           1.4771   10.5494    0.0001 H       1  LIG1        0.0694
     30 O           3.9733   11.4639    0.0001 O.3     1  LIG1       -0.4912
     31 C           5.3338   11.8649   -0.0001 C.3     1  LIG1        0.0790
     32 H           5.3233   12.9563   -0.0002 H       1  LIG1        0.0660
     33 H           5.8541   11.5133    0.8971 H       1  LIG1        0.0660
     34 H           5.8539   11.5132   -0.8975 H       1  LIG1        0.0660
     35 C           5.7287    8.4809   -0.0001 C.ar    1  LIG1        0.1770
     36 C           6.9835    9.0467   -0.0001 C.ar    1  LIG1        0.0292
     37 C           7.9134    7.9633   -0.0002 C.ar    1  LIG1        0.1583
     38 C           7.1854    6.8067   -0.0003 C.ar    1  LIG1        0.1342
     39 O           5.8497    7.1179   -0.0003 O.2     1  LIG1       -0.4560
     40 H           7.4292    5.7585   -0.0005 H       1  LIG1        0.1068
     41 H           7.2559   10.0865    0.0001 H       1  LIG1        0.0693
     42 O           9.2568    8.1579   -0.0001 O.3     1  LIG1       -0.4919
     43 C          10.0341    6.9698   -0.0003 C.3     1  LIG1        0.0789
     44 H          11.0801    7.2793   -0.0002 H       1  LIG1        0.0660
     45 H           9.8319    6.3641    0.8934 H       1  LIG1        0.0660
     46 H           9.8319    6.3643   -0.8941 H       1  LIG1        0.0660
@<TRIPOS>BOND
     1    23    20    1
     2    34    31    1
     3    12     9    1
     4    46    43    1
     5    21    20    1
     6    40    38    1
     7    20    19    1
     8    20    22    1
     9    38    39   ar
    10    38    37   ar
    11    39    35   ar
    12    43    44    1
    13    43    42    1
    14    43    45    1
    15     6     1    1
    16    32    31    1
    17    19    15    1
    18    37    42    1
    19    37    36   ar
    20     5     1   ar
    21     5     4   ar
    22    28    27   ar
    23    28    24   ar
    24     1     2   ar
    25    35    27    1
    26    35    36   ar
    27    15    16   ar
    28    15    14   ar
    29    18    14    1
    30    31    30    1
    31    31    33    1
    32    16    17   ar
    33    16    24    1
    34    14    13   ar
    35    17    13   ar
    36    27    26   ar
    37    13     4    1
    38     4     3   ar
    39    24    25   ar
    40    36    41    1
    41    26    25   ar
    42    26    30    1
    43     2     3   ar
    44     2     7    1
    45     3     8    1
    46    25    29    1
    47     8     9    1
    48     9    10    1
    49     9    11    1
