@<TRIPOS>MOLECULE
mol_data/opt/b3lyp/geoms/mol2/12al13ha-12li4ff13hl6di4hh13ah-.out
 100 107 0 0 0
SMALL
GASTEIGER

@<TRIPOS>ATOM
      1 C           1.0470    2.7318   -2.6082 C.ar    1  LIG1        0.0963
      2 C           2.3251    2.9696   -3.0125 C.ar    1  LIG1        0.0187
      3 C           2.6564    4.2715   -2.5182 C.ar    1  LIG1        0.1671
      4 C           1.5609    4.7452   -1.8240 C.ar    1  LIG1        0.1940
      5 O           0.5689    3.7880   -1.8913 O.2     1  LIG1       -0.4576
      6 H           0.3704    1.9032   -2.7413 H       1  LIG1        0.1031
      7 H           2.9456    2.3064   -3.5957 H       1  LIG1        0.0686
      8 O           3.8076    4.9897   -2.7052 O.3     1  LIG1       -0.4913
      9 C           4.9045    4.2797   -3.2647 C.3     1  LIG1        0.0790
     10 H           5.7423    4.9779   -3.2896 H       1  LIG1        0.0660
     11 H           5.1729    3.4099   -2.6522 H       1  LIG1        0.0660
     12 H           4.6838    3.9483   -4.2871 H       1  LIG1        0.0660
     13 C           1.2328    5.9455   -1.1085 C.ar    1  LIG1        0.1072
     14 C           2.0054    7.0155   -0.6286 C.ar    1  LIG1        0.0540
     15 C           1.1192    7.9250   -0.0006 C.ar    1  LIG1       -0.0118
     16 C          -0.1701    7.4010   -0.0909 C.ar    1  LIG1        0.0881
     17 N          -0.0831    6.2055   -0.7538 N.ar    1  LIG1       -0.3477
     18 H          -0.8641    5.6163   -0.9912 H       1  LIG1        0.1661
     19 N           3.3973    7.1330   -0.6675 N.pl3   1  LIG1       -0.3562
     20 H           3.8280    6.5749   -1.3967 H       1  LIG1        0.1424
     21 H           3.7079    8.0953   -0.7104 H       1  LIG1        0.1424
     22 H           1.3804    8.8683    0.4555 H       1  LIG1        0.0658
     23 C          -1.4234    7.9105    0.3808 C.ar    1  LIG1        0.1934
     24 C          -1.7879    9.0043    1.1352 C.ar    1  LIG1        0.1706
     25 C          -3.2145    9.0237    1.2352 C.ar    1  LIG1        0.0378
     26 C          -3.6524    7.9266    0.5235 C.ar    1  LIG1        0.1459
     27 O          -2.5605    7.2421    0.0143 O.2     1  LIG1       -0.4492
     28 O          -0.9468    9.9260    1.7012 O.3     1  LIG1       -0.4910
     29 C          -0.3305    9.4856    2.9181 C.3     1  LIG1        0.0790
     30 H           0.2808   10.3182    3.2729 H       1  LIG1        0.0660
     31 H          -1.0837    9.2385    3.6759 H       1  LIG1        0.0660
     32 H           0.3076    8.6115    2.7462 H       1  LIG1        0.0660
     33 C          -3.9867   10.0330    2.0285 C.3     1  LIG1       -0.0326
     34 H          -4.8022    9.5675    2.5882 H       1  LIG1        0.0280
     35 H          -4.4331   10.7936    1.3823 H       1  LIG1        0.0280
     36 H          -3.3182   10.5365    2.7317 H       1  LIG1        0.0280
     37 C          -6.1357    8.0034    0.0622 C.ar    1  LIG1        0.1284
     38 C          -7.3308    7.3316   -0.1752 C.ar    1  LIG1       -0.0068
     39 C          -4.9376    7.2892    0.2751 C.ar    1  LIG1        0.0625
     40 C          -7.4117    5.9263   -0.2419 C.ar    1  LIG1        0.0451
     41 H          -8.2442    7.9106   -0.2763 H       1  LIG1        0.0662
     42 C          -5.0139    5.8855    0.1984 C.ar    1  LIG1       -0.0053
     43 C          -6.2034    5.2160   -0.0464 C.ar    1  LIG1        0.1269
     44 H          -4.1040    5.3103    0.3414 H       1  LIG1        0.0662
     45 O          -6.0839    9.3734    0.0751 O.3     1  LIG1       -0.5060
     46 H          -6.9731    9.7177   -0.0785 H       1  LIG1        0.2922
     47 O          -6.2450    3.8393   -0.1198 O.3     1  LIG1       -0.5061
     48 H          -5.4930    3.4567    0.3497 H       1  LIG1        0.2922
     49 C          -8.6924    5.2688   -0.4629 C.ar    1  LIG1        0.0752
     50 C          -9.9170    5.7848   -0.9193 C.ar    1  LIG1        0.0932
     51 C         -10.8517    4.7325   -0.8721 C.ar    1  LIG1        0.1665
     52 C         -10.2107    3.5684   -0.4073 C.ar    1  LIG1        0.0938
     53 N          -8.9084    3.9385   -0.1754 N.ar    1  LIG1       -0.3496
     54 H          -8.1456    3.3319    0.0948 H       1  LIG1        0.1661
     55 N         -10.2229    7.0965   -1.3355 N.pl3   1  LIG1       -0.3535
     56 H          -9.5270    7.4591   -1.9809 H       1  LIG1        0.1425
     57 H         -11.1237    7.0954   -1.8063 H       1  LIG1        0.1425
     58 O         -12.1683    4.8833   -1.2496 O.3     1  LIG1       -0.4911
     59 C         -13.0295    5.2996   -0.1789 C.3     1  LIG1        0.0790
     60 H         -14.0194    5.4490   -0.6156 H       1  LIG1        0.0660
     61 H         -13.0856    4.5321    0.6019 H       1  LIG1        0.0660
     62 H         -12.6779    6.2372    0.2667 H       1  LIG1        0.0660
     63 C         -10.0701    1.1611    0.4402 C.ar    1  LIG1        0.1499
     64 C         -10.7299    2.2235   -0.2326 C.ar    1  LIG1        0.0381
     65 C         -12.0007    1.8866   -0.7491 C.ar    1  LIG1       -0.0448
     66 C         -12.5464    0.6167   -0.6190 C.ar    1  LIG1       -0.0237
     67 C         -11.7634   -0.3745    0.0380 C.ar    1  LIG1        0.0772
     68 N         -10.5694   -0.0803    0.5606 N.ar    1  LIG1       -0.2354
     69 H         -12.5633    2.6567   -1.2641 H       1  LIG1        0.0628
     70 N          -7.7280    1.4496    1.5454 N.1     1  LIG1       -0.1893
     71 C          -8.7785    1.3199    1.0595 C.1     1  LIG1        0.1198
     72 C         -13.9355    0.3303   -1.1268 C.3     1  LIG1       -0.0377
     73 H         -14.5480   -0.1232   -0.3404 H       1  LIG1        0.0278
     74 H         -13.9129   -0.3825   -1.9575 H       1  LIG1        0.0278
     75 H         -14.4237    1.2495   -1.4605 H       1  LIG1        0.0278
     76 C         -12.5281   -2.6557   -0.8103 C.ar    1  LIG1        0.0346
     77 C         -12.9929   -3.9399   -0.5095 C.ar    1  LIG1       -0.0295
     78 C         -12.2414   -1.7717    0.2514 C.ar    1  LIG1        0.0230
     79 C         -13.1601   -4.4041    0.8028 C.ar    1  LIG1        0.0207
     80 H         -13.2620   -4.6002   -1.3290 H       1  LIG1        0.0643
     81 C         -12.3509   -2.2519    1.5629 C.ar    1  LIG1       -0.0295
     82 C         -12.7997   -3.5348    1.8644 C.ar    1  LIG1        0.0345
     83 H         -12.0626   -1.5871    2.3732 H       1  LIG1        0.0643
     84 N         -12.3992   -2.2545   -2.1538 N.pl3   1  LIG1       -0.3574
     85 H         -11.6506   -1.5900   -2.3085 H       1  LIG1        0.1423
     86 H         -12.3153   -3.0332   -2.7949 H       1  LIG1        0.1423
     87 N         -12.9325   -3.9529    3.2222 N.pl3   1  LIG1       -0.3574
     88 H         -12.4214   -4.8154    3.3973 H       1  LIG1        0.1423
     89 H         -12.5822   -3.2423    3.8562 H       1  LIG1        0.1423
     90 C         -13.6911   -5.7507    1.0217 C.ar    1  LIG1        0.0501
     91 C         -13.7296   -6.8545    0.1717 C.ar    1  LIG1       -0.0157
     92 C         -14.4264   -7.8982    0.8363 C.ar    1  LIG1        0.0427
     93 C         -14.8008   -7.4106    2.0792 C.ar    1  LIG1        0.0230
     94 N         -14.3382   -6.1181    2.1796 N.ar    1  LIG1       -0.3590
     95 H         -14.4948   -5.4734    2.9418 H       1  LIG1        0.1654
     96 H         -15.3424   -7.8813    2.8859 H       1  LIG1        0.0826
     97 H         -13.2885   -6.9122   -0.8137 H       1  LIG1        0.0657
     98 N         -14.7300   -9.1643    0.2958 N.pl3   1  LIG1       -0.3568
     99 H         -13.9971   -9.5034   -0.3167 H       1  LIG1        0.1424
    100 H         -14.9032   -9.8597    1.0123 H       1  LIG1        0.1424
@<TRIPOS>BOND
     1    12     9    1
     2     7     2    1
     3    10     9    1
     4     9     8    1
     5     9    11    1
     6     2     1   ar
     7     2     3   ar
     8    86    84    1
     9     6     1    1
    10     8     3    1
    11     1     5   ar
    12     3     4   ar
    13    85    84    1
    14    84    76    1
    15    56    55    1
    16    74    72    1
    17     5     4   ar
    18     4    13    1
    19    57    55    1
    20    75    72    1
    21    20    19    1
    22    55    50    1
    23    80    77    1
    24    69    65    1
    25    58    51    1
    26    58    59    1
    27    72    66    1
    28    72    73    1
    29    13    17   ar
    30    13    14   ar
    31    18    17    1
    32    50    51   ar
    33    50    49   ar
    34    51    52   ar
    35    97    91    1
    36    76    77   ar
    37    76    78   ar
    38    17    16   ar
    39    65    66   ar
    40    65    64   ar
    41    21    19    1
    42    19    14    1
    43    14    15   ar
    44    66    67   ar
    45    60    59    1
    46    77    79   ar
    47    49    40    1
    48    49    53   ar
    49    52    64    1
    50    52    53   ar
    51    99    98    1
    52    41    38    1
    53    40    38   ar
    54    40    43   ar
    55    64    63   ar
    56    59    62    1
    57    59    61    1
    58    53    54    1
    59    38    37   ar
    60    47    43    1
    61    47    48    1
    62    16    15   ar
    63    16    23    1
    64    46    45    1
    65    43    42   ar
    66    15    22    1
    67    27    23   ar
    68    27    26   ar
    69    67    78    1
    70    67    68   ar
    71    37    45    1
    72    37    39   ar
    73    91    92   ar
    74    91    90   ar
    75    42    39   ar
    76    42    44    1
    77    78    81   ar
    78    39    26    1
    79    98    92    1
    80    98   100    1
    81    23    24   ar
    82    63    68   ar
    83    63    71    1
    84    26    25   ar
    85    79    90    1
    86    79    82   ar
    87    92    93   ar
    88    90    94   ar
    89    71    70    3
    90    24    25   ar
    91    24    28    1
    92    25    33    1
    93    35    33    1
    94    81    82   ar
    95    81    83    1
    96    28    29    1
    97    82    87    1
    98    33    34    1
    99    33    36    1
   100    93    94   ar
   101    93    96    1
   102    94    95    1
   103    32    29    1
   104    29    30    1
   105    29    31    1
   106    87    88    1
   107    87    89    1
