@<TRIPOS>MOLECULE
mol_data/opt/b3lyp/geoms/mol2/12al12al12al.out
 35 37 0 0 0
SMALL
GASTEIGER

@<TRIPOS>ATOM
      1 C           0.3244    1.4430    0.0000 C.ar    1  LIG1        0.0964
      2 C           1.6847    1.5551   -0.0001 C.ar    1  LIG1        0.0187
      3 C           1.9526    2.9599   -0.0000 C.ar    1  LIG1        0.1687
      4 C           0.7312    3.6052   -0.0001 C.ar    1  LIG1        0.2111
      5 O          -0.2663    2.6639   -0.0001 O.2     1  LIG1       -0.4560
      6 H          -0.3427    0.5959    0.0001 H       1  LIG1        0.1031
      7 H           2.3957    0.7429   -0.0001 H       1  LIG1        0.0686
      8 O           3.1393    3.6225    0.0000 O.3     1  LIG1       -0.4912
      9 C           4.3079    2.8131   -0.0001 C.3     1  LIG1        0.0790
     10 H           5.1552    3.4998   -0.0001 H       1  LIG1        0.0660
     11 H           4.3558    2.1794    0.8945 H       1  LIG1        0.0660
     12 H           4.3557    2.1794   -0.8946 H       1  LIG1        0.0660
     13 C           0.3864    4.9940   -0.0001 C.ar    1  LIG1        0.1780
     14 C           1.1704    6.1278   -0.0001 C.ar    1  LIG1        0.0300
     15 C           0.2611    7.2218   -0.0001 C.ar    1  LIG1        0.1694
     16 C          -1.0182    6.6978   -0.0002 C.ar    1  LIG1        0.2121
     17 O          -0.9344    5.3269   -0.0002 O.2     1  LIG1       -0.4447
     18 H           2.2484    6.1430   -0.0000 H       1  LIG1        0.0694
     19 O           0.5092    8.5580   -0.0001 O.3     1  LIG1       -0.4912
     20 C           1.8791    8.9371   -0.0001 C.3     1  LIG1        0.0790
     21 H           1.8946   10.0277   -0.0001 H       1  LIG1        0.0660
     22 H           2.3965    8.5669    0.8939 H       1  LIG1        0.0660
     23 H           2.3964    8.5669   -0.8941 H       1  LIG1        0.0660
     24 C          -2.3065    7.3212   -0.0002 C.ar    1  LIG1        0.1770
     25 C          -2.6779    8.6475   -0.0002 C.ar    1  LIG1        0.0292
     26 C          -4.1086    8.6450   -0.0002 C.ar    1  LIG1        0.1583
     27 C          -4.5091    7.3365   -0.0002 C.ar    1  LIG1        0.1342
     28 O          -3.4075    6.5199   -0.0002 O.2     1  LIG1       -0.4560
     29 H          -5.4727    6.8573   -0.0002 H       1  LIG1        0.1068
     30 H          -2.0021    9.4874   -0.0002 H       1  LIG1        0.0693
     31 O          -4.9715    9.6970   -0.0002 O.3     1  LIG1       -0.4919
     32 C          -4.3789   10.9864   -0.0003 C.3     1  LIG1        0.0789
     33 H          -5.2030   11.7015   -0.0004 H       1  LIG1        0.0660
     34 H          -3.7616   11.1477    0.8930 H       1  LIG1        0.0660
     35 H          -3.7616   11.1476   -0.8938 H       1  LIG1        0.0660
@<TRIPOS>BOND
     1    12     9    1
     2    23    20    1
     3    35    32    1
     4    33    32    1
     5    32    31    1
     6    32    34    1
     7    31    26    1
     8    28    27   ar
     9    28    24   ar
    10    26    27   ar
    11    26    25   ar
    12    29    27    1
    13    25    30    1
    14    25    24   ar
    15    24    16    1
    16    16    17   ar
    17    16    15   ar
    18    17    13   ar
    19    21    20    1
    20    20    19    1
    21    20    22    1
    22     5     4   ar
    23     5     1   ar
    24    15    19    1
    25    15    14   ar
    26    13     4    1
    27    13    14   ar
    28     4     3   ar
    29    14    18    1
    30     7     2    1
    31     2     3   ar
    32     2     1   ar
    33     9    10    1
    34     9     8    1
    35     9    11    1
    36     3     8    1
    37     1     6    1
