@<TRIPOS>MOLECULE
mol_data/opt/b3lyp/geoms/mol2/12al12al-12al.out
 35 37 0 0 0
SMALL
GASTEIGER

@<TRIPOS>ATOM
      1 C           0.1551    1.8109   -0.0001 C.ar    1  LIG1        0.0964
      2 C           1.5181    1.7913    0.0000 C.ar    1  LIG1        0.0187
      3 C           1.9270    3.1648   -0.0001 C.ar    1  LIG1        0.1687
      4 C           0.7742    3.9261   -0.0001 C.ar    1  LIG1        0.2111
      5 O          -0.3129    3.0838   -0.0000 O.2     1  LIG1       -0.4560
      6 H          -0.5917    1.0324   -0.0002 H       1  LIG1        0.1031
      7 H           2.1460    0.9142    0.0001 H       1  LIG1        0.0686
      8 O           3.1778    3.6868   -0.0001 O.3     1  LIG1       -0.4912
      9 C           4.2457    2.7493   -0.0001 C.3     1  LIG1        0.0790
     10 H           5.1652    3.3357   -0.0001 H       1  LIG1        0.0660
     11 H           4.2228    2.1137    0.8944 H       1  LIG1        0.0660
     12 H           4.2228    2.1137   -0.8946 H       1  LIG1        0.0660
     13 C           0.5032    5.3324   -0.0001 C.ar    1  LIG1        0.1780
     14 C          -0.6634    6.0483    0.0000 C.ar    1  LIG1        0.0300
     15 C          -0.2958    7.4269   -0.0000 C.ar    1  LIG1        0.1694
     16 C           1.0945    7.4801   -0.0001 C.ar    1  LIG1        0.2121
     17 O           1.5685    6.1760   -0.0001 O.2     1  LIG1       -0.4447
     18 H          -1.6711    5.6641    0.0001 H       1  LIG1        0.0694
     19 O          -1.2812    8.3535    0.0000 O.3     1  LIG1       -0.4912
     20 C          -0.9684    9.7430   -0.0002 C.3     1  LIG1        0.0790
     21 H          -1.9309   10.2573   -0.0002 H       1  LIG1        0.0660
     22 H          -0.3984   10.0253    0.8894 H       1  LIG1        0.0660
     23 H          -0.3985   10.0251   -0.8900 H       1  LIG1        0.0660
     24 C           2.1763    8.4313   -0.0002 C.ar    1  LIG1        0.1770
     25 C           3.5330    8.2006   -0.0001 C.ar    1  LIG1        0.0292
     26 C           4.1494    9.4925   -0.0002 C.ar    1  LIG1        0.1583
     27 C           3.1441   10.4181   -0.0003 C.ar    1  LIG1        0.1342
     28 O           1.9300    9.7701   -0.0003 O.2     1  LIG1       -0.4560
     29 H           3.1221   11.4943   -0.0004 H       1  LIG1        0.1068
     30 H           4.0004    7.2295    0.0000 H       1  LIG1        0.0693
     31 O           5.4702    9.8155   -0.0002 O.3     1  LIG1       -0.4919
     32 C           6.3784    8.7240   -0.0001 C.3     1  LIG1        0.0789
     33 H           7.3788    9.1595   -0.0001 H       1  LIG1        0.0660
     34 H           6.2571    8.0983    0.8935 H       1  LIG1        0.0660
     35 H           6.2571    8.0982   -0.8936 H       1  LIG1        0.0660
@<TRIPOS>BOND
     1    12     9    1
     2    35    32    1
     3    23    20    1
     4    29    27    1
     5    27    28   ar
     6    27    26   ar
     7    28    24   ar
     8    21    20    1
     9     6     1    1
    10    20    19    1
    11    20    22    1
    12    26    31    1
    13    26    25   ar
    14    31    32    1
    15    24    16    1
    16    24    25   ar
    17    17    16   ar
    18    17    13   ar
    19     1     5   ar
    20     1     2   ar
    21    16    15   ar
    22    10     9    1
    23    33    32    1
    24     9     8    1
    25     9    11    1
    26    32    34    1
    27    25    30    1
    28     8     3    1
    29     3     4   ar
    30     3     2   ar
    31    13     4    1
    32    13    14   ar
    33     4     5   ar
    34    15    19    1
    35    15    14   ar
    36    14    18    1
    37     2     7    1
