@<TRIPOS>MOLECULE
mol_data/opt/b3lyp/geoms/mol2/12al12al-12al12al.out
 46 49 0 0 0
SMALL
GASTEIGER

@<TRIPOS>ATOM
      1 C           0.3597    1.6078   -0.0001 C.ar    1  LIG1        0.0964
      2 C           1.7205    1.6892   -0.0001 C.ar    1  LIG1        0.0187
      3 C           2.0266    3.0890   -0.0001 C.ar    1  LIG1        0.1687
      4 C           0.8202    3.7629   -0.0001 C.ar    1  LIG1        0.2111
      5 O          -0.2014    2.8423   -0.0001 O.2     1  LIG1       -0.4560
      6 H          -0.3271    0.7761   -0.0000 H       1  LIG1        0.1031
      7 H           2.4118    0.8603   -0.0000 H       1  LIG1        0.0686
      8 O           3.2351    3.7021   -0.0001 O.3     1  LIG1       -0.4912
      9 C           4.3695    2.8460   -0.0001 C.3     1  LIG1        0.0790
     10 H           5.2432    3.4988   -0.0001 H       1  LIG1        0.0660
     11 H           4.3936    2.2107    0.8944 H       1  LIG1        0.0660
     12 H           4.3936    2.2107   -0.8947 H       1  LIG1        0.0660
     13 C           0.4459    5.1445   -0.0001 C.ar    1  LIG1        0.1780
     14 C          -0.7720    5.7709   -0.0000 C.ar    1  LIG1        0.0300
     15 C          -0.5116    7.1728   -0.0001 C.ar    1  LIG1        0.1694
     16 C           0.8732    7.3295   -0.0001 C.ar    1  LIG1        0.2121
     17 O           1.4456    6.0649   -0.0002 O.2     1  LIG1       -0.4447
     18 H          -1.7479    5.3111    0.0000 H       1  LIG1        0.0694
     19 O          -1.5617    8.0213   -0.0000 O.3     1  LIG1       -0.4912
     20 C          -1.3640    9.4350   -0.0003 C.3     1  LIG1        0.0790
     21 H          -2.3667    9.8651   -0.0004 H       1  LIG1        0.0660
     22 H          -0.8203    9.7646    0.8886 H       1  LIG1        0.0660
     23 H          -0.8203    9.7642   -0.8893 H       1  LIG1        0.0660
     24 C           1.8700    8.3613   -0.0001 C.ar    1  LIG1        0.1780
     25 C           3.2455    8.2500   -0.0001 C.ar    1  LIG1        0.0300
     26 C           3.7434    9.5825   -0.0001 C.ar    1  LIG1        0.1694
     27 C           2.6558   10.4334   -0.0002 C.ar    1  LIG1        0.2121
     28 O           1.5070    9.6731   -0.0002 O.2     1  LIG1       -0.4447
     29 H           3.7958    7.3233   -0.0000 H       1  LIG1        0.0694
     30 O           5.0255   10.0307   -0.0000 O.3     1  LIG1       -0.4912
     31 C           6.0362    9.0307   -0.0000 C.3     1  LIG1        0.0790
     32 H           6.9899    9.5602   -0.0000 H       1  LIG1        0.0660
     33 H           5.9719    8.3981    0.8940 H       1  LIG1        0.0660
     34 H           5.9720    8.3981   -0.8941 H       1  LIG1        0.0660
     35 C           2.5388   11.8583   -0.0002 C.ar    1  LIG1        0.1770
     36 C           3.4868   12.8570   -0.0002 C.ar    1  LIG1        0.0292
     37 C           2.7517   14.0849   -0.0002 C.ar    1  LIG1        0.1583
     38 C           1.4227   13.7606   -0.0003 C.ar    1  LIG1        0.1342
     39 O           1.2848   12.3939   -0.0002 O.2     1  LIG1       -0.4560
     40 H           0.5175   14.3432   -0.0003 H       1  LIG1        0.1068
     41 H           4.5546   12.7082   -0.0002 H       1  LIG1        0.0693
     42 O           3.2146   15.3639   -0.0002 O.3     1  LIG1       -0.4919
     43 C           4.6262   15.5142   -0.0003 C.3     1  LIG1        0.0789
     44 H           4.8194   16.5881   -0.0003 H       1  LIG1        0.0660
     45 H           5.0798   15.0659    0.8932 H       1  LIG1        0.0660
     46 H           5.0798   15.0658   -0.8937 H       1  LIG1        0.0660
@<TRIPOS>BOND
     1    12     9    1
     2    34    31    1
     3    46    43    1
     4    23    20    1
     5    21    20    1
     6    44    43    1
     7    20    19    1
     8    20    22    1
     9    40    38    1
    10    43    42    1
    11    43    45    1
    12    38    39   ar
    13    38    37   ar
    14    42    37    1
    15    39    35   ar
    16    37    36   ar
    17    35    36   ar
    18    35    27    1
    19    36    41    1
    20    28    27   ar
    21    28    24   ar
    22    27    26   ar
    23    17    16   ar
    24    17    13   ar
    25    16    24    1
    26    16    15   ar
    27    24    25   ar
    28    10     9    1
    29     9     8    1
    30     9    11    1
    31    26    25   ar
    32    26    30    1
    33    13     4    1
    34    13    14   ar
    35     4     5   ar
    36     4     3   ar
    37     5     1   ar
    38    25    29    1
    39    15    19    1
    40    15    14   ar
    41     3     8    1
    42     3     2   ar
    43     2     1   ar
    44     2     7    1
    45     1     6    1
    46    30    31    1
    47    14    18    1
    48    31    32    1
    49    31    33    1
