@<TRIPOS>MOLECULE
mol_data/opt/b3lyp/geoms/mol2/12da12lf-6id4if12fa-6fi-4aa6ff.out
 91 98 0 0 0
SMALL
GASTEIGER

@<TRIPOS>ATOM
      1 C           1.6829    1.5608    0.5462 C.ar    1  LIG1        0.1100
      2 C           2.9987    1.8288    0.2668 C.ar    1  LIG1        0.0901
      3 C           3.0713    3.2281   -0.0506 C.ar    1  LIG1        0.0048
      4 C           1.7920    3.7033    0.0645 C.ar    1  LIG1        0.1748
      5 O           0.9424    2.6865    0.4289 O.2     1  LIG1       -0.4584
      6 H           1.1595    0.6609    0.8261 H       1  LIG1        0.1043
      7 N           4.9481    0.1313    0.3068 N.1     1  LIG1       -0.1908
      8 C           4.0679    0.8917    0.2891 C.1     1  LIG1        0.1023
      9 H           3.9440    3.7952   -0.3310 H       1  LIG1        0.0669
     10 C           1.2278    5.0099   -0.1086 C.ar    1  LIG1        0.2157
     11 C           1.8233    6.2241   -0.3797 C.ar    1  LIG1        0.2114
     12 C           0.7584    7.1745   -0.4621 C.ar    1  LIG1        0.2062
     13 C          -0.4187    6.4874   -0.2395 C.ar    1  LIG1        0.1826
     14 O          -0.1250    5.1618   -0.0223 O.2     1  LIG1       -0.4440
     15 O           3.1544    6.3776   -0.5769 O.3     1  LIG1       -0.4883
     16 C           3.7612    7.5601   -0.0313 C.3     1  LIG1        0.0791
     17 H           4.8285    7.4614   -0.2312 H       1  LIG1        0.0660
     18 H           3.3731    8.4616   -0.5099 H       1  LIG1        0.0660
     19 H           3.5945    7.6175    1.0504 H       1  LIG1        0.0660
     20 O           0.9437    8.5014   -0.7096 O.3     1  LIG1       -0.5008
     21 H           0.1628    8.9932   -0.4180 H       1  LIG1        0.2924
     22 C          -2.8288    6.3492    0.5689 C.ar    1  LIG1        0.0497
     23 C          -1.8030    6.9314   -0.2322 C.ar    1  LIG1        0.0433
     24 C          -2.1790    7.9924   -1.0643 C.ar    1  LIG1       -0.0298
     25 C          -3.4883    8.4888   -1.0467 C.ar    1  LIG1        0.0784
     26 C          -4.4250    7.8997   -0.1650 C.ar    1  LIG1        0.0890
     27 N          -4.0723    6.8349    0.5768 N.ar    1  LIG1       -0.2499
     28 H          -1.4705    8.4077   -1.7741 H       1  LIG1        0.0639
     29 C          -2.5857    5.1639    1.4659 C.3     1  LIG1       -0.0216
     30 H          -1.7290    5.3343    2.1257 H       1  LIG1        0.0293
     31 H          -2.3560    4.2648    0.8865 H       1  LIG1        0.0293
     32 H          -3.4792    4.9895    2.0656 H       1  LIG1        0.0293
     33 N          -4.0879   10.3296   -2.7739 N.1     1  LIG1       -0.1908
     34 C          -3.8427    9.5076   -1.9876 C.1     1  LIG1        0.1013
     35 C          -6.2417    9.6682    0.2158 C.ar    1  LIG1       -0.0403
     36 C          -7.6099    9.9305    0.3061 C.ar    1  LIG1       -0.0439
     37 C          -5.8388    8.3405   -0.0445 C.ar    1  LIG1        0.0080
     38 C          -8.6097    8.9518    0.1509 C.ar    1  LIG1        0.0626
     39 H          -7.9236   10.9454    0.5190 H       1  LIG1        0.0629
     40 C          -6.8181    7.3414   -0.1545 C.ar    1  LIG1       -0.0100
     41 C          -8.1748    7.6214   -0.0740 C.ar    1  LIG1        0.1283
     42 H          -6.4963    6.3154   -0.3124 H       1  LIG1        0.0661
     43 C          -5.2783   10.8077    0.4681 C.3     1  LIG1       -0.0391
     44 H          -5.7005   11.4997    1.2022 H       1  LIG1        0.0278
     45 H          -5.0750   11.3774   -0.4444 H       1  LIG1        0.0278
     46 H          -4.3191   10.4574    0.8584 H       1  LIG1        0.0278
     47 O          -9.1050    6.6221   -0.2115 O.3     1  LIG1       -0.5060
     48 H          -8.6463    5.7844   -0.3577 H       1  LIG1        0.2922
     49 C         -10.0044    9.3327    0.2389 C.ar    1  LIG1        0.1803
     50 C         -10.6649   10.5397    0.3940 C.ar    1  LIG1        0.1633
     51 C         -12.0629   10.2831    0.3987 C.ar    1  LIG1        0.0266
     52 C         -12.2098    8.9230    0.2477 C.ar    1  LIG1        0.1444
     53 O         -10.9746    8.3566    0.1547 O.2     1  LIG1       -0.4508
     54 O         -10.0462   11.7457    0.5175 O.3     1  LIG1       -0.5032
     55 H         -10.7152   12.4394    0.5705 H       1  LIG1        0.2923
     56 H         -12.8515   11.0156    0.4949 H       1  LIG1        0.0692
     57 C         -13.2455    6.6225   -0.0321 C.ar    1  LIG1        0.2238
     58 C         -13.3507    8.0307    0.1717 C.ar    1  LIG1        0.0789
     59 C         -14.6502    8.5308    0.3177 C.ar    1  LIG1       -0.0410
     60 C         -15.7842    7.7255    0.2371 C.ar    1  LIG1       -0.0236
     61 C         -15.5554    6.3505   -0.0090 C.ar    1  LIG1        0.0777
     62 N         -14.3152    5.8450   -0.1131 N.ar    1  LIG1       -0.2122
     63 H         -14.7808    9.5911    0.5183 H       1  LIG1        0.0630
     64 O         -12.0803    5.9617   -0.1565 O.3     1  LIG1       -0.4919
     65 H         -11.3160    6.5625   -0.0972 H       1  LIG1        0.2938
     66 C         -17.1436    8.3464    0.4674 C.3     1  LIG1       -0.0377
     67 H         -17.8229    7.6622    0.9814 H       1  LIG1        0.0278
     68 H         -17.6304    8.6462   -0.4686 H       1  LIG1        0.0278
     69 H         -17.0472    9.2482    1.0794 H       1  LIG1        0.0278
     70 C         -17.8581    5.5810   -0.7770 C.ar    1  LIG1       -0.0520
     71 C         -18.8229    4.5847   -0.8996 C.ar    1  LIG1       -0.0532
     72 C         -16.6361    5.3325   -0.1313 C.ar    1  LIG1        0.0008
     73 C         -18.6111    3.3006   -0.3734 C.ar    1  LIG1       -0.0127
     74 H         -19.7453    4.7948   -1.4327 H       1  LIG1        0.0624
     75 C         -16.4136    4.0415    0.3761 C.ar    1  LIG1       -0.0520
     76 C         -17.3824    3.0497    0.2687 C.ar    1  LIG1       -0.0532
     77 H         -15.4663    3.8316    0.8596 H       1  LIG1        0.0624
     78 H         -18.0469    6.5478   -1.2291 H       1  LIG1        0.0624
     79 H         -17.1987    2.0767    0.7160 H       1  LIG1        0.0624
     80 C         -19.3687    0.9350   -0.9299 C.ar    1  LIG1        0.2204
     81 C         -19.6578    2.2531   -0.4863 C.ar    1  LIG1        0.0470
     82 C         -20.9888    2.5357   -0.1750 C.ar    1  LIG1       -0.0059
     83 C         -21.9587    1.5377   -0.2802 C.ar    1  LIG1        0.1357
     84 C         -21.5482    0.2729   -0.6992 C.ar    1  LIG1        0.0728
     85 N         -20.2852   -0.0170   -1.0242 N.ar    1  LIG1       -0.2173
     86 H         -21.2747    3.5216    0.1768 H       1  LIG1        0.0662
     87 H         -22.2696   -0.5421   -0.7805 H       1  LIG1        0.0868
     88 O         -18.1187    0.5508   -1.3081 O.3     1  LIG1       -0.4920
     89 H         -17.5448    1.3303   -1.3322 H       1  LIG1        0.2937
     90 O         -23.2523    1.8470    0.0432 O.3     1  LIG1       -0.5052
     91 H         -23.7998    1.0580   -0.0663 H       1  LIG1        0.2922
@<TRIPOS>BOND
     1    33    34    3
     2    34    25    1
     3    28    24    1
     4    74    71    1
     5    89    88    1
     6    88    80    1
     7    78    70    1
     8    24    25   ar
     9    24    23   ar
    10    25    26   ar
    11    85    80   ar
    12    85    84   ar
    13    80    81   ar
    14    71    70   ar
    15    71    73   ar
    16    87    84    1
    17    70    72   ar
    18    20    12    1
    19    20    21    1
    20    84    83   ar
    21    15    11    1
    22    15    16    1
    23    18    16    1
    24    81    73    1
    25    81    82   ar
    26    68    66    1
    27    12    11   ar
    28    12    13   ar
    29    45    43    1
    30    11    10   ar
    31    73    76   ar
    32    48    47    1
    33     9     3    1
    34    42    40    1
    35    83    82   ar
    36    83    90    1
    37    13    23    1
    38    13    14   ar
    39    23    22   ar
    40    17    16    1
    41    47    41    1
    42    82    86    1
    43    26    37    1
    44    26    27   ar
    45    64    65    1
    46    64    57    1
    47    40    41   ar
    48    40    37   ar
    49    72    61    1
    50    72    75   ar
    51    62    57   ar
    52    62    61   ar
    53    10    14   ar
    54    10     4    1
    55    41    38   ar
    56    91    90    1
    57     3     4   ar
    58     3     2   ar
    59    37    35   ar
    60    57    58   ar
    61    16    19    1
    62    61    60   ar
    63     4     5   ar
    64    38    49    1
    65    38    36   ar
    66    53    49   ar
    67    53    52   ar
    68    58    52    1
    69    58    59   ar
    70    35    36   ar
    71    35    43    1
    72    60    59   ar
    73    60    66    1
    74    49    50   ar
    75    52    51   ar
    76     2     8    1
    77     2     1   ar
    78    76    75   ar
    79    76    79    1
    80     8     7    3
    81    36    39    1
    82    59    63    1
    83    75    77    1
    84    50    51   ar
    85    50    54    1
    86    51    56    1
    87     5     1   ar
    88    66    67    1
    89    66    69    1
    90    43    46    1
    91    43    44    1
    92    54    55    1
    93     1     6    1
    94    22    27   ar
    95    22    29    1
    96    31    29    1
    97    29    32    1
    98    29    30    1
