@<TRIPOS>MOLECULE
mol_data/opt/b3lyp/geoms/mol2/12da4he-4ah4af.out
 47 50 0 0 0
SMALL
GASTEIGER

@<TRIPOS>ATOM
      1 C           0.7977    1.6070   -0.7050 C.ar    1  LIG1        0.1099
      2 C           1.6532    1.5868    0.3638 C.ar    1  LIG1        0.0900
      3 C           1.7716    2.9505    0.8089 C.ar    1  LIG1        0.0016
      4 C           0.9805    3.7032   -0.0201 C.ar    1  LIG1        0.1379
      5 O           0.3886    2.8706   -0.9483 O.2     1  LIG1       -0.4616
      6 H           0.4181    0.8363   -1.3568 H       1  LIG1        0.1043
      7 N           2.8164   -0.4910    1.3693 N.1     1  LIG1       -0.1908
      8 C           2.2892    0.4407    0.9134 C.1     1  LIG1        0.1023
      9 H           2.3198    3.2955    1.6712 H       1  LIG1        0.0668
     10 C           1.4672    6.1313    0.4231 C.ar    1  LIG1        0.0360
     11 C           1.0305    7.4623    0.3601 C.ar    1  LIG1       -0.0315
     12 C           0.6213    5.1154   -0.0921 C.ar    1  LIG1        0.0391
     13 C          -0.1897    7.8402   -0.2023 C.ar    1  LIG1       -0.0007
     14 H           1.6658    8.2344    0.7848 H       1  LIG1        0.0643
     15 C          -0.5908    5.4921   -0.6815 C.ar    1  LIG1       -0.0333
     16 C          -1.0188    6.8243   -0.7539 C.ar    1  LIG1        0.0332
     17 H          -1.2278    4.7217   -1.0996 H       1  LIG1        0.0638
     18 N           2.6851    5.8298    1.0231 N.pl3   1  LIG1       -0.3574
     19 H           3.1616    5.0189    0.6488 H       1  LIG1        0.1423
     20 H           3.3063    6.6208    1.1286 H       1  LIG1        0.1423
     21 C          -2.2557    7.0962   -1.4178 C.1     1  LIG1       -0.0690
     22 C          -3.3057    7.2609   -1.9981 C.1     1  LIG1       -0.1139
     23 H          -4.2215    7.4215   -2.5177 H       1  LIG1        0.1232
     24 C           0.3855   10.2486   -0.6004 C.ar    1  LIG1       -0.0533
     25 C           0.0433   11.5956   -0.5732 C.ar    1  LIG1       -0.0517
     26 C          -0.5554    9.2808   -0.2125 C.ar    1  LIG1       -0.0149
     27 C          -1.2199   12.0398   -0.1565 C.ar    1  LIG1        0.0029
     28 H           0.7773   12.3391   -0.8697 H       1  LIG1        0.0624
     29 C          -1.8221    9.7068    0.1955 C.ar    1  LIG1       -0.0327
     30 C          -2.1741   11.0643    0.2291 C.ar    1  LIG1        0.0329
     31 H          -2.5599    8.9716    0.5002 H       1  LIG1        0.0642
     32 H           1.3692    9.9442   -0.9423 H       1  LIG1        0.0624
     33 N          -3.4491   11.4236    0.6777 N.pl3   1  LIG1       -0.3575
     34 H          -3.7839   12.3127    0.3295 H       1  LIG1        0.1423
     35 H          -4.1412   10.6933    0.5741 H       1  LIG1        0.1423
     36 C          -1.1976   14.2919   -1.2646 C.ar    1  LIG1       -0.0537
     37 C          -1.4438   15.6654   -1.2456 C.ar    1  LIG1       -0.0577
     38 C          -1.5199   13.4979   -0.1519 C.ar    1  LIG1       -0.0127
     39 C          -2.0121   16.2773   -0.1319 C.ar    1  LIG1       -0.0201
     40 H          -1.1950   16.2676   -2.1148 H       1  LIG1        0.0619
     41 C          -2.0945   14.1184    0.9716 C.ar    1  LIG1       -0.0124
     42 C          -2.3356   15.4949    0.9815 C.ar    1  LIG1        0.1174
     43 H          -2.3336   13.5229    1.8494 H       1  LIG1        0.0660
     44 H          -2.2103   17.3433   -0.1043 H       1  LIG1        0.0654
     45 H          -0.7714   13.8260   -2.1470 H       1  LIG1        0.0624
     46 O          -2.8833   16.1321    2.0599 O.3     1  LIG1       -0.5067
     47 H          -3.0413   15.4858    2.7608 H       1  LIG1        0.2921
@<TRIPOS>BOND
     1    23    22    1
     2    45    36    1
     3    40    37    1
     4    22    21    3
     5    21    16    1
     6     6     1    1
     7    36    37   ar
     8    36    38   ar
     9    37    39   ar
    10    17    15    1
    11     5     1   ar
    12     5     4   ar
    13    32    24    1
    14    28    25    1
    15    16    15   ar
    16    16    13   ar
    17     1     2   ar
    18    15    12   ar
    19    24    25   ar
    20    24    26   ar
    21    25    27   ar
    22    26    13    1
    23    26    29   ar
    24    13    11   ar
    25    27    38    1
    26    27    30   ar
    27    38    41   ar
    28    39    44    1
    29    39    42   ar
    30    12     4    1
    31    12    10   ar
    32     4     3   ar
    33    29    30   ar
    34    29    31    1
    35    30    33    1
    36    34    33    1
    37    11    10   ar
    38    11    14    1
    39     2     3   ar
    40     2     8    1
    41    10    18    1
    42    35    33    1
    43    19    18    1
    44     3     9    1
    45     8     7    3
    46    41    42   ar
    47    41    43    1
    48    42    46    1
    49    18    20    1
    50    46    47    1
