@<TRIPOS>MOLECULE
mol_data/opt/b3lyp/geoms/mol2/12da12al4lh-4ed.out
 50 53 0 0 0
SMALL
GASTEIGER

@<TRIPOS>ATOM
      1 C           0.4626    1.5564    0.1359 C.ar    1  LIG1        0.1100
      2 C           1.8317    1.6029    0.0680 C.ar    1  LIG1        0.0901
      3 C           2.1836    2.9906   -0.0508 C.ar    1  LIG1        0.0047
      4 C           1.0012    3.6821   -0.0482 C.ar    1  LIG1        0.1711
      5 O          -0.0497    2.8048    0.0655 O.2     1  LIG1       -0.4585
      6 H          -0.2411    0.7454    0.2323 H       1  LIG1        0.1043
      7 N           3.4449   -0.4154    0.1445 N.1     1  LIG1       -0.1908
      8 C           2.7145    0.4895    0.1109 C.1     1  LIG1        0.1023
      9 H           3.1803    3.3976   -0.1223 H       1  LIG1        0.0669
     10 C           0.6886    5.0824   -0.1447 C.ar    1  LIG1        0.1742
     11 C           1.4808    6.1908   -0.3196 C.ar    1  LIG1        0.0297
     12 C           0.5966    7.3098   -0.3207 C.ar    1  LIG1        0.1664
     13 C          -0.6899    6.8246   -0.1320 C.ar    1  LIG1        0.1807
     14 O          -0.6126    5.4493   -0.0354 O.2     1  LIG1       -0.4478
     15 H           2.5522    6.1979   -0.4463 H       1  LIG1        0.0693
     16 O           0.9032    8.6109   -0.5140 O.3     1  LIG1       -0.4913
     17 C           2.2714    8.9112   -0.7549 C.3     1  LIG1        0.0790
     18 H           2.3220    9.9915   -0.8931 H       1  LIG1        0.0660
     19 H           2.9025    8.6260    0.0966 H       1  LIG1        0.0660
     20 H           2.6399    8.4121   -1.6603 H       1  LIG1        0.0660
     21 C          -2.3393    8.6760    0.3545 C.ar    1  LIG1        0.1315
     22 C          -3.6490    9.1395    0.3025 C.ar    1  LIG1       -0.0097
     23 C          -2.0366    7.3815   -0.1209 C.ar    1  LIG1        0.0643
     24 C          -4.7064    8.3576   -0.1784 C.ar    1  LIG1        0.0075
     25 H          -3.8429   10.1406    0.6714 H       1  LIG1        0.0661
     26 C          -3.0964    6.5929   -0.5991 C.ar    1  LIG1       -0.0261
     27 C          -4.4192    7.0460   -0.6323 C.ar    1  LIG1        0.0333
     28 H          -2.8741    5.5969   -0.9688 H       1  LIG1        0.0644
     29 O          -1.3689    9.5102    0.8675 O.3     1  LIG1       -0.4944
     30 C          -1.0458    9.2722    2.2361 C.3     1  LIG1        0.0788
     31 H          -0.2706    9.9939    2.5017 H       1  LIG1        0.0660
     32 H          -1.9201    9.4235    2.8831 H       1  LIG1        0.0660
     33 H          -0.6607    8.2568    2.3911 H       1  LIG1        0.0660
     34 N          -5.4303    6.1914   -1.0852 N.pl3   1  LIG1       -0.3575
     35 H          -6.2237    6.6519   -1.5109 H       1  LIG1        0.1423
     36 H          -5.0991    5.4220   -1.6514 H       1  LIG1        0.1423
     37 C          -6.4412   10.1326   -0.7602 C.ar    1  LIG1        0.0325
     38 C          -7.7623   10.6147   -0.6604 C.ar    1  LIG1       -0.0445
     39 C          -6.0956    8.8920   -0.1577 C.ar    1  LIG1        0.0006
     40 C          -8.7426    9.8967    0.0054 C.ar    1  LIG1       -0.0432
     41 H          -8.0051   11.5639   -1.1254 H       1  LIG1        0.0630
     42 C          -7.1010    8.1757    0.5051 C.ar    1  LIG1       -0.0354
     43 C          -8.4128    8.6626    0.5906 C.ar    1  LIG1        0.0524
     44 H          -6.8555    7.2259    0.9664 H       1  LIG1        0.0637
     45 H          -9.7561   10.2760    0.0740 H       1  LIG1        0.0631
     46 C          -5.4939   10.9081   -1.4967 C.1     1  LIG1       -0.0691
     47 C          -4.7367   11.5979   -2.1410 C.1     1  LIG1       -0.1139
     48 H          -4.0482   12.1890   -2.6997 H       1  LIG1        0.1232
     49 N         -10.2304    7.2895    1.8384 N.1     1  LIG1       -0.1909
     50 C          -9.4140    7.9037    1.2816 C.1     1  LIG1        0.0992
@<TRIPOS>BOND
     1    48    47    1
     2    47    46    3
     3    20    17    1
     4    36    34    1
     5    35    34    1
     6    46    37    1
     7    41    38    1
     8    34    27    1
     9    28    26    1
    10    18    17    1
    11    37    38   ar
    12    37    39   ar
    13    17    16    1
    14    17    19    1
    15    38    40   ar
    16    27    26   ar
    17    27    24   ar
    18    26    23   ar
    19    16    12    1
    20    15    11    1
    21    12    11   ar
    22    12    13   ar
    23    11    10   ar
    24    24    39    1
    25    24    22   ar
    26    39    42   ar
    27    10     4    1
    28    10    14   ar
    29    13    23    1
    30    13    14   ar
    31     9     3    1
    32    23    21   ar
    33     3     4   ar
    34     3     2   ar
    35     4     5   ar
    36    40    45    1
    37    40    43   ar
    38     5     1   ar
    39     2     8    1
    40     2     1   ar
    41     8     7    3
    42     1     6    1
    43    22    21   ar
    44    22    25    1
    45    21    29    1
    46    42    43   ar
    47    42    44    1
    48    43    50    1
    49    29    30    1
    50    50    49    3
    51    30    33    1
    52    30    31    1
    53    30    32    1
