@<TRIPOS>MOLECULE
mol_data/opt/b3lyp/geoms/mol2/12dd12dd-4dd12dd.out
 41 44 0 0 0
SMALL
GASTEIGER

@<TRIPOS>ATOM
      1 C           0.0697    1.6570   -0.0690 C.ar    1  LIG1        0.1114
      2 C           1.3404    1.6540   -0.5770 C.ar    1  LIG1        0.1075
      3 C           1.7687    3.0355   -0.5932 C.ar    1  LIG1        0.1178
      4 C           0.7067    3.7584   -0.0840 C.ar    1  LIG1        0.1896
      5 O          -0.3173    2.9176    0.2287 O.2     1  LIG1       -0.4571
      6 H          -0.6428    0.8721    0.1283 H       1  LIG1        0.1043
      7 N           2.6777   -0.4118   -1.3614 N.1     1  LIG1       -0.1907
      8 C           2.0785    0.5191   -1.0075 C.1     1  LIG1        0.1036
      9 N           4.0087    3.9412   -1.4987 N.1     1  LIG1       -0.1907
     10 C           3.0028    3.5368   -1.0780 C.1     1  LIG1        0.1044
     11 C           0.4949    5.1557    0.1456 C.ar    1  LIG1        0.1905
     12 C          -0.6202    5.9028    0.4765 C.ar    1  LIG1        0.1185
     13 C          -0.1705    7.2722    0.5322 C.ar    1  LIG1        0.1155
     14 C           1.1788    7.2582    0.2352 C.ar    1  LIG1        0.1557
     15 O           1.5675    5.9745    0.0013 O.2     1  LIG1       -0.4490
     16 N          -3.0258    5.0702    0.8990 N.1     1  LIG1       -0.1907
     17 C          -1.9386    5.4365    0.7087 C.1     1  LIG1        0.1044
     18 N          -1.6029    9.3405    1.1117 N.1     1  LIG1       -0.1907
     19 C          -0.9605    8.4051    0.8567 C.1     1  LIG1        0.1043
     20 C           3.5406    8.0883    0.5292 C.ar    1  LIG1        0.0632
     21 C           4.4786    9.1152    0.3922 C.ar    1  LIG1       -0.0317
     22 C           2.1915    8.3024    0.1432 C.ar    1  LIG1        0.0372
     23 C           4.1266   10.3788   -0.1027 C.ar    1  LIG1        0.0372
     24 H           5.5017    8.9135    0.6839 H       1  LIG1        0.0638
     25 C           1.8345    9.5661   -0.3383 C.ar    1  LIG1       -0.0317
     26 C           2.7697   10.6003   -0.4604 C.ar    1  LIG1        0.0632
     27 H           0.8111    9.7620   -0.6344 H       1  LIG1        0.0638
     28 N           4.3528    5.8773    1.6198 N.1     1  LIG1       -0.1908
     29 C           3.9795    6.8539    1.1119 C.1     1  LIG1        0.0999
     30 N           1.8160   12.8583   -1.3143 N.1     1  LIG1       -0.1908
     31 C           2.2789   11.8611   -0.9364 C.1     1  LIG1        0.0999
     32 C           5.1516   11.4077   -0.2264 C.ar    1  LIG1        0.1547
     33 C           6.3624   11.6239    0.4066 C.ar    1  LIG1        0.1147
     34 C           6.9106   12.8322   -0.1685 C.ar    1  LIG1        0.1074
     35 C           5.9973   13.2507   -1.0963 C.ar    1  LIG1        0.1112
     36 O           4.9481   12.4027   -1.1346 O.2     1  LIG1       -0.4602
     37 H           5.9676   14.0924   -1.7697 H       1  LIG1        0.1043
     38 N           7.4330   10.2029    2.2771 N.1     1  LIG1       -0.1907
     39 C           6.9513   10.8474    1.4367 C.1     1  LIG1        0.1043
     40 N           9.1457   13.9798    0.4298 N.1     1  LIG1       -0.1907
     41 C           8.1398   13.4628    0.1616 C.1     1  LIG1        0.1036
@<TRIPOS>BOND
     1    37    35    1
     2     9    10    3
     3     7     8    3
     4    30    31    3
     5    36    35   ar
     6    36    32   ar
     7    35    34   ar
     8    10     3    1
     9     8     2    1
    10    31    26    1
    11    27    25    1
    12     3     2   ar
    13     3     4   ar
    14     2     1   ar
    15    26    25   ar
    16    26    23   ar
    17    25    22   ar
    18    32    23    1
    19    32    33   ar
    20    34    41    1
    21    34    33   ar
    22    23    21   ar
    23     4    11    1
    24     4     5   ar
    25     1     6    1
    26     1     5   ar
    27    15    11   ar
    28    15    14   ar
    29    22    14    1
    30    22    20   ar
    31    11    12   ar
    32    41    40    3
    33    14    13   ar
    34    21    20   ar
    35    21    24    1
    36    33    39    1
    37    12    13   ar
    38    12    17    1
    39    20    29    1
    40    13    19    1
    41    17    16    3
    42    19    18    3
    43    29    28    3
    44    39    38    3
