@<TRIPOS>MOLECULE
mol_data/opt/b3lyp/geoms/mol2/12dd12dd12dd-12dd-.out
 38 41 0 0 0
SMALL
GASTEIGER

@<TRIPOS>ATOM
      1 C           0.2072    1.7841    0.0001 C.ar    1  LIG1        0.1114
      2 C           1.5731    1.7136   -0.0001 C.ar    1  LIG1        0.1075
      3 C           2.0467    3.0810   -0.0000 C.ar    1  LIG1        0.1178
      4 C           0.9098    3.8721   -0.0000 C.ar    1  LIG1        0.1896
      5 O          -0.1961    3.0690   -0.0000 O.2     1  LIG1       -0.4571
      6 H          -0.5665    1.0325    0.0001 H       1  LIG1        0.1043
      7 N           3.0036   -0.4367   -0.0001 N.1     1  LIG1       -0.1907
      8 C           2.3632    0.5332   -0.0001 C.1     1  LIG1        0.1036
      9 N           4.5550    3.6796   -0.0001 N.1     1  LIG1       -0.1907
     10 C           3.4149    3.4499   -0.0001 C.1     1  LIG1        0.1044
     11 C           0.6170    5.2805   -0.0001 C.ar    1  LIG1        0.1906
     12 C           1.3413    6.4631   -0.0000 C.ar    1  LIG1        0.1186
     13 C           0.3705    7.5301   -0.0001 C.ar    1  LIG1        0.1186
     14 C          -0.8695    6.9200   -0.0001 C.ar    1  LIG1        0.1906
     15 O          -0.7163    5.5733   -0.0001 O.2     1  LIG1       -0.4459
     16 N           3.8771    6.9314    0.0001 N.1     1  LIG1       -0.1907
     17 C           2.7429    6.6752    0.0000 C.1     1  LIG1        0.1044
     18 N           0.8672   10.0625   -0.0000 N.1     1  LIG1       -0.1907
     19 C           0.6438    8.9214   -0.0000 C.1     1  LIG1        0.1044
     20 C          -2.2061    7.4220   -0.0002 C.ar    1  LIG1        0.1906
     21 C          -3.4460    6.8119   -0.0002 C.ar    1  LIG1        0.1186
     22 C          -4.4168    7.8788   -0.0002 C.ar    1  LIG1        0.1186
     23 C          -3.6926    9.0615   -0.0002 C.ar    1  LIG1        0.1906
     24 O          -2.3592    8.7686   -0.0002 O.2     1  LIG1       -0.4459
     25 N          -3.9428    4.2794   -0.0001 N.1     1  LIG1       -0.1907
     26 C          -3.7193    5.4206   -0.0001 C.1     1  LIG1        0.1044
     27 N          -6.9527    7.4106   -0.0002 N.1     1  LIG1       -0.1907
     28 C          -5.8185    7.6668   -0.0002 C.1     1  LIG1        0.1044
     29 C          -3.9853   10.4699   -0.0003 C.ar    1  LIG1        0.1896
     30 C          -5.1222   11.2610   -0.0003 C.ar    1  LIG1        0.1178
     31 C          -4.6486   12.6283   -0.0003 C.ar    1  LIG1        0.1075
     32 C          -3.2828   12.5578   -0.0003 C.ar    1  LIG1        0.1114
     33 O          -2.8794   11.2729   -0.0003 O.2     1  LIG1       -0.4571
     34 H          -2.5090   13.3094   -0.0003 H       1  LIG1        0.1043
     35 N          -7.6305   10.6624   -0.0003 N.1     1  LIG1       -0.1907
     36 C          -6.4905   10.8920   -0.0003 C.1     1  LIG1        0.1044
     37 N          -6.0792   14.7787   -0.0004 N.1     1  LIG1       -0.1907
     38 C          -5.4388   13.8088   -0.0004 C.1     1  LIG1        0.1036
@<TRIPOS>BOND
     1    37    38    3
     2    38    31    1
     3    31    30   ar
     4    31    32   ar
     5    35    36    3
     6    30    36    1
     7    30    29   ar
     8    32    33   ar
     9    32    34    1
    10    33    29   ar
    11    29    23    1
    12    23    24   ar
    13    23    22   ar
    14    24    20   ar
    15    27    28    3
    16    28    22    1
    17    22    21   ar
    18    20    21   ar
    19    20    14    1
    20    21    26    1
    21     7     8    3
    22     8     2    1
    23    15    14   ar
    24    15    11   ar
    25    26    25    3
    26    14    13   ar
    27     9    10    3
    28     2     3   ar
    29     2     1   ar
    30    13    19    1
    31    13    12   ar
    32    10     3    1
    33    11     4    1
    34    11    12   ar
    35    19    18    3
    36     4     5   ar
    37     4     3   ar
    38    12    17    1
    39     5     1   ar
    40    17    16    3
    41     1     6    1
