@<TRIPOS>MOLECULE
mol_data/opt/b3lyp/geoms/mol2/12dd12dd-12dd12dd-.out
 38 41 0 0 0
SMALL
GASTEIGER

@<TRIPOS>ATOM
      1 C           0.1056    1.7024   -0.0004 C.ar    1  LIG1        0.1114
      2 C           1.4693    1.6013   -0.0002 C.ar    1  LIG1        0.1075
      3 C           1.9743    2.9579   -0.0002 C.ar    1  LIG1        0.1178
      4 C           0.8566    3.7723   -0.0001 C.ar    1  LIG1        0.1896
      5 O          -0.2684    2.9986   -0.0001 O.2     1  LIG1       -0.4571
      6 H          -0.6853    0.9692   -0.0004 H       1  LIG1        0.1043
      7 N           2.8476   -0.5830   -0.0004 N.1     1  LIG1       -0.1907
      8 C           2.2310    0.4022   -0.0003 C.1     1  LIG1        0.1036
      9 N           4.4906    3.5160   -0.0004 N.1     1  LIG1       -0.1907
     10 C           3.3460    3.3101   -0.0003 C.1     1  LIG1        0.1044
     11 C           0.6132    5.1841    0.0000 C.ar    1  LIG1        0.1906
     12 C          -0.5746    5.8936    0.0001 C.ar    1  LIG1        0.1186
     13 C          -0.2116    7.2854    0.0001 C.ar    1  LIG1        0.1186
     14 C           1.1715    7.3236    0.0001 C.ar    1  LIG1        0.1906
     15 O           1.6648    6.0478    0.0000 O.2     1  LIG1       -0.4459
     16 N          -2.9920    4.9902    0.0002 N.1     1  LIG1       -0.1907
     17 C          -1.8981    5.3842    0.0002 C.1     1  LIG1        0.1044
     18 N          -1.9729    9.1670    0.0003 N.1     1  LIG1       -0.1907
     19 C          -1.1420    8.3537    0.0002 C.1     1  LIG1        0.1044
     20 C           2.1189    8.3957    0.0001 C.ar    1  LIG1        0.1906
     21 C           3.5020    8.4338    0.0003 C.ar    1  LIG1        0.1186
     22 C           3.8650    9.8256    0.0001 C.ar    1  LIG1        0.1186
     23 C           2.6773   10.5351   -0.0001 C.ar    1  LIG1        0.1906
     24 O           1.6256    9.6715   -0.0000 O.2     1  LIG1       -0.4459
     25 N           5.2633    6.5522    0.0008 N.1     1  LIG1       -0.1907
     26 C           4.4324    7.3655    0.0005 C.1     1  LIG1        0.1044
     27 N           6.2825   10.7290    0.0002 N.1     1  LIG1       -0.1907
     28 C           5.1885   10.3350    0.0002 C.1     1  LIG1        0.1044
     29 C           2.4338   11.9470   -0.0003 C.ar    1  LIG1        0.1896
     30 C           1.3162   12.7614   -0.0003 C.ar    1  LIG1        0.1178
     31 C           1.8212   14.1180   -0.0006 C.ar    1  LIG1        0.1075
     32 C           3.1849   14.0168   -0.0007 C.ar    1  LIG1        0.1114
     33 O           3.5589   12.7206   -0.0004 O.2     1  LIG1       -0.4571
     34 H           3.9759   14.7500   -0.0009 H       1  LIG1        0.1043
     35 N          -1.2001   12.2034    0.0001 N.1     1  LIG1       -0.1907
     36 C          -0.0556   12.4092   -0.0001 C.1     1  LIG1        0.1044
     37 N           0.4430   16.3023   -0.0009 N.1     1  LIG1       -0.1907
     38 C           1.0596   15.3171   -0.0008 C.1     1  LIG1        0.1036
@<TRIPOS>BOND
     1    34    32    1
     2    37    38    3
     3    38    31    1
     4    32    31   ar
     5    32    33   ar
     6    31    30   ar
     7     6     1    1
     8    33    29   ar
     9     9    10    3
    10     7     8    3
    11     1     2   ar
    12     1     5   ar
    13    10     3    1
    14     8     2    1
    15    30    29   ar
    16    30    36    1
    17    29    23    1
    18     3     2   ar
    19     3     4   ar
    20     4     5   ar
    21     4    11    1
    22    36    35    3
    23    23    24   ar
    24    23    22   ar
    25    24    20   ar
    26    11    15   ar
    27    11    12   ar
    28    15    14   ar
    29    14    20    1
    30    14    13   ar
    31    22    28    1
    32    22    21   ar
    33    20    21   ar
    34    12    13   ar
    35    12    17    1
    36    13    19    1
    37    17    16    3
    38    28    27    3
    39    19    18    3
    40    21    26    1
    41    26    25    3
