@<TRIPOS>MOLECULE
mol_data/opt/b3lyp/geoms/mol2/12dd12dd-12dd.out
 29 31 0 0 0
SMALL
GASTEIGER

@<TRIPOS>ATOM
      1 C           0.0370    1.7824    0.0001 C.ar    1  LIG1        0.1114
      2 C           1.3994    1.6646   -0.0000 C.ar    1  LIG1        0.1075
      3 C           1.9208    3.0151   -0.0000 C.ar    1  LIG1        0.1178
      4 C           0.8126    3.8418   -0.0001 C.ar    1  LIG1        0.1896
      5 O          -0.3221    3.0838   -0.0000 O.2     1  LIG1       -0.4571
      6 H          -0.7623    1.0587    0.0001 H       1  LIG1        0.1043
      7 N           2.7493   -0.5374   -0.0000 N.1     1  LIG1       -0.1907
      8 C           2.1456    0.4558   -0.0000 C.1     1  LIG1        0.1036
      9 N           4.4369    3.5782   -0.0002 N.1     1  LIG1       -0.1907
     10 C           3.2942    3.3620   -0.0001 C.1     1  LIG1        0.1044
     11 C           0.6012    5.2582   -0.0001 C.ar    1  LIG1        0.1906
     12 C          -0.5625    6.0063   -0.0001 C.ar    1  LIG1        0.1186
     13 C          -0.1506    7.3855   -0.0001 C.ar    1  LIG1        0.1186
     14 C           1.2328    7.3729   -0.0001 C.ar    1  LIG1        0.1906
     15 O           1.6828    6.0868   -0.0001 O.2     1  LIG1       -0.4459
     16 N          -3.0076    5.1810    0.0000 N.1     1  LIG1       -0.1907
     17 C          -1.9011    5.5387   -0.0000 C.1     1  LIG1        0.1044
     18 N          -1.7425    9.4166   -0.0001 N.1     1  LIG1       -0.1907
     19 C          -1.0135    8.5107   -0.0001 C.1     1  LIG1        0.1044
     20 C           2.1864    8.4413   -0.0002 C.ar    1  LIG1        0.1896
     21 C           3.5664    8.5248   -0.0001 C.ar    1  LIG1        0.1178
     22 C           3.8711    9.9401   -0.0002 C.ar    1  LIG1        0.1075
     23 C           2.6672   10.5887   -0.0004 C.ar    1  LIG1        0.1114
     24 O           1.6533    9.6974   -0.0004 O.2     1  LIG1       -0.4571
     25 H           2.3957   11.6322   -0.0005 H       1  LIG1        0.1043
     26 N           5.3615    6.6740    0.0005 N.1     1  LIG1       -0.1907
     27 C           4.5246    7.4816    0.0002 C.1     1  LIG1        0.1044
     28 N           6.2075   11.0411   -0.0001 N.1     1  LIG1       -0.1907
     29 C           5.1580   10.5416   -0.0001 C.1     1  LIG1        0.1036
@<TRIPOS>BOND
     1    25    23    1
     2    24    23   ar
     3    24    20   ar
     4    23    22   ar
     5     9    10    3
     6    22    29    1
     7    22    21   ar
     8    20    14    1
     9    20    21   ar
    10    14    15   ar
    11    14    13   ar
    12    15    11   ar
    13    10     3    1
    14    29    28    3
    15    13    19    1
    16    13    12   ar
    17    19    18    3
    18    11    12   ar
    19    11     4    1
    20    21    27    1
    21    12    17    1
    22     4     3   ar
    23     4     5   ar
    24     3     2   ar
    25     8     7    3
    26     8     2    1
    27     2     1   ar
    28     5     1   ar
    29    17    16    3
    30     1     6    1
    31    27    26    3
