@<TRIPOS>MOLECULE
mol_data/opt/b3lyp/geoms/mol2/12dd12dd.out
 20 21 0 0 0
SMALL
GASTEIGER

@<TRIPOS>ATOM
      1 C           0.1416    1.8195   -0.0000 C.ar    1  LIG1        0.1114
      2 C           1.5061    1.7648    0.0000 C.ar    1  LIG1        0.1075
      3 C           1.9643    3.1395   -0.0000 C.ar    1  LIG1        0.1178
      4 C           0.8205    3.9181   -0.0001 C.ar    1  LIG1        0.1896
      5 O          -0.2769    3.1021   -0.0001 O.2     1  LIG1       -0.4571
      6 H          -0.6220    1.0580   -0.0000 H       1  LIG1        0.1043
      7 N           2.9564   -0.3723    0.0001 N.1     1  LIG1       -0.1907
      8 C           2.3085    0.5927    0.0000 C.1     1  LIG1        0.1036
      9 N           4.4704    3.7469    0.0000 N.1     1  LIG1       -0.1907
     10 C           3.3304    3.5177    0.0000 C.1     1  LIG1        0.1044
     11 C           0.5156    5.3271   -0.0001 C.ar    1  LIG1        0.1896
     12 C           1.2352    6.5088   -0.0001 C.ar    1  LIG1        0.1178
     13 C           0.2497    7.5711   -0.0001 C.ar    1  LIG1        0.1075
     14 C          -0.9701    6.9572   -0.0002 C.ar    1  LIG1        0.1114
     15 O          -0.8209    5.6164   -0.0002 O.2     1  LIG1       -0.4571
     16 H          -1.9802    7.3350   -0.0003 H       1  LIG1        0.1043
     17 N           3.7683    6.9919    0.0001 N.1     1  LIG1       -0.1907
     18 C           2.6354    6.7293    0.0000 C.1     1  LIG1        0.1044
     19 N           0.6868   10.1167   -0.0002 N.1     1  LIG1       -0.1907
     20 C           0.4958    8.9701   -0.0002 C.1     1  LIG1        0.1036
@<TRIPOS>BOND
     1    16    14    1
     2    14    15   ar
     3    14    13   ar
     4    15    11   ar
     5    19    20    3
     6    20    13    1
     7    13    12   ar
     8    11    12   ar
     9    11     4    1
    10     5     4   ar
    11     5     1   ar
    12    12    18    1
    13     4     3   ar
    14     6     1    1
    15     1     2   ar
    16     3     2   ar
    17     3    10    1
    18     2     8    1
    19    10     9    3
    20    18    17    3
    21     8     7    3
