@<TRIPOS>MOLECULE
mol_data/opt/b3lyp/geoms/mol2/12dd12dd-12dd-12dd-.out
 38 41 0 0 0
SMALL
GASTEIGER

@<TRIPOS>ATOM
      1 C           0.3531    1.7792   -0.0000 C.ar    1  LIG1        0.1114
      2 C           1.7196    1.8476   -0.0000 C.ar    1  LIG1        0.1075
      3 C           2.0507    3.2562   -0.0000 C.ar    1  LIG1        0.1178
      4 C           0.8376    3.9217   -0.0001 C.ar    1  LIG1        0.1896
      5 O          -0.1818    3.0213   -0.0001 O.2     1  LIG1       -0.4571
      6 H          -0.3403    0.9532    0.0000 H       1  LIG1        0.1043
      7 N           3.3707   -0.1385   -0.0000 N.1     1  LIG1       -0.1907
      8 C           2.6265    0.7544   -0.0000 C.1     1  LIG1        0.1036
      9 N           4.4365    4.2411   -0.0000 N.1     1  LIG1       -0.1907
     10 C           3.3548    3.8133   -0.0000 C.1     1  LIG1        0.1044
     11 C           0.4878    5.3088   -0.0001 C.ar    1  LIG1        0.1906
     12 C          -0.7129    5.9930   -0.0001 C.ar    1  LIG1        0.1186
     13 C          -0.3748    7.3962   -0.0001 C.ar    1  LIG1        0.1186
     14 C           1.0101    7.4601   -0.0001 C.ar    1  LIG1        0.1906
     15 O           1.5151    6.1908   -0.0001 O.2     1  LIG1       -0.4459
     16 N          -3.0936    4.9972   -0.0001 N.1     1  LIG1       -0.1907
     17 C          -2.0195    5.4426   -0.0001 C.1     1  LIG1        0.1044
     18 N          -2.1666    9.2510   -0.0002 N.1     1  LIG1       -0.1907
     19 C          -1.3304    8.4430   -0.0001 C.1     1  LIG1        0.1044
     20 C           2.0203    8.4815   -0.0001 C.ar    1  LIG1        0.1906
     21 C           2.0714    9.8650   -0.0001 C.ar    1  LIG1        0.1186
     22 C           3.4722   10.2175   -0.0001 C.ar    1  LIG1        0.1186
     23 C           4.1733    9.0224   -0.0001 C.ar    1  LIG1        0.1906
     24 O           3.2890    7.9912   -0.0001 O.2     1  LIG1       -0.4459
     25 N           0.1868   11.6261   -0.0001 N.1     1  LIG1       -0.1907
     26 C           1.0131   10.8081   -0.0001 C.1     1  LIG1        0.1044
     27 N           4.2823   12.6661   -0.0001 N.1     1  LIG1       -0.1907
     28 C           3.9530   11.5510   -0.0001 C.1     1  LIG1        0.1044
     29 C           5.5494    8.6015   -0.0001 C.ar    1  LIG1        0.1896
     30 C           6.7955    9.2054   -0.0002 C.ar    1  LIG1        0.1178
     31 C           7.7549    8.1215   -0.0001 C.ar    1  LIG1        0.1075
     32 C           7.0232    6.9645   -0.0000 C.ar    1  LIG1        0.1114
     33 O           5.7083    7.2450   -0.0000 O.2     1  LIG1       -0.4571
     34 H           7.2908    5.9195    0.0000 H       1  LIG1        0.1043
     35 N           7.4872   11.6900   -0.0003 N.1     1  LIG1       -0.1907
     36 C           7.1387   10.5804   -0.0003 C.1     1  LIG1        0.1044
     37 N          10.3305    8.3143   -0.0002 N.1     1  LIG1       -0.1907
     38 C           9.1711    8.2316   -0.0001 C.1     1  LIG1        0.1036
@<TRIPOS>BOND
     1    35    36    3
     2    36    30    1
     3    18    19    3
     4    37    38    3
     5    30    31   ar
     6    30    29   ar
     7    19    13    1
     8    38    31    1
     9    13    14   ar
    10    13    12   ar
    11    21    20   ar
    12    21    26    1
    13    21    22   ar
    14    16    17    3
    15    20    24   ar
    16    20    14    1
    17    24    23   ar
    18    26    25    3
    19    17    12    1
    20    31    32   ar
    21    14    15   ar
    22    22    23   ar
    23    22    28    1
    24    23    29    1
    25    12    11   ar
    26    29    33   ar
    27    15    11   ar
    28    28    27    3
    29    11     4    1
    30     5     4   ar
    31     5     1   ar
    32     4     3   ar
    33    33    32   ar
    34    32    34    1
    35     2     8    1
    36     2     3   ar
    37     2     1   ar
    38     8     7    3
    39     3    10    1
    40    10     9    3
    41     1     6    1
