@<TRIPOS>MOLECULE
mol_data/opt/b3lyp/geoms/mol2/12dd12dd12dd.out
 29 31 0 0 0
SMALL
GASTEIGER

@<TRIPOS>ATOM
      1 C           0.1394    1.8237    0.0001 C.ar    1  LIG1        0.1114
      2 C           1.5029    1.7364   -0.0000 C.ar    1  LIG1        0.1075
      3 C           1.9938    3.0984    0.0000 C.ar    1  LIG1        0.1178
      4 C           0.8679    3.9046   -0.0000 C.ar    1  LIG1        0.1896
      5 O          -0.2491    3.1149   -0.0000 O.2     1  LIG1       -0.4571
      6 H          -0.6416    1.0800    0.0002 H       1  LIG1        0.1043
      7 N           2.8998   -0.4360   -0.0001 N.1     1  LIG1       -0.1907
      8 C           2.2762    0.5448   -0.0001 C.1     1  LIG1        0.1036
      9 N           4.5140    3.6436   -0.0001 N.1     1  LIG1       -0.1907
     10 C           3.3685    3.4429   -0.0000 C.1     1  LIG1        0.1044
     11 C           0.5966    5.3185   -0.0001 C.ar    1  LIG1        0.1906
     12 C           1.3428    6.4834   -0.0000 C.ar    1  LIG1        0.1186
     13 C           0.3942    7.5727   -0.0001 C.ar    1  LIG1        0.1186
     14 C          -0.8623    6.9938   -0.0001 C.ar    1  LIG1        0.1906
     15 O          -0.7269    5.6389   -0.0001 O.2     1  LIG1       -0.4459
     16 N           3.8889    6.8932    0.0001 N.1     1  LIG1       -0.1907
     17 C           2.7485    6.6668    0.0000 C.1     1  LIG1        0.1044
     18 N           1.1503   10.0384   -0.0001 N.1     1  LIG1       -0.1907
     19 C           0.7692    8.9399   -0.0001 C.1     1  LIG1        0.1044
     20 C          -2.2253    7.4571   -0.0002 C.ar    1  LIG1        0.1896
     21 C          -2.8690    8.6831   -0.0002 C.ar    1  LIG1        0.1178
     22 C          -4.2856    8.3841   -0.0003 C.ar    1  LIG1        0.1075
     23 C          -4.3867    7.0217   -0.0003 C.ar    1  LIG1        0.1114
     24 O          -3.1612    6.4593   -0.0003 O.2     1  LIG1       -0.4571
     25 H          -5.2307    6.3503   -0.0003 H       1  LIG1        0.1043
     26 N          -1.9825   11.1044   -0.0000 N.1     1  LIG1       -0.1907
     27 C          -2.3387    9.9974   -0.0001 C.1     1  LIG1        0.1044
     28 N          -6.2453   10.0665   -0.0003 N.1     1  LIG1       -0.1907
     29 C          -5.3596    9.3140   -0.0003 C.1     1  LIG1        0.1036
@<TRIPOS>BOND
     1    25    23    1
     2    24    23   ar
     3    24    20   ar
     4    28    29    3
     5    29    22    1
     6    23    22   ar
     7    22    21   ar
     8    21    20   ar
     9    21    27    1
    10    20    14    1
    11    14    15   ar
    12    14    13   ar
    13    15    11   ar
    14    27    26    3
    15    18    19    3
    16     7     8    3
    17     8     2    1
    18    19    13    1
    19    13    12   ar
    20     9    10    3
    21    11    12   ar
    22    11     4    1
    23     2     3   ar
    24     2     1   ar
    25    12    17    1
    26    10     3    1
    27     4     5   ar
    28     4     3   ar
    29     5     1   ar
    30    17    16    3
    31     1     6    1
