@<TRIPOS>MOLECULE
mol_data/opt/b3lyp/geoms/mol2/12dd12dd-.out
 20 21 0 0 0
SMALL
GASTEIGER

@<TRIPOS>ATOM
      1 C           0.1824    1.8150   -0.0003 C.ar    1  LIG1        0.1114
      2 C           1.5498    1.7918    0.0001 C.ar    1  LIG1        0.1075
      3 C           1.9741    3.1759   -0.0001 C.ar    1  LIG1        0.1178
      4 C           0.8105    3.9207   -0.0001 C.ar    1  LIG1        0.1896
      5 O          -0.2678    3.0906   -0.0001 O.2     1  LIG1       -0.4571
      6 H          -0.5648    1.0376   -0.0004 H       1  LIG1        0.1043
      7 N           3.0550   -0.3072    0.0004 N.1     1  LIG1       -0.1907
      8 C           2.3789    0.6384    0.0003 C.1     1  LIG1        0.1036
      9 N           4.4090    4.0303    0.0000 N.1     1  LIG1       -0.1907
     10 C           3.3087    3.6534   -0.0001 C.1     1  LIG1        0.1044
     11 C           0.5478    5.3293   -0.0001 C.ar    1  LIG1        0.1896
     12 C          -0.6159    6.0740   -0.0000 C.ar    1  LIG1        0.1178
     13 C          -0.1916    7.4582   -0.0001 C.ar    1  LIG1        0.1075
     14 C           1.1759    7.4349   -0.0002 C.ar    1  LIG1        0.1114
     15 O           1.6261    6.1593   -0.0002 O.2     1  LIG1       -0.4571
     16 H           1.9230    8.2123   -0.0003 H       1  LIG1        0.1043
     17 N          -3.0508    5.2197    0.0002 N.1     1  LIG1       -0.1907
     18 C          -1.9505    5.5966    0.0001 C.1     1  LIG1        0.1044
     19 N          -1.6968    9.5571   -0.0001 N.1     1  LIG1       -0.1907
     20 C          -1.0207    8.6116   -0.0001 C.1     1  LIG1        0.1036
@<TRIPOS>BOND
     1     6     1    1
     2    16    14    1
     3     1     5   ar
     4     1     2   ar
     5    14    15   ar
     6    14    13   ar
     7    15    11   ar
     8    13    20    1
     9    13    12   ar
    10    20    19    3
    11     5     4   ar
    12    11     4    1
    13    11    12   ar
    14     4     3   ar
    15     3    10    1
    16     3     2   ar
    17    10     9    3
    18    12    18    1
    19    18    17    3
    20     2     8    1
    21     8     7    3
