@<TRIPOS>MOLECULE
mol_data/opt/b3lyp/geoms/mol2/12dd12dd12dd12dd.out
 38 41 0 0 0
SMALL
GASTEIGER

@<TRIPOS>ATOM
      1 C           0.0846    1.8480    0.0000 C.ar    1  LIG1        0.1114
      2 C           1.4464    1.7373    0.0000 C.ar    1  LIG1        0.1075
      3 C           1.9603    3.0905   -0.0000 C.ar    1  LIG1        0.1178
      4 C           0.8481    3.9159   -0.0000 C.ar    1  LIG1        0.1896
      5 O          -0.2825    3.1454    0.0000 O.2     1  LIG1       -0.4571
      6 H          -0.7081    1.1169    0.0001 H       1  LIG1        0.1043
      7 N           2.8047   -0.4594    0.0000 N.1     1  LIG1       -0.1907
      8 C           2.1990    0.5326    0.0000 C.1     1  LIG1        0.1036
      9 N           4.4901    3.5887   -0.0001 N.1     1  LIG1       -0.1907
     10 C           3.3410    3.4102   -0.0001 C.1     1  LIG1        0.1044
     11 C           0.6025    5.3341   -0.0001 C.ar    1  LIG1        0.1906
     12 C           1.3732    6.4839   -0.0001 C.ar    1  LIG1        0.1186
     13 C           0.4489    7.5921   -0.0001 C.ar    1  LIG1        0.1186
     14 C          -0.8206    7.0395   -0.0001 C.ar    1  LIG1        0.1906
     15 O          -0.7140    5.6811   -0.0001 O.2     1  LIG1       -0.4459
     16 N           3.9272    6.8413    0.0000 N.1     1  LIG1       -0.1907
     17 C           2.7825    6.6381   -0.0000 C.1     1  LIG1        0.1044
     18 N           1.2631   10.0389   -0.0002 N.1     1  LIG1       -0.1907
     19 C           0.8552    8.9502   -0.0002 C.1     1  LIG1        0.1044
     20 C          -2.1703    7.5338   -0.0002 C.ar    1  LIG1        0.1906
     21 C          -2.7827    8.7756   -0.0002 C.ar    1  LIG1        0.1186
     22 C          -4.2041    8.5264   -0.0002 C.ar    1  LIG1        0.1186
     23 C          -4.3582    7.1508   -0.0002 C.ar    1  LIG1        0.1906
     24 O          -3.1291    6.5656   -0.0002 O.2     1  LIG1       -0.4459
     25 N          -1.8240   11.1695   -0.0001 N.1     1  LIG1       -0.1907
     26 C          -2.2157   10.0748   -0.0001 C.1     1  LIG1        0.1044
     27 N          -5.9232   10.4488   -0.0003 N.1     1  LIG1       -0.1907
     28 C          -5.1804    9.5544   -0.0003 C.1     1  LIG1        0.1044
     29 C          -5.4617    6.2268   -0.0003 C.ar    1  LIG1        0.1896
     30 C          -6.8439    6.3149   -0.0003 C.ar    1  LIG1        0.1178
     31 C          -7.3254    4.9499   -0.0004 C.ar    1  LIG1        0.1075
     32 C          -6.2143    4.1549   -0.0004 C.ar    1  LIG1        0.1114
     33 O          -5.0961    4.9083   -0.0003 O.2     1  LIG1       -0.4571
     34 H          -6.0812    3.0847   -0.0004 H       1  LIG1        0.1043
     35 N          -8.4536    8.3291   -0.0002 N.1     1  LIG1       -0.1907
     36 C          -7.6915    7.4506   -0.0002 C.1     1  LIG1        0.1044
     37 N          -9.7812    4.1500   -0.0004 N.1     1  LIG1       -0.1907
     38 C          -8.6782    4.5162   -0.0004 C.1     1  LIG1        0.1036
@<TRIPOS>BOND
     1    34    32    1
     2    37    38    3
     3    38    31    1
     4    32    31   ar
     5    32    33   ar
     6    31    30   ar
     7    33    29   ar
     8    27    28    3
     9    30    29   ar
    10    30    36    1
    11    29    23    1
    12    28    22    1
    13    23    22   ar
    14    23    24   ar
    15    36    35    3
    16    22    21   ar
    17    24    20   ar
    18    18    19    3
    19    21    20   ar
    20    21    26    1
    21    20    14    1
    22    19    13    1
    23     9    10    3
    24    14    13   ar
    25    14    15   ar
    26    13    12   ar
    27    26    25    3
    28    15    11   ar
    29    10     3    1
    30    12    11   ar
    31    12    17    1
    32    11     4    1
    33     3     4   ar
    34     3     2   ar
    35     4     5   ar
    36    17    16    3
    37     2     8    1
    38     2     1   ar
    39     5     1   ar
    40     8     7    3
    41     1     6    1
