@<TRIPOS>MOLECULE
mol_data/opt/b3lyp/geoms/mol2/12dd12dd-12dd-12dd.out
 38 41 0 0 0
SMALL
GASTEIGER

@<TRIPOS>ATOM
      1 C           0.0924    1.7276    0.0471 C.ar    1  LIG1        0.1114
      2 C           1.3520    1.7216   -0.4887 C.ar    1  LIG1        0.1075
      3 C           1.7647    3.1058   -0.5563 C.ar    1  LIG1        0.1178
      4 C           0.7051    3.8329   -0.0465 C.ar    1  LIG1        0.1896
      5 O          -0.3022    2.9924    0.3149 O.2     1  LIG1       -0.4571
      6 H          -0.6071    0.9416    0.2834 H       1  LIG1        0.1043
      7 N           2.6946   -0.3538   -1.2381 N.1     1  LIG1       -0.1907
      8 C           2.0929    0.5814   -0.8999 C.1     1  LIG1        0.1036
      9 N           3.9837    4.0161   -1.5086 N.1     1  LIG1       -0.1907
     10 C           2.9871    3.6078   -1.0699 C.1     1  LIG1        0.1044
     11 C           0.4939    5.2350    0.1456 C.ar    1  LIG1        0.1906
     12 C          -0.5945    5.9894    0.5465 C.ar    1  LIG1        0.1186
     13 C          -0.1527    7.3625    0.5285 C.ar    1  LIG1        0.1186
     14 C           1.1626    7.3377    0.1052 C.ar    1  LIG1        0.1906
     15 O           1.5458    6.0483   -0.1183 O.2     1  LIG1       -0.4459
     16 N          -2.9398    5.1495    1.2199 N.1     1  LIG1       -0.1907
     17 C          -1.8810    5.5220    0.9158 C.1     1  LIG1        0.1044
     18 N          -1.5221    9.3985    1.3278 N.1     1  LIG1       -0.1907
     19 C          -0.9044    8.4881    0.9515 C.1     1  LIG1        0.1044
     20 C           2.1750    8.3337   -0.1055 C.ar    1  LIG1        0.1906
     21 C           2.1718    9.6491   -0.5289 C.ar    1  LIG1        0.1186
     22 C           3.5519   10.0686   -0.5468 C.ar    1  LIG1        0.1186
     23 C           4.2884    8.9679   -0.1458 C.ar    1  LIG1        0.1906
     24 O           3.4579    7.9295    0.1181 O.2     1  LIG1       -0.4459
     25 N           0.1585   11.0516   -1.3285 N.1     1  LIG1       -0.1907
     26 C           1.0587   10.4191   -0.9520 C.1     1  LIG1        0.1044
     27 N           4.4301   12.3997   -1.2201 N.1     1  LIG1       -0.1907
     28 C           4.0403   11.3472   -0.9161 C.1     1  LIG1        0.1044
     29 C           5.6869    8.7338    0.0464 C.ar    1  LIG1        0.1896
     30 C           6.3965    7.6625    0.5562 C.ar    1  LIG1        0.1178
     31 C           7.7872    8.0525    0.4887 C.ar    1  LIG1        0.1075
     32 C           7.8019    9.3121   -0.0471 C.ar    1  LIG1        0.1114
     33 O           6.5437    9.7273   -0.3150 O.2     1  LIG1       -0.4571
     34 H           8.5992    9.9987   -0.2833 H       1  LIG1        0.1043
     35 N           5.4500    5.4587    1.5084 N.1     1  LIG1       -0.1907
     36 C           5.8746    6.4485    1.0698 C.1     1  LIG1        0.1044
     37 N           9.8404    6.6762    1.2382 N.1     1  LIG1       -0.1907
     38 C           8.9152    7.2930    0.9000 C.1     1  LIG1        0.1036
@<TRIPOS>BOND
     1     9    10    3
     2    25    26    3
     3     7     8    3
     4    27    28    3
     5    10     3    1
     6    26    21    1
     7    28    22    1
     8     8     2    1
     9     3     2   ar
    10     3     4   ar
    11    22    21   ar
    12    22    23   ar
    13    21    20   ar
    14     2     1   ar
    15    33    32   ar
    16    33    29   ar
    17    34    32    1
    18    23    29    1
    19    23    24   ar
    20    15    14   ar
    21    15    11   ar
    22    20    14    1
    23    20    24   ar
    24    32    31   ar
    25     4    11    1
    26     4     5   ar
    27    29    30   ar
    28     1     6    1
    29     1     5   ar
    30    14    13   ar
    31    11    12   ar
    32    31    30   ar
    33    31    38    1
    34    13    12   ar
    35    13    19    1
    36    12    17    1
    37    30    36    1
    38    38    37    3
    39    17    16    3
    40    19    18    3
    41    36    35    3
