@<TRIPOS>MOLECULE
mol_data/opt/b3lyp/geoms/mol2/12dd12dd12dd-12dd.out
 38 41 0 0 0
SMALL
GASTEIGER

@<TRIPOS>ATOM
      1 C           0.0359    1.8111    0.0003 C.ar    1  LIG1        0.1114
      2 C           1.3944    1.6522    0.0002 C.ar    1  LIG1        0.1075
      3 C           1.9558    2.9859    0.0000 C.ar    1  LIG1        0.1178
      4 C           0.8726    3.8490    0.0000 C.ar    1  LIG1        0.1896
      5 O          -0.2831    3.1191    0.0002 O.2     1  LIG1       -0.4571
      6 H          -0.7851    1.1116    0.0004 H       1  LIG1        0.1043
      7 N           2.6805   -0.5876    0.0004 N.1     1  LIG1       -0.1907
      8 C           2.1058    0.4226    0.0003 C.1     1  LIG1        0.1036
      9 N           4.4983    3.4167   -0.0002 N.1     1  LIG1       -0.1907
     10 C           3.3454    3.2644   -0.0001 C.1     1  LIG1        0.1044
     11 C           0.6697    5.2732   -0.0001 C.ar    1  LIG1        0.1906
     12 C           1.4644    6.4085   -0.0003 C.ar    1  LIG1        0.1186
     13 C           0.5620    7.5353   -0.0004 C.ar    1  LIG1        0.1186
     14 C          -0.7144    7.0056   -0.0002 C.ar    1  LIG1        0.1906
     15 O          -0.6400    5.6487   -0.0001 O.2     1  LIG1       -0.4459
     16 N           4.0263    6.7045   -0.0004 N.1     1  LIG1       -0.1907
     17 C           2.8768    6.5301   -0.0003 C.1     1  LIG1        0.1044
     18 N           1.3448    9.9923   -0.0009 N.1     1  LIG1       -0.1907
     19 C           0.9600    8.8951   -0.0006 C.1     1  LIG1        0.1044
     20 C          -2.0413    7.5376   -0.0003 C.ar    1  LIG1        0.1906
     21 C          -3.2725    6.9040   -0.0003 C.ar    1  LIG1        0.1186
     22 C          -4.2592    7.9504   -0.0003 C.ar    1  LIG1        0.1186
     23 C          -3.5553    9.1423   -0.0003 C.ar    1  LIG1        0.1906
     24 O          -2.2167    8.8888   -0.0003 O.2     1  LIG1       -0.4459
     25 N          -3.7644    4.3704   -0.0003 N.1     1  LIG1       -0.1907
     26 C          -3.5327    5.5100   -0.0003 C.1     1  LIG1        0.1044
     27 N          -6.8144    7.5889   -0.0004 N.1     1  LIG1       -0.1907
     28 C          -5.6654    7.7673   -0.0004 C.1     1  LIG1        0.1044
     29 C          -4.0011   10.5027   -0.0003 C.ar    1  LIG1        0.1896
     30 C          -3.3782   11.7370    0.0000 C.ar    1  LIG1        0.1178
     31 C          -4.4468   12.7127   -0.0002 C.ar    1  LIG1        0.1075
     32 C          -5.6137   11.9992   -0.0006 C.ar    1  LIG1        0.1114
     33 O          -5.3547   10.6742   -0.0007 O.2     1  LIG1       -0.4571
     34 H          -6.6521   12.2903   -0.0009 H       1  LIG1        0.1043
     35 N          -0.8725   12.3450    0.0011 N.1     1  LIG1       -0.1907
     36 C          -1.9936   12.0359    0.0006 C.1     1  LIG1        0.1044
     37 N          -4.2202   15.2856    0.0002 N.1     1  LIG1       -0.1907
     38 C          -4.3181   14.1275    0.0000 C.1     1  LIG1        0.1036
@<TRIPOS>BOND
     1    18    19    3
     2    34    32    1
     3    33    32   ar
     4    33    29   ar
     5    19    13    1
     6    32    31   ar
     7    16    17    3
     8    27    28    3
     9    28    22    1
    10    13    12   ar
    11    13    14   ar
    12    17    12    1
    13    22    23   ar
    14    22    21   ar
    15    25    26    3
    16    26    21    1
    17    23    29    1
    18    23    24   ar
    19    29    30   ar
    20    21    20   ar
    21    12    11   ar
    22    20    24   ar
    23    20    14    1
    24    14    15   ar
    25     9    10    3
    26    31    38    1
    27    31    30   ar
    28    11    15   ar
    29    11     4    1
    30    10     3    1
    31    38    37    3
    32     4     3   ar
    33     4     5   ar
    34    30    36    1
    35     3     2   ar
    36     5     1   ar
    37     2     8    1
    38     2     1   ar
    39     8     7    3
    40     1     6    1
    41    36    35    3
