@<TRIPOS>MOLECULE
mol_data/opt/b3lyp/geoms/mol2/12dd12dd12dd12dd-.out
 38 41 0 0 0
SMALL
GASTEIGER

@<TRIPOS>ATOM
      1 C          -0.0443    1.9277    0.0002 C.ar    1  LIG1        0.1114
      2 C           1.3146    1.7618    0.0000 C.ar    1  LIG1        0.1075
      3 C           1.8833    3.0929    0.0000 C.ar    1  LIG1        0.1178
      4 C           0.8041    3.9604    0.0000 C.ar    1  LIG1        0.1896
      5 O          -0.3538    3.2361    0.0001 O.2     1  LIG1       -0.4571
      6 H          -0.8742    1.2385    0.0003 H       1  LIG1        0.1043
      7 N           2.5917   -0.4831   -0.0001 N.1     1  LIG1       -0.1907
      8 C           2.0204    0.5292   -0.0000 C.1     1  LIG1        0.1036
      9 N           4.4247    3.5319   -0.0002 N.1     1  LIG1       -0.1907
     10 C           3.2729    3.3715   -0.0001 C.1     1  LIG1        0.1044
     11 C           0.5953    5.3843   -0.0000 C.ar    1  LIG1        0.1906
     12 C           1.3751    6.5295   -0.0001 C.ar    1  LIG1        0.1186
     13 C           0.4568    7.6446   -0.0001 C.ar    1  LIG1        0.1186
     14 C          -0.8152    7.0984   -0.0001 C.ar    1  LIG1        0.1906
     15 O          -0.7153    5.7420   -0.0001 O.2     1  LIG1       -0.4459
     16 N           3.9349    6.8455   -0.0000 N.1     1  LIG1       -0.1907
     17 C           2.7861    6.6658   -0.0000 C.1     1  LIG1        0.1044
     18 N           1.2413   10.1018   -0.0003 N.1     1  LIG1       -0.1907
     19 C           0.8560    9.0047   -0.0002 C.1     1  LIG1        0.1044
     20 C          -2.1708    7.5740   -0.0002 C.ar    1  LIG1        0.1906
     21 C          -2.8216    8.7982   -0.0002 C.ar    1  LIG1        0.1186
     22 C          -4.2344    8.5029   -0.0002 C.ar    1  LIG1        0.1186
     23 C          -4.3385    7.1249   -0.0003 C.ar    1  LIG1        0.1906
     24 O          -3.1016    6.5742   -0.0002 O.2     1  LIG1       -0.4459
     25 N          -1.9123   11.2115    0.0000 N.1     1  LIG1       -0.1907
     26 C          -2.2847   10.1099   -0.0001 C.1     1  LIG1        0.1044
     27 N          -6.1537   10.2279   -0.0002 N.1     1  LIG1       -0.1907
     28 C          -5.2913    9.4480   -0.0002 C.1     1  LIG1        0.1044
     29 C          -5.4422    6.2148   -0.0003 C.ar    1  LIG1        0.1896
     30 C          -5.5239    4.8336   -0.0003 C.ar    1  LIG1        0.1178
     31 C          -6.9386    4.5294   -0.0004 C.ar    1  LIG1        0.1075
     32 C          -7.5858    5.7349   -0.0004 C.ar    1  LIG1        0.1114
     33 O          -6.6924    6.7502   -0.0004 O.2     1  LIG1       -0.4571
     34 H          -8.6291    6.0077   -0.0005 H       1  LIG1        0.1043
     35 N          -3.6122    3.0994   -0.0002 N.1     1  LIG1       -0.1907
     36 C          -4.4620    3.8937   -0.0003 C.1     1  LIG1        0.1044
     37 N          -8.0258    2.1866   -0.0005 N.1     1  LIG1       -0.1907
     38 C          -7.5379    3.2415   -0.0004 C.1     1  LIG1        0.1036
@<TRIPOS>BOND
     1    37    38    3
     2    34    32    1
     3    38    31    1
     4    32    31   ar
     5    32    33   ar
     6    31    30   ar
     7    33    29   ar
     8    30    29   ar
     9    30    36    1
    10    29    23    1
    11    18    19    3
    12    36    35    3
    13    23    24   ar
    14    23    22   ar
    15    19    13    1
    16    24    20   ar
    17    27    28    3
    18    28    22    1
    19    22    21   ar
    20     9    10    3
    21    20    21   ar
    22    20    14    1
    23    21    26    1
    24    13    14   ar
    25    13    12   ar
    26    14    15   ar
    27    10     3    1
    28    12    17    1
    29    12    11   ar
    30    15    11   ar
    31    26    25    3
    32     7     8    3
    33    17    16    3
    34    11     4    1
    35     8     2    1
    36     3     2   ar
    37     3     4   ar
    38     2     1   ar
    39     4     5   ar
    40     5     1   ar
    41     1     6    1
