@<TRIPOS>MOLECULE
mol_data/opt/b3lyp/geoms/mol2/12dd.out
 11 11 0 0 0
SMALL
GASTEIGER

@<TRIPOS>ATOM
      1 C           0.1378    1.8816    0.0003 C.ar    1  LIG1        0.1103
      2 C           1.5042    1.8590   -0.0002 C.ar    1  LIG1        0.1067
      3 C           1.9199    3.2507    0.0000 C.ar    1  LIG1        0.1067
      4 C           0.7649    3.9812   -0.0002 C.ar    1  LIG1        0.1103
      5 O          -0.3129    3.1597   -0.0007 O.2     1  LIG1       -0.4684
      6 H          -0.6066    1.1017    0.0006 H       1  LIG1        0.1043
      7 H           0.5701    5.0416   -0.0003 H       1  LIG1        0.1043
      8 N           3.0091   -0.2404    0.0000 N.1     1  LIG1       -0.1907
      9 C           2.3338    0.7061   -0.0002 C.1     1  LIG1        0.1036
     10 N           4.3296    4.1808    0.0003 N.1     1  LIG1       -0.1907
     11 C           3.2459    3.7598    0.0002 C.1     1  LIG1        0.1036
@<TRIPOS>BOND
     1     5     4   ar
     2     5     1   ar
     3     7     4    1
     4     2     9    1
     5     2     3   ar
     6     2     1   ar
     7     4     3   ar
     8     9     8    3
     9     3    11    1
    10    11    10    3
    11     1     6    1
