@<TRIPOS>MOLECULE
mol_data/opt/b3lyp/geoms/mol2/12de6hh4dl-4ed.out
 53 56 0 0 0
SMALL
GASTEIGER

@<TRIPOS>ATOM
      1 C           1.4324    8.0148   -8.5060 C.ar    1  LIG1        0.1112
      2 C           2.6018    7.4119   -8.1486 C.ar    1  LIG1        0.1054
      3 C           2.6457    7.4208   -6.6973 C.ar    1  LIG1        0.0878
      4 C           1.4804    8.0460   -6.2835 C.ar    1  LIG1        0.1547
      5 O           0.7537    8.4007   -7.3995 O.2     1  LIG1       -0.4602
      6 H           0.9745    8.2245   -9.4592 H       1  LIG1        0.1043
      7 N           4.3795    6.4423   -9.7526 N.1     1  LIG1       -0.1907
      8 C           3.5787    6.8769   -9.0297 C.1     1  LIG1        0.1036
      9 C           3.6812    6.8572   -5.9164 C.1     1  LIG1       -0.0646
     10 C           4.5884    6.3616   -5.2870 C.1     1  LIG1       -0.1138
     11 H           5.3768    5.9044   -4.7345 H       1  LIG1        0.1232
     12 C          -0.4439    8.6473   -4.7323 C.ar    1  LIG1        0.1277
     13 C           0.9391    8.3869   -4.9777 C.ar    1  LIG1        0.0597
     14 C           1.8041    8.4703   -3.8811 C.ar    1  LIG1       -0.0249
     15 C           1.3401    8.7481   -2.5923 C.ar    1  LIG1        0.0517
     16 C          -0.0535    8.9325   -2.4521 C.ar    1  LIG1        0.0950
     17 N          -0.8857    8.9217   -3.5026 N.ar    1  LIG1       -0.2298
     18 H           2.8665    8.3184   -4.0358 H       1  LIG1        0.0645
     19 N          -1.4183    8.5706   -5.7068 N.pl3   1  LIG1       -0.3426
     20 H          -2.3148    8.9202   -5.4019 H       1  LIG1        0.1437
     21 H          -1.1602    8.7680   -6.6593 H       1  LIG1        0.1437
     22 N           2.2243    8.8235   -1.5181 N.pl3   1  LIG1       -0.3563
     23 H           3.1903    8.9800   -1.7677 H       1  LIG1        0.1424
     24 H           1.9280    9.3967   -0.7411 H       1  LIG1        0.1424
     25 C          -0.5665    8.4304    0.0030 C.ar    1  LIG1        0.0618
     26 C          -1.2075    8.8046    1.1974 C.ar    1  LIG1       -0.0325
     27 C          -0.6907    9.2498   -1.1410 C.ar    1  LIG1        0.0230
     28 C          -1.9759    9.9606    1.2981 C.ar    1  LIG1        0.0262
     29 H          -1.1130    8.1563    2.0607 H       1  LIG1        0.0638
     30 C          -1.4823   10.4003   -1.0515 C.ar    1  LIG1       -0.0089
     31 C          -2.1189   10.7626    0.1379 C.ar    1  LIG1        0.1285
     32 H          -1.5923   11.0024   -1.9434 H       1  LIG1        0.0661
     33 N           0.6345    6.1291    0.0113 N.1     1  LIG1       -0.1908
     34 C           0.1166    7.1704   -0.0215 C.1     1  LIG1        0.0998
     35 O          -2.8794   11.8799    0.2699 O.3     1  LIG1       -0.4945
     36 C          -3.0545   12.7348   -0.8555 C.3     1  LIG1        0.0788
     37 H          -3.6921   13.5487   -0.5102 H       1  LIG1        0.0660
     38 H          -2.0971   13.1429   -1.1998 H       1  LIG1        0.0660
     39 H          -3.5466   12.2123   -1.6839 H       1  LIG1        0.0660
     40 C          -1.9300   10.4025    3.8000 C.ar    1  LIG1        0.0326
     41 C          -2.6189   10.6998    4.9938 C.ar    1  LIG1       -0.0445
     42 C          -2.6481   10.3136    2.5790 C.ar    1  LIG1        0.0022
     43 C          -3.9872   10.9157    4.9987 C.ar    1  LIG1       -0.0432
     44 H          -2.0543   10.7641    5.9172 H       1  LIG1        0.0630
     45 C          -4.0279   10.5393    2.5990 C.ar    1  LIG1       -0.0353
     46 C          -4.7007   10.8379    3.7908 C.ar    1  LIG1        0.0524
     47 H          -4.5895   10.4802    1.6749 H       1  LIG1        0.0637
     48 H          -4.5074   11.1453    5.9219 H       1  LIG1        0.0631
     49 C          -0.5137   10.2223    3.8675 C.1     1  LIG1       -0.0691
     50 C           0.6830   10.0850    3.9839 C.1     1  LIG1       -0.1139
     51 H           1.7368    9.9536    4.0744 H       1  LIG1        0.1232
     52 N          -7.2651   11.2477    3.7586 N.1     1  LIG1       -0.1909
     53 C          -6.1166   11.0624    3.7730 C.1     1  LIG1        0.0992
@<TRIPOS>BOND
     1     7     8    3
     2     6     1    1
     3     8     2    1
     4     1     2   ar
     5     1     5   ar
     6     2     3   ar
     7     5     4   ar
     8     3     4   ar
     9     3     9    1
    10    21    19    1
    11     4    13    1
    12     9    10    3
    13    19    20    1
    14    19    12    1
    15    10    11    1
    16    13    12   ar
    17    13    14   ar
    18    12    17   ar
    19    18    14    1
    20    14    15   ar
    21    17    16   ar
    22    15    16   ar
    23    15    22    1
    24    16    27    1
    25    32    30    1
    26    23    22    1
    27    39    36    1
    28    22    24    1
    29    38    36    1
    30    27    30   ar
    31    27    25   ar
    32    30    31   ar
    33    36    37    1
    34    36    35    1
    35    34    25    1
    36    34    33    3
    37    25    26   ar
    38    31    35    1
    39    31    28   ar
    40    26    28   ar
    41    26    29    1
    42    28    42    1
    43    47    45    1
    44    42    45   ar
    45    42    40   ar
    46    45    46   ar
    47    52    53    3
    48    53    46    1
    49    46    43   ar
    50    40    49    1
    51    40    41   ar
    52    49    50    3
    53    50    51    1
    54    41    43   ar
    55    41    44    1
    56    43    48    1
