@<TRIPOS>MOLECULE
mol_data/opt/b3lyp/geoms/mol2/12de13hf6lf4lf-.out
 52 55 0 0 0
SMALL
GASTEIGER

@<TRIPOS>ATOM
      1 C          -2.4149    3.5082    7.0085 C.ar    1  LIG1        0.1112
      2 C          -2.1397    4.0896    8.2107 C.ar    1  LIG1        0.1054
      3 C          -1.8817    5.4961    7.9448 C.ar    1  LIG1        0.0892
      4 C          -2.0041    5.6437    6.5710 C.ar    1  LIG1        0.1694
      5 O          -2.3356    4.4274    6.0152 O.2     1  LIG1       -0.4588
      6 H          -2.6713    2.5009    6.7225 H       1  LIG1        0.1043
      7 N          -2.1173    2.9182   10.5129 N.1     1  LIG1       -0.1907
      8 C          -2.1283    3.4453    9.4760 C.1     1  LIG1        0.1036
      9 C          -1.6492    6.4780    8.9341 C.1     1  LIG1       -0.0645
     10 C          -1.4718    7.2778    9.8273 C.1     1  LIG1       -0.1138
     11 H          -1.3342    7.9696   10.6263 H       1  LIG1        0.1232
     12 C          -1.8765    6.7312    5.6486 C.ar    1  LIG1        0.1084
     13 C          -1.2428    7.9831    5.7379 C.ar    1  LIG1        0.0960
     14 C          -1.4483    8.6322    4.5072 C.ar    1  LIG1        0.1637
     15 C          -2.1873    7.7958    3.6601 C.ar    1  LIG1        0.0961
     16 N          -2.4240    6.6495    4.3911 N.ar    1  LIG1       -0.3472
     17 H          -2.9610    5.8793    4.0196 H       1  LIG1        0.1662
     18 N          -0.4693    8.6170    6.7493 N.pl3   1  LIG1       -0.3534
     19 H          -0.8941    8.5246    7.6679 H       1  LIG1        0.1425
     20 H           0.4628    8.2127    6.8144 H       1  LIG1        0.1425
     21 O          -0.9739    9.8756    4.2333 O.3     1  LIG1       -0.5031
     22 H          -0.5708   10.1684    5.0726 H       1  LIG1        0.2923
     23 C          -3.4200    7.0638    1.5645 C.ar    1  LIG1        0.2247
     24 C          -2.6610    8.0080    2.3050 C.ar    1  LIG1        0.0669
     25 C          -2.3775    9.2000    1.6231 C.ar    1  LIG1       -0.0037
     26 C          -2.8377    9.4185    0.3255 C.ar    1  LIG1        0.1437
     27 C          -3.6200    8.4298   -0.2963 C.ar    1  LIG1        0.1197
     28 N          -3.8641    7.2684    0.3429 N.ar    1  LIG1       -0.2085
     29 H          -1.7787    9.9576    2.1190 H       1  LIG1        0.0663
     30 O          -3.7115    5.8660    2.1687 O.3     1  LIG1       -0.4792
     31 C          -4.5023    4.9382    1.4190 C.3     1  LIG1        0.0804
     32 H          -4.6450    4.0806    2.0781 H       1  LIG1        0.0660
     33 H          -5.4655    5.3757    1.1448 H       1  LIG1        0.0660
     34 H          -3.9869    4.6323    0.5047 H       1  LIG1        0.0660
     35 O          -2.5147   10.5452   -0.3735 O.3     1  LIG1       -0.5046
     36 H          -1.9833   11.1198    0.1929 H       1  LIG1        0.2922
     37 C          -4.9308    9.6544   -2.0902 C.ar    1  LIG1        0.1296
     38 C          -5.3868    9.7219   -3.4115 C.ar    1  LIG1       -0.0159
     39 C          -4.1459    8.5564   -1.6797 C.ar    1  LIG1        0.0491
     40 C          -5.0956    8.7045   -4.3193 C.ar    1  LIG1       -0.0167
     41 H          -5.9860   10.5613   -3.7426 H       1  LIG1        0.0655
     42 C          -3.8892    7.5308   -2.5965 C.ar    1  LIG1       -0.0074
     43 C          -4.3527    7.5974   -3.9108 C.ar    1  LIG1        0.1177
     44 H          -3.3062    6.6760   -2.2626 H       1  LIG1        0.0662
     45 H          -5.4484    8.7570   -5.3438 H       1  LIG1        0.0655
     46 O          -5.2397   10.5762   -1.1288 O.3     1  LIG1       -0.4944
     47 C          -5.9155   11.7562   -1.5211 C.3     1  LIG1        0.0788
     48 H          -6.0018   12.3675   -0.6213 H       1  LIG1        0.0660
     49 H          -5.3536   12.3121   -2.2830 H       1  LIG1        0.0660
     50 H          -6.9224   11.5433   -1.9049 H       1  LIG1        0.0660
     51 O          -4.1029    6.6160   -4.8372 O.3     1  LIG1       -0.5067
     52 H          -3.5761    5.9223   -4.4201 H       1  LIG1        0.2921
@<TRIPOS>BOND
     1    45    40    1
     2    51    52    1
     3    51    43    1
     4    40    43   ar
     5    40    38   ar
     6    43    42   ar
     7    41    38    1
     8    38    37   ar
     9    42    44    1
    10    42    39   ar
    11    49    47    1
    12    37    39   ar
    13    37    46    1
    14    50    47    1
    15    39    27    1
    16    47    46    1
    17    47    48    1
    18    35    36    1
    19    35    26    1
    20    27    26   ar
    21    27    28   ar
    22    26    25   ar
    23    28    23   ar
    24    34    31    1
    25    33    31    1
    26    31    32    1
    27    31    30    1
    28    23    30    1
    29    23    24   ar
    30    25    29    1
    31    25    24   ar
    32    24    15    1
    33    15    16   ar
    34    15    14   ar
    35    17    16    1
    36    21    14    1
    37    21    22    1
    38    16    12   ar
    39    14    13   ar
    40    12    13   ar
    41    12     4    1
    42    13    18    1
    43     5     4   ar
    44     5     1   ar
    45     4     3   ar
    46     6     1    1
    47    18    20    1
    48    18    19    1
    49     1     2   ar
    50     3     2   ar
    51     3     9    1
    52     2     8    1
    53     9    10    3
    54     8     7    3
    55    10    11    1
