@<TRIPOS>MOLECULE
mol_data/opt/b3lyp/geoms/mol2/12de12hh-13aa13id.out
 43 46 0 0 0
SMALL
GASTEIGER

@<TRIPOS>ATOM
      1 C           0.3518    1.8139    0.7989 C.ar    1  LIG1        0.1113
      2 C           1.6752    1.7765    0.4734 C.ar    1  LIG1        0.1055
      3 C           2.0461    3.1287    0.0896 C.ar    1  LIG1        0.0908
      4 C           0.8928    3.8886    0.2452 C.ar    1  LIG1        0.1882
      5 O          -0.1306    3.0749    0.6698 O.2     1  LIG1       -0.4572
      6 H          -0.3458    1.0562    1.1175 H       1  LIG1        0.1043
      7 N           3.2053   -0.3046    0.4873 N.1     1  LIG1       -0.1907
      8 C           2.5152    0.6320    0.4819 C.1     1  LIG1        0.1036
      9 C           3.3039    3.5244   -0.4140 C.1     1  LIG1       -0.0645
     10 C           4.3934    3.8307   -0.8503 C.1     1  LIG1       -0.1138
     11 H           5.3483    4.0625   -1.2630 H       1  LIG1        0.1232
     12 C           0.5800    5.2694    0.0857 C.ar    1  LIG1        0.1942
     13 C           1.3217    6.4419    0.0493 C.ar    1  LIG1        0.0958
     14 C           0.3786    7.5141   -0.1052 C.ar    1  LIG1        0.0942
     15 C          -0.8732    6.9385   -0.1418 C.ar    1  LIG1        0.1743
     16 O          -0.7697    5.5858   -0.0338 O.2     1  LIG1       -0.4464
     17 N           2.6721    6.6354    0.2318 N.pl3   1  LIG1       -0.3535
     18 H           3.2794    5.8504    0.0266 H       1  LIG1        0.1425
     19 H           3.0147    7.5133   -0.1348 H       1  LIG1        0.1425
     20 N           0.6485    8.9041   -0.1809 N.pl3   1  LIG1       -0.3535
     21 H           1.2453    9.2227    0.5773 H       1  LIG1        0.1425
     22 H           1.0687    9.1790   -1.0649 H       1  LIG1        0.1425
     23 C          -2.1988    7.4708   -0.2629 C.ar    1  LIG1        0.0845
     24 C          -2.6671    8.7749   -0.3850 C.ar    1  LIG1       -0.0327
     25 C          -4.0771    8.7164   -0.4403 C.ar    1  LIG1       -0.0343
     26 C          -4.4584    7.3801   -0.3506 C.ar    1  LIG1        0.0637
     27 N          -3.3000    6.6352   -0.2594 N.ar    1  LIG1       -0.3506
     28 H          -3.2471    5.6565   -0.0214 H       1  LIG1        0.1660
     29 H          -2.0371    9.6495   -0.4360 H       1  LIG1        0.0640
     30 H          -4.7533    9.5475   -0.5764 H       1  LIG1        0.0639
     31 C          -5.7661    6.7569   -0.3744 C.ar    1  LIG1        0.0671
     32 C          -6.9845    7.1738    0.1405 C.ar    1  LIG1       -0.0064
     33 C          -7.9311    6.1380   -0.1702 C.ar    1  LIG1        0.0725
     34 C          -7.2655    5.1328   -0.8555 C.ar    1  LIG1        0.0199
     35 N          -5.9615    5.5104   -0.9617 N.ar    1  LIG1       -0.3581
     36 H          -5.2713    5.0357   -1.5226 H       1  LIG1        0.1654
     37 H          -7.6319    4.2022   -1.2600 H       1  LIG1        0.0820
     38 C          -7.2735    8.4315    0.9001 C.3     1  LIG1       -0.0364
     39 H          -8.0278    8.2555    1.6726 H       1  LIG1        0.0279
     40 H          -7.6634    9.2211    0.2459 H       1  LIG1        0.0279
     41 H          -6.3690    8.8161    1.3793 H       1  LIG1        0.0279
     42 N         -10.4318    6.1380    0.4835 N.1     1  LIG1       -0.1908
     43 C          -9.3065    6.1282    0.1833 C.1     1  LIG1        0.1009
@<TRIPOS>BOND
     1    36    35    1
     2    11    10    1
     3    37    34    1
     4    22    20    1
     5    35    34   ar
     6    35    31   ar
     7    34    33   ar
     8    10     9    3
     9    30    25    1
    10    25    24   ar
    11    25    26   ar
    12    29    24    1
    13     9     3    1
    14    24    23   ar
    15    31    26    1
    16    31    32   ar
    17    26    27   ar
    18    23    27   ar
    19    23    15    1
    20    27    28    1
    21    20    14    1
    22    20    21    1
    23    33    32   ar
    24    33    43    1
    25    15    14   ar
    26    15    16   ar
    27    19    17    1
    28    14    13   ar
    29    16    12   ar
    30    18    17    1
    31    13    12   ar
    32    13    17    1
    33    12     4    1
    34     3     4   ar
    35     3     2   ar
    36    32    38    1
    37    43    42    3
    38     4     5   ar
    39    40    38    1
    40     2     8    1
    41     2     1   ar
    42     8     7    3
    43     5     1   ar
    44     1     6    1
    45    38    41    1
    46    38    39    1
