@<TRIPOS>MOLECULE
mol_data/opt/b3lyp/geoms/mol2/12df13hh13dl4fd-13ei6ii-6ie12hf.out
 100 107 0 0 0
SMALL
GASTEIGER

@<TRIPOS>ATOM
      1 C           1.1514    2.1770   -0.1256 C.ar    1  LIG1        0.1137
      2 C           2.4936    2.3173    0.1197 C.ar    1  LIG1        0.1315
      3 C           2.7666    3.7335    0.0791 C.ar    1  LIG1        0.1819
      4 C           1.5599    4.3477   -0.1883 C.ar    1  LIG1        0.1952
      5 O           0.5730    3.3806   -0.3119 O.2     1  LIG1       -0.4563
      6 H           0.5116    1.3112   -0.1906 H       1  LIG1        0.1044
      7 N           4.1857    0.4178    0.5656 N.1     1  LIG1       -0.1906
      8 C           3.4253    1.2749    0.3649 C.1     1  LIG1        0.1060
      9 O           3.9717    4.2705    0.2737 O.3     1  LIG1       -0.5023
     10 H           3.8822    5.2634    0.1992 H       1  LIG1        0.2923
     11 C           1.1680    5.7173   -0.3528 C.ar    1  LIG1        0.1090
     12 C           1.9285    6.8843   -0.3247 C.ar    1  LIG1        0.0750
     13 C           1.0684    7.9875   -0.6066 C.ar    1  LIG1        0.0734
     14 C          -0.2169    7.4651   -0.8041 C.ar    1  LIG1        0.0876
     15 N          -0.1291    6.0795   -0.6038 N.ar    1  LIG1       -0.3475
     16 H          -0.8055    5.4233   -0.9645 H       1  LIG1        0.1662
     17 N           3.3317    6.9302   -0.0268 N.pl3   1  LIG1       -0.3548
     18 H           3.8694    7.3407   -0.7891 H       1  LIG1        0.1424
     19 H           3.5254    7.4757    0.8123 H       1  LIG1        0.1424
     20 N           1.4623    9.3160   -0.5367 N.pl3   1  LIG1       -0.3548
     21 H           2.4656    9.4379   -0.5807 H       1  LIG1        0.1424
     22 H           0.9965    9.9533   -1.1730 H       1  LIG1        0.1424
     23 C          -1.4988    8.0757   -1.0077 C.ar    1  LIG1        0.0865
     24 C          -1.8881    9.2741   -1.6305 C.ar    1  LIG1        0.1206
     25 C          -3.3195    9.3819   -1.5063 C.ar    1  LIG1        0.1633
     26 C          -3.7752    8.2667   -0.8297 C.ar    1  LIG1        0.0941
     27 N          -2.6538    7.4682   -0.5778 N.ar    1  LIG1       -0.3489
     28 H          -2.6515    6.7545    0.1360 H       1  LIG1        0.1661
     29 N          -0.2775   10.8180   -2.9209 N.1     1  LIG1       -0.1907
     30 C          -1.0286   10.1266   -2.3529 C.1     1  LIG1        0.1050
     31 O          -4.1185   10.3119   -2.0825 O.3     1  LIG1       -0.4917
     32 C          -3.8690   11.6722   -1.7056 C.3     1  LIG1        0.0789
     33 H          -4.6084   12.2706   -2.2400 H       1  LIG1        0.0660
     34 H          -4.0003   11.7996   -0.6264 H       1  LIG1        0.0660
     35 H          -2.8656   11.9950   -2.0007 H       1  LIG1        0.0660
     36 C          -6.1129    8.6610    0.0508 C.ar    1  LIG1        0.1268
     37 C          -7.3729    8.1751    0.3853 C.ar    1  LIG1       -0.0091
     38 C          -5.1137    7.8052   -0.4756 C.ar    1  LIG1        0.0446
     39 C          -7.7262    6.8195    0.2706 C.ar    1  LIG1        0.0203
     40 H          -8.1063    8.8724    0.7734 H       1  LIG1        0.0661
     41 C          -5.4571    6.4585   -0.6019 C.ar    1  LIG1       -0.0310
     42 C          -6.7154    5.9517   -0.2389 C.ar    1  LIG1        0.0617
     43 H          -4.7303    5.7689   -1.0185 H       1  LIG1        0.0638
     44 O          -5.7951    9.9670    0.2394 O.3     1  LIG1       -0.5061
     45 H          -6.5584   10.4262    0.6159 H       1  LIG1        0.2922
     46 N          -7.0676    3.4056   -0.5843 N.1     1  LIG1       -0.1908
     47 C          -6.9099    4.5495   -0.4201 C.1     1  LIG1        0.0998
     48 C          -9.0640    6.3912    0.6667 C.ar    1  LIG1        0.0641
     49 C         -10.0715    7.0671    1.3908 C.ar    1  LIG1        0.0534
     50 C         -11.2058    6.2016    1.4907 C.ar    1  LIG1       -0.0092
     51 C         -10.8735    5.0214    0.8370 C.ar    1  LIG1        0.0528
     52 N          -9.5900    5.1578    0.3614 N.ar    1  LIG1       -0.3529
     53 H          -9.1240    4.4540   -0.1919 H       1  LIG1        0.1659
     54 C         -10.0345    8.3498    1.9934 C.1     1  LIG1       -0.0673
     55 C         -10.0803    9.4333    2.5366 C.1     1  LIG1       -0.1138
     56 H         -10.1172   10.3782    3.0270 H       1  LIG1        0.1232
     57 C         -12.4769    6.5225    2.2162 C.3     1  LIG1       -0.0365
     58 H         -13.0800    5.6254    2.3736 H       1  LIG1        0.0279
     59 H         -13.0885    7.2461    1.6637 H       1  LIG1        0.0279
     60 H         -12.2650    6.9694    3.1927 H       1  LIG1        0.0279
     61 C         -11.1926    2.5039    0.9487 C.ar    1  LIG1        0.0480
     62 C         -11.6619    3.7978    0.6163 C.ar    1  LIG1        0.0199
     63 C         -12.9535    3.8943    0.0856 C.ar    1  LIG1       -0.0460
     64 C         -13.7438    2.7661   -0.1372 C.ar    1  LIG1       -0.0238
     65 C         -13.1679    1.5210    0.1931 C.ar    1  LIG1        0.0759
     66 N         -11.9413    1.4174    0.7317 N.ar    1  LIG1       -0.2509
     67 H         -13.3456    4.8761   -0.1660 H       1  LIG1        0.0628
     68 C          -9.8454    2.2587    1.5849 C.3     1  LIG1       -0.0217
     69 H          -9.6000    3.0291    2.3217 H       1  LIG1        0.0293
     70 H          -9.0370    2.2446    0.8438 H       1  LIG1        0.0293
     71 H          -9.8587    1.2820    2.0710 H       1  LIG1        0.0293
     72 C         -15.1423    2.9161   -0.6897 C.3     1  LIG1       -0.0377
     73 H         -15.8302    2.1898   -0.2498 H       1  LIG1        0.0278
     74 H         -15.1723    2.7680   -1.7753 H       1  LIG1        0.0278
     75 H         -15.5277    3.9200   -0.4894 H       1  LIG1        0.0278
     76 C         -14.1282   -0.7065    1.0009 C.ar    1  LIG1        0.0483
     77 C         -13.8837    0.2311   -0.0372 C.ar    1  LIG1        0.0228
     78 C         -14.2904   -0.1247   -1.3177 C.ar    1  LIG1       -0.0333
     79 C         -14.9361   -1.3471   -1.5677 C.ar    1  LIG1        0.0543
     80 C         -15.2230   -2.1752   -0.4483 C.ar    1  LIG1        0.1235
     81 N         -14.7889   -1.8430    0.7853 N.ar    1  LIG1       -0.2468
     82 H         -14.0680    0.5245   -2.1586 H       1  LIG1        0.0637
     83 C         -13.6855   -0.4644    2.4215 C.3     1  LIG1       -0.0217
     84 H         -14.0189    0.5144    2.7832 H       1  LIG1        0.0293
     85 H         -12.5942   -0.4694    2.4897 H       1  LIG1        0.0293
     86 H         -14.0982   -1.2465    3.0594 H       1  LIG1        0.0293
     87 C         -15.1755   -1.7295   -2.9189 C.1     1  LIG1       -0.0674
     88 C         -15.3517   -2.0231   -4.0825 C.1     1  LIG1       -0.1138
     89 H         -15.4512   -2.3051   -5.1053 H       1  LIG1        0.1232
     90 C         -15.9879   -3.4080   -0.5318 C.ar    1  LIG1        0.1783
     91 C         -17.0766   -3.8366   -1.2794 C.ar    1  LIG1        0.1146
     92 C         -17.4265   -5.1220   -0.7493 C.ar    1  LIG1        0.1763
     93 C         -16.5614   -5.3919    0.2675 C.ar    1  LIG1        0.1359
     94 O         -15.6881   -4.3647    0.4204 O.2     1  LIG1       -0.4557
     95 H         -16.4389   -6.2356    0.9290 H       1  LIG1        0.1068
     96 N         -17.8345   -3.1974   -2.2459 N.pl3   1  LIG1       -0.3522
     97 H         -17.3080   -2.6333   -2.9033 H       1  LIG1        0.1425
     98 H         -18.4786   -3.8279   -2.7064 H       1  LIG1        0.1425
     99 O         -18.4693   -5.8347   -1.2736 O.3     1  LIG1       -0.5024
    100 H         -18.6093   -6.6338   -0.7508 H       1  LIG1        0.2923
@<TRIPOS>BOND
     1    89    88    1
     2    88    87    3
     3    29    30    3
     4    87    79    1
     5    97    96    1
     6    98    96    1
     7    30    24    1
     8    96    91    1
     9    33    32    1
    10    82    78    1
    11    31    32    1
    12    31    25    1
    13    35    32    1
    14    74    72    1
    15    32    34    1
    16    24    25   ar
    17    24    23   ar
    18    79    78   ar
    19    79    80   ar
    20    25    26   ar
    21    78    77   ar
    22    91    92   ar
    23    91    90   ar
    24    99   100    1
    25    99    92    1
    26    22    20    1
    27    43    41    1
    28    23    14    1
    29    23    27   ar
    30    16    15    1
    31    26    27   ar
    32    26    38    1
    33    14    13   ar
    34    14    15   ar
    35    18    17    1
    36    92    93   ar
    37    72    75    1
    38    72    73    1
    39    72    64    1
    40    13    20    1
    41    13    12   ar
    42    15    11   ar
    43    41    38   ar
    44    41    42   ar
    45    46    47    3
    46    21    20    1
    47    27    28    1
    48    90    80    1
    49    90    94   ar
    50    38    36   ar
    51    80    81   ar
    52    47    42    1
    53    11    12   ar
    54    11     4    1
    55    12    17    1
    56     5     4   ar
    57     5     1   ar
    58    42    39   ar
    59    53    52    1
    60     6     1    1
    61     4     3   ar
    62    67    63    1
    63    64    63   ar
    64    64    65   ar
    65     1     2   ar
    66    77    65    1
    67    77    76   ar
    68    17    19    1
    69    36    44    1
    70    36    37   ar
    71     3     2   ar
    72     3     9    1
    73    63    62   ar
    74     2     8    1
    75    65    66   ar
    76    10     9    1
    77    44    45    1
    78    93    94   ar
    79    93    95    1
    80    39    37   ar
    81    39    48    1
    82    52    48   ar
    83    52    51   ar
    84     8     7    3
    85    37    40    1
    86    62    51    1
    87    62    61   ar
    88    48    49   ar
    89    66    61   ar
    90    81    76   ar
    91    51    50   ar
    92    70    68    1
    93    61    68    1
    94    76    83    1
    95    49    50   ar
    96    49    54    1
    97    50    57    1
    98    68    71    1
    99    68    69    1
   100    59    57    1
   101    54    55    3
   102    57    58    1
   103    57    60    1
   104    83    85    1
   105    83    84    1
   106    83    86    1
   107    55    56    1
