@<TRIPOS>MOLECULE
mol_data/opt/b3lyp/geoms/mol2/12df4ii-12id-4da.out
 49 52 0 0 0
SMALL
GASTEIGER

@<TRIPOS>ATOM
      1 C           1.2126    1.8393    1.3463 C.ar    1  LIG1        0.1136
      2 C           1.5745    1.6270    0.0406 C.ar    1  LIG1        0.1314
      3 C           1.4571    2.9096   -0.6039 C.ar    1  LIG1        0.1804
      4 C           1.0605    3.8111    0.3506 C.ar    1  LIG1        0.1775
      5 O           0.8913    3.1298    1.5471 O.2     1  LIG1       -0.4578
      6 H           1.1498    1.1794    2.1972 H       1  LIG1        0.1044
      7 N           2.2708   -0.6130   -1.0395 N.1     1  LIG1       -0.1906
      8 C           1.9580    0.3964   -0.5532 C.1     1  LIG1        0.1060
      9 O           1.6770    3.0882   -1.9291 O.3     1  LIG1       -0.5024
     10 H           1.2708    3.9217   -2.2046 H       1  LIG1        0.2923
     11 C           1.5632    6.1958   -0.2756 C.ar    1  LIG1       -0.0390
     12 C           1.1198    7.5210   -0.3001 C.ar    1  LIG1       -0.0472
     13 C           0.7126    5.2330    0.3132 C.ar    1  LIG1        0.0241
     14 C          -0.0967    7.9308    0.2652 C.ar    1  LIG1        0.0208
     15 H           1.7472    8.2678   -0.7769 H       1  LIG1        0.0627
     16 C          -0.4993    5.6466    0.8939 C.ar    1  LIG1       -0.0471
     17 C          -0.9266    6.9723    0.8963 C.ar    1  LIG1       -0.0391
     18 H          -1.1243    4.8946    1.3662 H       1  LIG1        0.0627
     19 C           2.9361    5.8554   -0.8108 C.3     1  LIG1       -0.0390
     20 H           3.4959    6.7658   -1.0373 H       1  LIG1        0.0278
     21 H           2.9124    5.2499   -1.7229 H       1  LIG1        0.0278
     22 H           3.5073    5.2780   -0.0765 H       1  LIG1        0.0278
     23 C          -2.2264    7.3397    1.5724 C.3     1  LIG1       -0.0390
     24 H          -2.5870    6.5096    2.1847 H       1  LIG1        0.0278
     25 H          -3.0058    7.5896    0.8461 H       1  LIG1        0.0278
     26 H          -2.1060    8.2133    2.2206 H       1  LIG1        0.0278
     27 C          -0.4490    9.3539    0.2042 C.ar    1  LIG1        0.1401
     28 C           0.2616   10.5050    0.4294 C.ar    1  LIG1        0.0133
     29 C          -0.6639   11.5859    0.1895 C.ar    1  LIG1        0.1009
     30 C          -1.8768   11.0222   -0.1504 C.ar    1  LIG1        0.1545
     31 O          -1.7442    9.6697   -0.1512 O.2     1  LIG1       -0.4532
     32 C           1.6862   10.6653    0.8625 C.3     1  LIG1       -0.0349
     33 H           1.7674   11.4311    1.6396 H       1  LIG1        0.0279
     34 H           2.3259   10.9839    0.0312 H       1  LIG1        0.0279
     35 H           2.0854    9.7289    1.2575 H       1  LIG1        0.0279
     36 N           0.0086   14.0797    0.1944 N.1     1  LIG1       -0.1907
     37 C          -0.3240   12.9646    0.2051 C.1     1  LIG1        0.1032
     38 C          -3.8068   12.6323    0.0995 C.ar    1  LIG1        0.0624
     39 C          -5.0337   13.1274   -0.3728 C.ar    1  LIG1       -0.0437
     40 C          -3.1743   11.5539   -0.5666 C.ar    1  LIG1        0.0359
     41 C          -5.6490   12.5487   -1.4774 C.ar    1  LIG1       -0.0605
     42 H          -5.5005   13.9548    0.1502 H       1  LIG1        0.0631
     43 C          -3.8280   10.9697   -1.6633 C.ar    1  LIG1       -0.0498
     44 C          -5.0500   11.4592   -2.1143 C.ar    1  LIG1       -0.0610
     45 H          -3.3545   10.1348   -2.1679 H       1  LIG1        0.0625
     46 H          -6.5970   12.9390   -1.8331 H       1  LIG1        0.0618
     47 N          -2.9057   13.6342    2.3186 N.1     1  LIG1       -0.1908
     48 C          -3.2761   13.1874    1.3105 C.1     1  LIG1        0.0999
     49 H          -5.5306   10.9966   -2.9706 H       1  LIG1        0.0618
@<TRIPOS>BOND
     1    49    44    1
     2    10     9    1
     3    45    43    1
     4    44    43   ar
     5    44    41   ar
     6     9     3    1
     7    46    41    1
     8    21    19    1
     9    43    40   ar
    10    41    39   ar
    11     7     8    3
    12    20    19    1
    13    19    11    1
    14    19    22    1
    15    15    12    1
    16     3     2   ar
    17     3     4   ar
    18    40    30    1
    19    40    38   ar
    20     8     2    1
    21    39    38   ar
    22    39    42    1
    23    12    11   ar
    24    12    14   ar
    25    11    13   ar
    26    31    30   ar
    27    31    27   ar
    28    30    29   ar
    29    34    32    1
    30     2     1   ar
    31    38    48    1
    32    29    37    1
    33    29    28   ar
    34    36    37    3
    35    27    14    1
    36    27    28   ar
    37    14    17   ar
    38    13     4    1
    39    13    16   ar
    40     4     5   ar
    41    28    32    1
    42    25    23    1
    43    32    35    1
    44    32    33    1
    45    16    17   ar
    46    16    18    1
    47    17    23    1
    48    48    47    3
    49     1     5   ar
    50     1     6    1
    51    23    24    1
    52    23    26    1
