@<TRIPOS>MOLECULE
mol_data/opt/b3lyp/geoms/mol2/12df4ei4if-13al.out
 52 55 0 0 0
SMALL
GASTEIGER

@<TRIPOS>ATOM
      1 C           0.3433    1.6249    0.7627 C.ar    1  LIG1        0.1136
      2 C           1.6521    1.5328    0.3711 C.ar    1  LIG1        0.1314
      3 C           2.0300    2.8545   -0.0665 C.ar    1  LIG1        0.1804
      4 C           0.9162    3.6589    0.0815 C.ar    1  LIG1        0.1785
      5 O          -0.1117    2.8767    0.5977 O.2     1  LIG1       -0.4578
      6 H          -0.3526    0.8964    1.1485 H       1  LIG1        0.1044
      7 N           3.1391   -0.5782    0.4047 N.1     1  LIG1       -0.1906
      8 C           2.4721    0.3748    0.3902 C.1     1  LIG1        0.1060
      9 O           3.2849    3.1311   -0.4548 O.3     1  LIG1       -0.5024
     10 H           3.2884    3.9245   -1.0235 H       1  LIG1        0.2923
     11 C           1.2568    5.9307   -0.9892 C.ar    1  LIG1        0.0360
     12 C           0.9383    7.3021   -1.0011 C.ar    1  LIG1       -0.0377
     13 C           0.6186    5.0795   -0.0517 C.ar    1  LIG1        0.0366
     14 C          -0.0120    7.8533   -0.1456 C.ar    1  LIG1       -0.0134
     15 H           1.4411    7.9422   -1.7189 H       1  LIG1        0.0636
     16 C          -0.3512    5.6494    0.7936 C.ar    1  LIG1       -0.0463
     17 C          -0.6844    7.0021    0.7639 C.ar    1  LIG1       -0.0420
     18 H          -0.8541    5.0015    1.5031 H       1  LIG1        0.0628
     19 C           2.1711    5.4469   -1.9732 C.1     1  LIG1       -0.0689
     20 C           2.9471    5.0663   -2.8251 C.1     1  LIG1       -0.1139
     21 H           3.5930    4.7256   -3.6022 H       1  LIG1        0.1232
     22 C          -1.7474    7.5393    1.6911 C.3     1  LIG1       -0.0391
     23 H          -2.1363    6.7528    2.3423 H       1  LIG1        0.0278
     24 H          -2.5859    7.9619    1.1271 H       1  LIG1        0.0278
     25 H          -1.3610    8.3463    2.3221 H       1  LIG1        0.0278
     26 C           0.3271   10.2573    0.6066 C.ar    1  LIG1       -0.0419
     27 C          -0.0137   11.6027    0.4729 C.ar    1  LIG1       -0.0456
     28 C          -0.3177    9.3164   -0.2228 C.ar    1  LIG1       -0.0112
     29 C          -0.9659   12.0890   -0.4440 C.ar    1  LIG1        0.0401
     30 H           0.4898   12.3210    1.1117 H       1  LIG1        0.0628
     31 C          -1.2616    9.7711   -1.1489 C.ar    1  LIG1       -0.0116
     32 C          -1.5840   11.1212   -1.2650 C.ar    1  LIG1        0.1265
     33 H          -1.7577    9.0512   -1.7978 H       1  LIG1        0.0660
     34 C           1.3786    9.8355    1.6080 C.3     1  LIG1       -0.0391
     35 H           1.7604   10.6989    2.1586 H       1  LIG1        0.0278
     36 H           2.2283    9.3469    1.1186 H       1  LIG1        0.0278
     37 H           0.9858    9.1205    2.3397 H       1  LIG1        0.0278
     38 O          -2.5196   11.5385   -2.1901 O.3     1  LIG1       -0.5061
     39 H          -2.8477   10.7714   -2.6760 H       1  LIG1        0.2922
     40 C          -1.2596   13.5177   -0.5050 C.ar    1  LIG1        0.0536
     41 C          -0.7384   14.5685    0.2578 C.ar    1  LIG1        0.0055
     42 C          -1.3500   15.7620   -0.1960 C.ar    1  LIG1        0.1379
     43 C          -2.2271   15.4320   -1.2178 C.ar    1  LIG1        0.0444
     44 N          -2.1565   14.0745   -1.3868 N.ar    1  LIG1       -0.3575
     45 H          -2.6761   13.5264   -2.0539 H       1  LIG1        0.1654
     46 H          -2.8735   16.0577   -1.8119 H       1  LIG1        0.0844
     47 H          -0.0077   14.4785    1.0460 H       1  LIG1        0.0675
     48 O          -1.1731   17.0459    0.2326 O.3     1  LIG1       -0.4936
     49 C          -0.2434   17.2212    1.2864 C.3     1  LIG1        0.0789
     50 H          -0.2237   18.2899    1.5071 H       1  LIG1        0.0660
     51 H          -0.5461   16.6726    2.1889 H       1  LIG1        0.0660
     52 H           0.7646   16.8948    0.9960 H       1  LIG1        0.0660
@<TRIPOS>BOND
     1    21    20    1
     2    20    19    3
     3    39    38    1
     4    38    32    1
     5    45    44    1
     6    19    11    1
     7    46    43    1
     8    33    31    1
     9    15    12    1
    10    44    43   ar
    11    44    40   ar
    12    32    31   ar
    13    32    29   ar
    14    43    42   ar
    15    31    28   ar
    16    10     9    1
    17    12    11   ar
    18    12    14   ar
    19    11    13   ar
    20    40    29    1
    21    40    41   ar
    22     9     3    1
    23    29    27   ar
    24    28    14    1
    25    28    26   ar
    26    42    48    1
    27    42    41   ar
    28    14    17   ar
    29     3     4   ar
    30     3     2   ar
    31    13     4    1
    32    13    16   ar
    33     4     5   ar
    34    48    49    1
    35    41    47    1
    36     2     8    1
    37     2     1   ar
    38     8     7    3
    39    27    26   ar
    40    27    30    1
    41     5     1   ar
    42    26    34    1
    43     1     6    1
    44    17    16   ar
    45    17    22    1
    46    16    18    1
    47    52    49    1
    48    36    34    1
    49    24    22    1
    50    49    50    1
    51    49    51    1
    52    34    35    1
    53    34    37    1
    54    22    25    1
    55    22    23    1
