@<TRIPOS>MOLECULE
mol_data/opt/b3lyp/geoms/mol2/12dg12dg12dg12dg.out
 38 41 0 0 0
SMALL
GASTEIGER

@<TRIPOS>ATOM
      1 C           0.5974    2.0955    1.5748 C.ar    1  LIG1        0.1112
      2 C           1.6609    1.8386    0.7511 C.ar    1  LIG1        0.1033
      3 C           1.9172    3.0559    0.0136 C.ar    1  LIG1        0.0712
      4 C           0.9729    3.9582    0.4644 C.ar    1  LIG1        0.1854
      5 O           0.1774    3.3609    1.4227 O.2     1  LIG1       -0.4573
      6 H           0.0739    1.4895    2.2977 H       1  LIG1        0.1043
      7 N           2.9212   -0.4094    0.5636 N.1     1  LIG1       -0.1907
      8 C           2.3589    0.6051    0.6468 C.1     1  LIG1        0.1034
      9 S           3.1159    3.1239   -1.2778 S.3     1  LIG1       -0.1376
     10 H           3.5188    4.3980   -1.0937 H       1  LIG1        0.1073
     11 C           0.6039    5.3095    0.1378 C.ar    1  LIG1        0.1902
     12 C           1.2942    6.4324   -0.2898 C.ar    1  LIG1        0.1144
     13 C           0.3270    7.4886   -0.4594 C.ar    1  LIG1        0.0719
     14 C          -0.8840    6.9374   -0.0927 C.ar    1  LIG1        0.1864
     15 O          -0.7066    5.6204    0.2723 O.2     1  LIG1       -0.4461
     16 N           3.8540    6.6170   -0.5595 N.1     1  LIG1       -0.1907
     17 C           2.6967    6.5500   -0.4441 C.1     1  LIG1        0.1042
     18 S           0.7610    9.0480   -1.1619 S.3     1  LIG1       -0.1376
     19 H          -0.0077    9.8295   -0.3746 H       1  LIG1        0.1073
     20 C          -2.2464    7.3950   -0.0534 C.ar    1  LIG1        0.1902
     21 C          -2.8561    8.6140    0.1941 C.ar    1  LIG1        0.1144
     22 C          -4.2772    8.4141    0.0552 C.ar    1  LIG1        0.0719
     23 C          -4.4315    7.0755   -0.2376 C.ar    1  LIG1        0.1864
     24 O          -3.2009    6.4631   -0.2946 O.2     1  LIG1       -0.4461
     25 N          -1.6465   10.7688    0.9377 N.1     1  LIG1       -0.1907
     26 C          -2.2107    9.8073    0.5998 C.1     1  LIG1        0.1042
     27 S          -5.4371    9.7465    0.1048 S.3     1  LIG1       -0.1376
     28 H          -6.3530    9.1677    0.9097 H       1  LIG1        0.1073
     29 C          -5.5548    6.2205   -0.5199 C.ar    1  LIG1        0.1892
     30 C          -6.8631    6.1709   -0.0677 C.ar    1  LIG1        0.1136
     31 C          -7.4991    5.0781   -0.7657 C.ar    1  LIG1        0.0607
     32 C          -6.5316    4.5432   -1.5617 C.ar    1  LIG1        0.1071
     33 O          -5.3556    5.2262   -1.4200 O.2     1  LIG1       -0.4573
     34 H          -6.5166    3.7161   -2.2527 H       1  LIG1        0.1041
     35 N          -7.8846    7.6256    1.8026 N.1     1  LIG1       -0.1907
     36 C          -7.4322    6.9677    0.9539 C.1     1  LIG1        0.1042
     37 S          -9.1870    4.6110   -0.5345 S.3     1  LIG1       -0.1383
     38 H          -9.1488    3.5525   -1.3671 H       1  LIG1        0.1072
@<TRIPOS>BOND
     1    34    32    1
     2    32    33   ar
     3    32    31   ar
     4    33    29   ar
     5    38    37    1
     6     9    10    1
     7     9     3    1
     8    18    13    1
     9    18    19    1
    10    31    37    1
    11    31    30   ar
    12    16    17    3
    13    29    23    1
    14    29    30   ar
    15    13    12   ar
    16    13    14   ar
    17    17    12    1
    18    24    23   ar
    19    24    20   ar
    20    12    11   ar
    21    23    22   ar
    22    14    20    1
    23    14    15   ar
    24    30    36    1
    25    20    21   ar
    26     3     4   ar
    27     3     2   ar
    28    22    27    1
    29    22    21   ar
    30    27    28    1
    31    11    15   ar
    32    11     4    1
    33    21    26    1
    34     4     5   ar
    35     7     8    3
    36    26    25    3
    37     8     2    1
    38     2     1   ar
    39    36    35    3
    40     5     1   ar
    41     1     6    1
