@<TRIPOS>MOLECULE
mol_data/opt/b3lyp/geoms/mol2/12dg12dg-12dg-12dg.out
 38 41 0 0 0
SMALL
GASTEIGER

@<TRIPOS>ATOM
      1 C           0.5942    2.0834    1.5711 C.ar    1  LIG1        0.1112
      2 C           1.6575    1.8312    0.7457 C.ar    1  LIG1        0.1033
      3 C           1.9146    3.0531    0.0162 C.ar    1  LIG1        0.0712
      4 C           0.9710    3.9531    0.4729 C.ar    1  LIG1        0.1854
      5 O           0.1751    3.3501    1.4273 O.2     1  LIG1       -0.4573
      6 H           0.0703    1.4731    2.2900 H       1  LIG1        0.1043
      7 N           2.9161   -0.4165    0.5432 N.1     1  LIG1       -0.1907
      8 C           2.3546    0.5978    0.6332 C.1     1  LIG1        0.1034
      9 S           3.1131    3.1293   -1.2750 S.3     1  LIG1       -0.1376
     10 H           3.5185    4.4010   -1.0807 H       1  LIG1        0.1073
     11 C           0.6031    5.3069    0.1552 C.ar    1  LIG1        0.1902
     12 C           1.2945    6.4321   -0.2642 C.ar    1  LIG1        0.1144
     13 C           0.3283    7.4902   -0.4270 C.ar    1  LIG1        0.0719
     14 C          -0.8833    6.9375   -0.0648 C.ar    1  LIG1        0.1864
     15 O          -0.7072    5.6179    0.2912 O.2     1  LIG1       -0.4461
     16 N           3.8547    6.6160   -0.5314 N.1     1  LIG1       -0.1907
     17 C           2.6973    6.5493   -0.4171 C.1     1  LIG1        0.1042
     18 S           0.7642    9.0540   -1.1183 S.3     1  LIG1       -0.1376
     19 H          -0.0050    9.8307   -0.3269 H       1  LIG1        0.1073
     20 C          -2.2455    7.3957   -0.0236 C.ar    1  LIG1        0.1902
     21 C          -2.8548    8.6134    0.2312 C.ar    1  LIG1        0.1144
     22 C          -4.2759    8.4151    0.0902 C.ar    1  LIG1        0.0719
     23 C          -4.4306    7.0785   -0.2111 C.ar    1  LIG1        0.1864
     24 O          -3.2003    6.4659   -0.2712 O.2     1  LIG1       -0.4461
     25 N          -1.6446   10.7629    0.9893 N.1     1  LIG1       -0.1907
     26 C          -2.2090    9.8038    0.6449 C.1     1  LIG1        0.1042
     27 S          -5.4356    9.7474    0.1472 S.3     1  LIG1       -0.1376
     28 H          -6.3513    9.1644    0.9493 H       1  LIG1        0.1073
     29 C          -5.5543    6.2260   -0.4997 C.ar    1  LIG1        0.1892
     30 C          -6.8627    6.1740   -0.0481 C.ar    1  LIG1        0.1136
     31 C          -7.4991    5.0862   -0.7534 C.ar    1  LIG1        0.0607
     32 C          -6.5318    4.5563   -1.5530 C.ar    1  LIG1        0.1071
     33 O          -5.3554    5.2376   -1.4063 O.2     1  LIG1       -0.4573
     34 H          -6.5171    3.7339   -2.2495 H       1  LIG1        0.1041
     35 N          -7.8829    7.6169    1.8321 N.1     1  LIG1       -0.1907
     36 C          -7.4313    6.9643    0.9790 C.1     1  LIG1        0.1042
     37 S          -9.1874    4.6187   -0.5258 S.3     1  LIG1       -0.1383
     38 H          -9.1479    3.5619   -1.3607 H       1  LIG1        0.1072
@<TRIPOS>BOND
     1    34    32    1
     2    32    33   ar
     3    32    31   ar
     4    33    29   ar
     5    38    37    1
     6     9    10    1
     7     9     3    1
     8    18    13    1
     9    18    19    1
    10    31    37    1
    11    31    30   ar
    12    16    17    3
    13    29    23    1
    14    29    30   ar
    15    13    12   ar
    16    13    14   ar
    17    17    12    1
    18    24    23   ar
    19    24    20   ar
    20    12    11   ar
    21    23    22   ar
    22    14    20    1
    23    14    15   ar
    24    30    36    1
    25    20    21   ar
    26     3     4   ar
    27     3     2   ar
    28    22    27    1
    29    22    21   ar
    30    27    28    1
    31    11    15   ar
    32    11     4    1
    33    21    26    1
    34     4     5   ar
    35     7     8    3
    36     8     2    1
    37    26    25    3
    38     2     1   ar
    39    36    35    3
    40     5     1   ar
    41     1     6    1
