@<TRIPOS>MOLECULE
mol_data/opt/b3lyp/geoms/mol2/12dg12dg12dg.out
 29 31 0 0 0
SMALL
GASTEIGER

@<TRIPOS>ATOM
      1 C           0.3148    1.7411    0.2795 C.ar    1  LIG1        0.1112
      2 C           1.5807    1.7740   -0.2418 C.ar    1  LIG1        0.1033
      3 C           1.9420    3.1690   -0.3640 C.ar    1  LIG1        0.0712
      4 C           0.8478    3.8692    0.1050 C.ar    1  LIG1        0.1854
      5 O          -0.1366    2.9858    0.5018 O.2     1  LIG1       -0.4573
      6 H          -0.3442    0.9277    0.5403 H       1  LIG1        0.1043
      7 N           3.0025   -0.2851   -0.8866 N.1     1  LIG1       -0.1907
      8 C           2.3678    0.6450   -0.5961 C.1     1  LIG1        0.1034
      9 S           3.4383    3.6830   -1.1444 S.3     1  LIG1       -0.1376
     10 H           3.7132    4.7376   -0.3492 H       1  LIG1        0.1073
     11 C           0.4927    5.2584    0.2226 C.ar    1  LIG1        0.1902
     12 C           1.1972    6.4254    0.4669 C.ar    1  LIG1        0.1144
     13 C           0.2468    7.5098    0.4404 C.ar    1  LIG1        0.0719
     14 C          -0.9747    6.9193    0.1966 C.ar    1  LIG1        0.1864
     15 O          -0.8180    5.5597    0.0530 O.2     1  LIG1       -0.4461
     16 N           3.7034    6.5708    1.0652 N.1     1  LIG1       -0.1907
     17 C           2.5721    6.5236    0.7916 C.1     1  LIG1        0.1042
     18 S           0.6767    9.1690    0.8746 S.3     1  LIG1       -0.1376
     19 H           0.0280    9.7956   -0.1295 H       1  LIG1        0.1073
     20 C          -2.3299    7.3944    0.0994 C.ar    1  LIG1        0.1892
     21 C          -2.9079    8.5581   -0.3807 C.ar    1  LIG1        0.1136
     22 C          -4.3309    8.4282   -0.1690 C.ar    1  LIG1        0.0607
     23 C          -4.5043    7.2015    0.3964 C.ar    1  LIG1        0.1071
     24 O          -3.3021    6.5701    0.5616 O.2     1  LIG1       -0.4573
     25 H          -5.3735    6.6541    0.7229 H       1  LIG1        0.1041
     26 N          -1.6845   10.4803   -1.5914 N.1     1  LIG1       -0.1907
     27 C          -2.2440    9.6183   -1.0420 C.1     1  LIG1        0.1042
     28 S          -5.5101    9.6669   -0.6130 S.3     1  LIG1       -0.1383
     29 H          -6.5963    8.9470   -0.2706 H       1  LIG1        0.1072
@<TRIPOS>BOND
     1    26    27    3
     2     9     3    1
     3     9    10    1
     4    27    21    1
     5     7     8    3
     6    28    29    1
     7    28    22    1
     8     8     2    1
     9    21    22   ar
    10    21    20   ar
    11     3     2   ar
    12     3     4   ar
    13     2     1   ar
    14    22    23   ar
    15    19    18    1
    16    15    14   ar
    17    15    11   ar
    18    20    14    1
    19    20    24   ar
    20     4    11    1
    21     4     5   ar
    22    14    13   ar
    23    11    12   ar
    24     1     5   ar
    25     1     6    1
    26    23    24   ar
    27    23    25    1
    28    13    12   ar
    29    13    18    1
    30    12    17    1
    31    17    16    3
