@<TRIPOS>MOLECULE
mol_data/opt/b3lyp/geoms/mol2/12dg12dg-12dg-12dg-.out
 38 41 0 0 0
SMALL
GASTEIGER

@<TRIPOS>ATOM
      1 C           0.6000    2.0871    1.5759 C.ar    1  LIG1        0.1112
      2 C           1.6598    1.8331    0.7466 C.ar    1  LIG1        0.1033
      3 C           1.9134    3.0533    0.0130 C.ar    1  LIG1        0.0712
      4 C           0.9715    3.9541    0.4715 C.ar    1  LIG1        0.1854
      5 O           0.1800    3.3534    1.4308 O.2     1  LIG1       -0.4573
      6 H           0.0793    1.4785    2.2987 H       1  LIG1        0.1043
      7 N           2.9179   -0.4149    0.5448 N.1     1  LIG1       -0.1907
      8 C           2.3567    0.5997    0.6343 C.1     1  LIG1        0.1034
      9 S           3.1049    3.1274   -1.2851 S.3     1  LIG1       -0.1376
     10 H           3.5190    4.3960   -1.0882 H       1  LIG1        0.1073
     11 C           0.6027    5.3071    0.1518 C.ar    1  LIG1        0.1902
     12 C           1.2936    6.4312   -0.2714 C.ar    1  LIG1        0.1144
     13 C           0.3274    7.4891   -0.4351 C.ar    1  LIG1        0.0719
     14 C          -0.8838    6.9374   -0.0696 C.ar    1  LIG1        0.1864
     15 O          -0.7074    5.6186    0.2893 O.2     1  LIG1       -0.4461
     16 N           3.8536    6.6126   -0.5415 N.1     1  LIG1       -0.1907
     17 C           2.6963    6.5473   -0.4260 C.1     1  LIG1        0.1042
     18 S           0.7625    9.0509   -1.1308 S.3     1  LIG1       -0.1376
     19 H          -0.0067    9.8296   -0.3413 H       1  LIG1        0.1073
     20 C          -2.2458    7.3959   -0.0270 C.ar    1  LIG1        0.1902
     21 C          -2.8544    8.6144    0.2258 C.ar    1  LIG1        0.1144
     22 C          -4.2759    8.4161    0.0875 C.ar    1  LIG1        0.0719
     23 C          -4.4314    7.0788   -0.2104 C.ar    1  LIG1        0.1864
     24 O          -3.2012    6.4658   -0.2709 O.2     1  LIG1       -0.4461
     25 N          -1.6425   10.7653    0.9772 N.1     1  LIG1       -0.1907
     26 C          -2.2076    9.8055    0.6359 C.1     1  LIG1        0.1042
     27 S          -5.4336    9.7499    0.1444 S.3     1  LIG1       -0.1376
     28 H          -6.3542    9.1652    0.9397 H       1  LIG1        0.1073
     29 C          -5.5550    6.2252   -0.4957 C.ar    1  LIG1        0.1892
     30 C          -6.8637    6.1744   -0.0447 C.ar    1  LIG1        0.1136
     31 C          -7.4994    5.0839   -0.7466 C.ar    1  LIG1        0.0607
     32 C          -6.5315    4.5514   -1.5436 C.ar    1  LIG1        0.1071
     33 O          -5.3555    5.2337   -1.3988 O.2     1  LIG1       -0.4573
     34 H          -6.5161    3.7263   -2.2371 H       1  LIG1        0.1041
     35 N          -7.8871    7.6236    1.8289 N.1     1  LIG1       -0.1907
     36 C          -7.4338    6.9681    0.9788 C.1     1  LIG1        0.1042
     37 S          -9.1876    4.6165   -0.5179 S.3     1  LIG1       -0.1383
     38 H          -9.1500    3.5625   -1.3564 H       1  LIG1        0.1072
@<TRIPOS>BOND
     1    34    32    1
     2    32    33   ar
     3    32    31   ar
     4    33    29   ar
     5    38    37    1
     6     9    10    1
     7     9     3    1
     8    18    13    1
     9    18    19    1
    10    31    37    1
    11    31    30   ar
    12    16    17    3
    13    29    23    1
    14    29    30   ar
    15    13    12   ar
    16    13    14   ar
    17    17    12    1
    18    12    11   ar
    19    24    23   ar
    20    24    20   ar
    21    23    22   ar
    22    14    20    1
    23    14    15   ar
    24    30    36    1
    25    20    21   ar
    26     3     4   ar
    27     3     2   ar
    28    22    27    1
    29    22    21   ar
    30    27    28    1
    31    11    15   ar
    32    11     4    1
    33    21    26    1
    34     4     5   ar
    35     7     8    3
    36     8     2    1
    37    26    25    3
    38     2     1   ar
    39    36    35    3
    40     5     1   ar
    41     1     6    1
