@<TRIPOS>MOLECULE
mol_data/opt/b3lyp/geoms/mol2/12dg12dg-12dg12dg-.out
 38 41 0 0 0
SMALL
GASTEIGER

@<TRIPOS>ATOM
      1 C          -0.1055    1.9181    0.0010 C.ar    1  LIG1        0.1112
      2 C           1.2490    1.7273    0.0005 C.ar    1  LIG1        0.1033
      3 C           1.8551    3.0407    0.0000 C.ar    1  LIG1        0.0712
      4 C           0.7935    3.9337    0.0002 C.ar    1  LIG1        0.1854
      5 O          -0.3980    3.2225    0.0008 O.2     1  LIG1       -0.4573
      6 H          -0.9351    1.2284    0.0015 H       1  LIG1        0.1043
      7 N           2.4751   -0.5468    0.0006 N.1     1  LIG1       -0.1907
      8 C           1.9219    0.4763    0.0006 C.1     1  LIG1        0.1034
      9 S           3.6055    3.1699   -0.0007 S.3     1  LIG1       -0.1376
     10 H           3.7039    4.5121   -0.0009 H       1  LIG1        0.1073
     11 C           0.5867    5.3583   -0.0001 C.ar    1  LIG1        0.1902
     12 C           1.3757    6.5035   -0.0004 C.ar    1  LIG1        0.1144
     13 C           0.4869    7.6400   -0.0005 C.ar    1  LIG1        0.0719
     14 C          -0.7935    7.1131   -0.0002 C.ar    1  LIG1        0.1864
     15 O          -0.7095    5.7324    0.0001 O.2     1  LIG1       -0.4461
     16 N           3.9431    6.7557   -0.0009 N.1     1  LIG1       -0.1907
     17 C           2.7856    6.6186   -0.0007 C.1     1  LIG1        0.1042
     18 S           1.1724    9.2574   -0.0012 S.3     1  LIG1       -0.1376
     19 H           0.0201    9.9526   -0.0009 H       1  LIG1        0.1073
     20 C          -2.1508    7.5874   -0.0001 C.ar    1  LIG1        0.1902
     21 C          -2.8037    8.8159    0.0002 C.ar    1  LIG1        0.1144
     22 C          -4.2221    8.5502    0.0001 C.ar    1  LIG1        0.0719
     23 C          -4.3450    7.1730   -0.0002 C.ar    1  LIG1        0.1864
     24 O          -3.0828    6.6097   -0.0003 O.2     1  LIG1       -0.4461
     25 N          -1.8454   11.2109    0.0010 N.1     1  LIG1       -0.1907
     26 C          -2.2572   10.1202    0.0006 C.1     1  LIG1        0.1042
     27 S          -5.3460    9.9026    0.0003 S.3     1  LIG1       -0.1376
     28 H          -6.4921    9.1972    0.0002 H       1  LIG1        0.1073
     29 C          -5.3962    6.1879   -0.0004 C.ar    1  LIG1        0.1892
     30 C          -6.7889    6.1790   -0.0002 C.ar    1  LIG1        0.1136
     31 C          -7.1935    4.7904   -0.0008 C.ar    1  LIG1        0.0607
     32 C          -6.0411    4.0702   -0.0014 C.ar    1  LIG1        0.1071
     33 O          -4.9572    4.9030   -0.0011 O.2     1  LIG1       -0.4573
     34 H          -5.8255    3.0144   -0.0019 H       1  LIG1        0.1041
     35 N          -8.4886    8.1185    0.0011 N.1     1  LIG1       -0.1907
     36 C          -7.6990    7.2604    0.0005 C.1     1  LIG1        0.1042
     37 S          -8.8800    4.2626   -0.0008 S.3     1  LIG1       -0.1383
     38 H          -8.6049    2.9435   -0.0015 H       1  LIG1        0.1072
@<TRIPOS>BOND
     1    34    32    1
     2    38    37    1
     3    32    33   ar
     4    32    31   ar
     5    18    19    1
     6    18    13    1
     7    33    29   ar
     8    10     9    1
     9    16    17    3
    10    31    37    1
    11    31    30   ar
    12    17    12    1
    13     9     3    1
    14    13    12   ar
    15    13    14   ar
    16    12    11   ar
    17    29    30   ar
    18    29    23    1
    19    24    23   ar
    20    24    20   ar
    21    30    36    1
    22    23    22   ar
    23    14    20    1
    24    14    15   ar
    25    20    21   ar
    26    11    15   ar
    27    11     4    1
    28     3     4   ar
    29     3     2   ar
    30    22    21   ar
    31    22    27    1
    32    21    26    1
    33     4     5   ar
    34    28    27    1
    35    36    35    3
    36     2     8    1
    37     2     1   ar
    38     8     7    3
    39    26    25    3
    40     5     1   ar
    41     1     6    1
