@<TRIPOS>MOLECULE
mol_data/opt/b3lyp/geoms/mol2/12dg12dg12dg-12dg.out
 38 41 0 0 0
SMALL
GASTEIGER

@<TRIPOS>ATOM
      1 C           0.5764    2.0833    1.5683 C.ar    1  LIG1        0.1112
      2 C           1.6488    1.8311    0.7548 C.ar    1  LIG1        0.1033
      3 C           1.9143    3.0532    0.0286 C.ar    1  LIG1        0.0712
      4 C           0.9658    3.9532    0.4750 C.ar    1  LIG1        0.1854
      5 O           0.1592    3.3501    1.4202 O.2     1  LIG1       -0.4573
      6 H           0.0444    1.4728    2.2812 H       1  LIG1        0.1043
      7 N           2.9092   -0.4167    0.5658 N.1     1  LIG1       -0.1907
      8 C           2.3469    0.5977    0.6498 C.1     1  LIG1        0.1034
      9 S           3.1272    3.1293   -1.2490 S.3     1  LIG1       -0.1376
     10 H           3.5304    4.4011   -1.0502 H       1  LIG1        0.1073
     11 C           0.6016    5.3071    0.1535 C.ar    1  LIG1        0.1902
     12 C           1.2976    6.4322   -0.2585 C.ar    1  LIG1        0.1144
     13 C           0.3333    7.4903   -0.4321 C.ar    1  LIG1        0.0719
     14 C          -0.8823    6.9378   -0.0830 C.ar    1  LIG1        0.1864
     15 O          -0.7101    5.6182    0.2751 O.2     1  LIG1       -0.4461
     16 N           3.8606    6.6162   -0.4970 N.1     1  LIG1       -0.1907
     17 C           2.7020    6.5495   -0.3956 C.1     1  LIG1        0.1042
     18 S           0.7769    9.0540   -1.1187 S.3     1  LIG1       -0.1376
     19 H          -0.0018    9.8307   -0.3366 H       1  LIG1        0.1073
     20 C          -2.2449    7.3959   -0.0567 C.ar    1  LIG1        0.1902
     21 C          -2.8570    8.6137    0.1911 C.ar    1  LIG1        0.1144
     22 C          -4.2765    8.4152    0.0347 C.ar    1  LIG1        0.0719
     23 C          -4.4278    7.0784   -0.2677 C.ar    1  LIG1        0.1864
     24 O          -3.1968    6.4659   -0.3142 O.2     1  LIG1       -0.4461
     25 N          -1.6554   10.7637    0.9613 N.1     1  LIG1       -0.1907
     26 C          -2.2159    9.8043    0.6112 C.1     1  LIG1        0.1042
     27 S          -5.4367    9.7475    0.0785 S.3     1  LIG1       -0.1376
     28 H          -6.3609    9.1650    0.8712 H       1  LIG1        0.1073
     29 C          -5.5482    6.2257   -0.5680 C.ar    1  LIG1        0.1892
     30 C          -6.8614    6.1738   -0.1305 C.ar    1  LIG1        0.1136
     31 C          -7.4901    5.0858   -0.8423 C.ar    1  LIG1        0.0607
     32 C          -6.5142    4.5556   -1.6311 C.ar    1  LIG1        0.1071
     33 O          -5.3395    5.2370   -1.4721 O.2     1  LIG1       -0.4573
     34 H          -6.4920    3.7329   -2.3272 H       1  LIG1        0.1041
     35 N          -7.9021    7.6173    1.7380 N.1     1  LIG1       -0.1907
     36 C          -7.4411    6.9644    0.8900 C.1     1  LIG1        0.1042
     37 S          -9.1808    4.6181   -0.6327 S.3     1  LIG1       -0.1383
     38 H          -9.1328    3.5624   -1.4685 H       1  LIG1        0.1072
@<TRIPOS>BOND
     1    34    32    1
     2    32    33   ar
     3    32    31   ar
     4    33    29   ar
     5    38    37    1
     6     9    10    1
     7     9     3    1
     8    18    13    1
     9    18    19    1
    10    31    37    1
    11    31    30   ar
    12    29    23    1
    13    29    30   ar
    14    16    17    3
    15    13    12   ar
    16    13    14   ar
    17    17    12    1
    18    24    23   ar
    19    24    20   ar
    20    23    22   ar
    21    12    11   ar
    22    30    36    1
    23    14    20    1
    24    14    15   ar
    25    20    21   ar
    26     3     4   ar
    27     3     2   ar
    28    22    27    1
    29    22    21   ar
    30    27    28    1
    31    11    15   ar
    32    11     4    1
    33    21    26    1
    34     4     5   ar
    35     7     8    3
    36    26    25    3
    37     8     2    1
    38     2     1   ar
    39    36    35    3
    40     5     1   ar
    41     1     6    1
