@<TRIPOS>MOLECULE
mol_data/opt/b3lyp/geoms/mol2/12dg12dg.out
 20 21 0 0 0
SMALL
GASTEIGER

@<TRIPOS>ATOM
      1 C           0.2053    1.8156    0.4388 C.ar    1  LIG1        0.1112
      2 C           1.5004    1.7887   -0.0051 C.ar    1  LIG1        0.1033
      3 C           1.8753    3.1610   -0.2679 C.ar    1  LIG1        0.0712
      4 C           0.7607    3.9092    0.0485 C.ar    1  LIG1        0.1853
      5 O          -0.2499    3.0794    0.4874 O.2     1  LIG1       -0.4573
      6 H          -0.4749    1.0385    0.7503 H       1  LIG1        0.1043
      7 N           2.9431   -0.3322   -0.3175 N.1     1  LIG1       -0.1907
      8 C           2.2998    0.6264   -0.1773 C.1     1  LIG1        0.1034
      9 S           3.4132    3.6035   -1.0165 S.3     1  LIG1       -0.1376
     10 H           3.7007    4.6685   -0.2396 H       1  LIG1        0.1073
     11 C           0.4198    5.3074   -0.0127 C.ar    1  LIG1        0.1892
     12 C           1.1290    6.4814    0.1787 C.ar    1  LIG1        0.1136
     13 C           0.2030    7.5654   -0.0572 C.ar    1  LIG1        0.0607
     14 C          -0.9865    6.9714   -0.3491 C.ar    1  LIG1        0.1071
     15 O          -0.8650    5.6086   -0.3250 O.2     1  LIG1       -0.4573
     16 H          -1.9668    7.3538   -0.5829 H       1  LIG1        0.1041
     17 N           3.5715    6.6791    0.9866 N.1     1  LIG1       -0.1907
     18 C           2.4690    6.5963    0.6181 C.1     1  LIG1        0.1042
     19 S           0.6369    9.2750    0.0587 S.3     1  LIG1       -0.1383
     20 H          -0.6084    9.7442   -0.1529 H       1  LIG1        0.1072
@<TRIPOS>BOND
     1     9     3    1
     2     9    10    1
     3    16    14    1
     4    14    15   ar
     5    14    13   ar
     6    15    11   ar
     7     7     8    3
     8     3     2   ar
     9     3     4   ar
    10     8     2    1
    11    20    19    1
    12    13    19    1
    13    13    12   ar
    14    11     4    1
    15    11    12   ar
    16     2     1   ar
    17     4     5   ar
    18    12    18    1
    19     1     5   ar
    20     1     6    1
    21    18    17    3
