@<TRIPOS>MOLECULE
mol_data/opt/b3lyp/geoms/mol2/12dg.out
 11 11 0 0 0
SMALL
GASTEIGER

@<TRIPOS>ATOM
      1 C           0.1014    1.8661   -0.0001 C.ar    1  LIG1        0.1101
      2 C           1.4718    1.8654    0.0001 C.ar    1  LIG1        0.1025
      3 C           1.8735    3.2574   -0.0000 C.ar    1  LIG1        0.0600
      4 C           0.7138    3.9708   -0.0001 C.ar    1  LIG1        0.1061
      5 O          -0.3683    3.1277    0.0000 O.2     1  LIG1       -0.4686
      6 H          -0.6260    1.0702   -0.0001 H       1  LIG1        0.1043
      7 H           0.4925    5.0257   -0.0001 H       1  LIG1        0.1041
      8 N           3.0169   -0.2052    0.0002 N.1     1  LIG1       -0.1907
      9 C           2.3157    0.7234    0.0002 C.1     1  LIG1        0.1034
     10 S           3.5567    3.7996   -0.0000 S.3     1  LIG1       -0.1384
     11 H           3.2751    5.1174   -0.0001 H       1  LIG1        0.1072
@<TRIPOS>BOND
     1     6     1    1
     2     7     4    1
     3     1     5   ar
     4     1     2   ar
     5     4     3   ar
     6     4     5   ar
     7    11    10    1
     8     3    10    1
     9     3     2   ar
    10     2     9    1
    11     9     8    3
