@<TRIPOS>MOLECULE
mol_data/opt/b3lyp/geoms/mol2/12dg12dg12dg12dg-.out
 38 41 0 0 0
SMALL
GASTEIGER

@<TRIPOS>ATOM
      1 C           0.4701    1.7283    0.0034 C.ar    1  LIG1        0.1112
      2 C           1.8051    1.8117   -0.2900 C.ar    1  LIG1        0.1033
      3 C           2.1513    3.2152   -0.2490 C.ar    1  LIG1        0.0712
      4 C           0.9775    3.8686    0.0749 C.ar    1  LIG1        0.1854
      5 O          -0.0404    2.9478    0.2325 O.2     1  LIG1       -0.4573
      6 H          -0.2044    0.8908    0.0898 H       1  LIG1        0.1043
      7 N           3.3618   -0.1792   -0.8278 N.1     1  LIG1       -0.1907
      8 C           2.6659    0.7200   -0.5842 C.1     1  LIG1        0.1034
      9 S           3.7508    3.7886   -0.7188 S.3     1  LIG1       -0.1376
     10 H           3.8342    4.8330    0.1305 H       1  LIG1        0.1073
     11 C           0.5714    5.2401    0.2247 C.ar    1  LIG1        0.1902
     12 C           1.1965    6.4010    0.6512 C.ar    1  LIG1        0.1144
     13 C           0.2343    7.4691    0.5427 C.ar    1  LIG1        0.0719
     14 C          -0.9187    6.8748    0.0705 C.ar    1  LIG1        0.1864
     15 O          -0.7033    5.5287   -0.1296 O.2     1  LIG1       -0.4461
     16 N           3.5724    6.5580    1.6462 N.1     1  LIG1       -0.1907
     17 C           2.4998    6.5037    1.1948 C.1     1  LIG1        0.1042
     18 S           0.5687    9.0949    1.1444 S.3     1  LIG1       -0.1376
     19 H          -0.0521    9.7859    0.1655 H       1  LIG1        0.1073
     20 C          -2.2580    7.3199   -0.2022 C.ar    1  LIG1        0.1902
     21 C          -2.8134    8.5064   -0.6530 C.ar    1  LIG1        0.1144
     22 C          -4.2417    8.3162   -0.6999 C.ar    1  LIG1        0.0719
     23 C          -4.4510    7.0170   -0.2880 C.ar    1  LIG1        0.1864
     24 O          -3.2494    6.4232    0.0226 O.2     1  LIG1       -0.4461
     25 N          -1.4870   10.5684   -1.4578 N.1     1  LIG1       -0.1907
     26 C          -2.1033    9.6495   -1.0934 C.1     1  LIG1        0.1042
     27 S          -5.3441    9.5175   -1.3835 S.3     1  LIG1       -0.1376
     28 H          -6.2919    9.4633   -0.4241 H       1  LIG1        0.1073
     29 C          -5.6079    6.1715   -0.1517 C.ar    1  LIG1        0.1892
     30 C          -6.9241    6.3983    0.2155 C.ar    1  LIG1        0.1136
     31 C          -7.6007    5.1251    0.1289 C.ar    1  LIG1        0.0607
     32 C          -6.6476    4.2326   -0.2588 C.ar    1  LIG1        0.1071
     33 O          -5.4418    4.8551   -0.4301 O.2     1  LIG1       -0.4573
     34 H          -6.6617    3.1713   -0.4470 H       1  LIG1        0.1041
     35 N          -7.9025    8.6270    1.0713 N.1     1  LIG1       -0.1907
     36 C          -7.4700    7.6173    0.6823 C.1     1  LIG1        0.1042
     37 S          -9.3131    4.8936    0.4960 S.3     1  LIG1       -0.1383
     38 H          -9.3113    3.5590    0.3110 H       1  LIG1        0.1072
@<TRIPOS>BOND
     1    25    26    3
     2    27    22    1
     3    27    28    1
     4    26    21    1
     5     7     8    3
     6     9     3    1
     7     9    10    1
     8    22    21   ar
     9    22    23   ar
    10    21    20   ar
    11     8     2    1
    12    34    32    1
    13    33    32   ar
    14    33    29   ar
    15     2     3   ar
    16     2     1   ar
    17    23    29    1
    18    23    24   ar
    19    32    31   ar
    20     3     4   ar
    21    20    24   ar
    22    20    14    1
    23    29    30   ar
    24    15    14   ar
    25    15    11   ar
    26     1     6    1
    27     1     5   ar
    28    14    13   ar
    29     4    11    1
    30     4     5   ar
    31    31    30   ar
    32    31    37    1
    33    19    18    1
    34    30    36    1
    35    11    12   ar
    36    38    37    1
    37    13    12   ar
    38    13    18    1
    39    12    17    1
    40    36    35    3
    41    17    16    3
