@<TRIPOS>MOLECULE
mol_data/opt/b3lyp/geoms/mol2/12dg12dg-12dg-.out
 29 31 0 0 0
SMALL
GASTEIGER

@<TRIPOS>ATOM
      1 C           0.3139    1.7407   -0.2852 C.ar    1  LIG1        0.1112
      2 C           1.5714    1.7709    0.2564 C.ar    1  LIG1        0.1033
      3 C           1.9325    3.1652    0.3870 C.ar    1  LIG1        0.0712
      4 C           0.8468    3.8677   -0.0983 C.ar    1  LIG1        0.1854
      5 O          -0.1322    2.9864   -0.5123 O.2     1  LIG1       -0.4573
      6 H          -0.3418    0.9286   -0.5578 H       1  LIG1        0.1043
      7 N           2.9800   -0.2911    0.9205 N.1     1  LIG1       -0.1907
      8 C           2.3512    0.6403    0.6214 C.1     1  LIG1        0.1034
      9 S           3.4168    3.6763    1.1918 S.3     1  LIG1       -0.1376
     10 H           3.7068    4.7301    0.4009 H       1  LIG1        0.1073
     11 C           0.4957    5.2575   -0.2200 C.ar    1  LIG1        0.1902
     12 C           1.2053    6.4241   -0.4514 C.ar    1  LIG1        0.1144
     13 C           0.2556    7.5094   -0.4392 C.ar    1  LIG1        0.0719
     14 C          -0.9703    6.9198   -0.2162 C.ar    1  LIG1        0.1864
     15 O          -0.8174    5.5601   -0.0718 O.2     1  LIG1       -0.4461
     16 N           3.7212    6.5684   -1.0079 N.1     1  LIG1       -0.1907
     17 C           2.5854    6.5216   -0.7531 C.1     1  LIG1        0.1042
     18 S           0.6940    9.1690   -0.8648 S.3     1  LIG1       -0.1376
     19 H           0.0322    9.7948    0.1312 H       1  LIG1        0.1073
     20 C          -2.3262    7.3966   -0.1408 C.ar    1  LIG1        0.1892
     21 C          -2.9103    8.5609    0.3306 C.ar    1  LIG1        0.1136
     22 C          -4.3298    8.4331    0.0952 C.ar    1  LIG1        0.0607
     23 C          -4.4956    7.2072   -0.4742 C.ar    1  LIG1        0.1071
     24 O          -3.2917    6.5742   -0.6198 O.2     1  LIG1       -0.4573
     25 H          -5.3601    6.6614   -0.8157 H       1  LIG1        0.1041
     26 N          -1.7042   10.4788    1.5651 N.1     1  LIG1       -0.1907
     27 C          -2.2559    9.6189    1.0046 C.1     1  LIG1        0.1042
     28 S          -5.5143    9.6730    0.5205 S.3     1  LIG1       -0.1383
     29 H          -6.5961    8.9529    0.1647 H       1  LIG1        0.1072
@<TRIPOS>BOND
     1    16    17    3
     2    18    13    1
     3    18    19    1
     4    25    23    1
     5    17    12    1
     6    24    23   ar
     7    24    20   ar
     8     6     1    1
     9     5     1   ar
    10     5     4   ar
    11    23    22   ar
    12    12    13   ar
    13    12    11   ar
    14    13    14   ar
    15     1     2   ar
    16    11     4    1
    17    11    15   ar
    18    14    20    1
    19    14    15   ar
    20    20    21   ar
    21     4     3   ar
    22    22    21   ar
    23    22    28    1
    24    29    28    1
    25     2     3   ar
    26     2     8    1
    27    21    27    1
    28     3     9    1
    29    10     9    1
    30     8     7    3
    31    27    26    3
