@<TRIPOS>MOLECULE
mol_data/opt/b3lyp/geoms/mol2/12dg12dg-.out
 20 21 0 0 0
SMALL
GASTEIGER

@<TRIPOS>ATOM
      1 C           0.1002    1.8167    0.0000 C.ar    1  LIG1        0.1112
      2 C           1.4658    1.7444   -0.0000 C.ar    1  LIG1        0.1033
      3 C           1.9552    3.1067   -0.0000 C.ar    1  LIG1        0.0712
      4 C           0.8232    3.9035   -0.0001 C.ar    1  LIG1        0.1853
      5 O          -0.3023    3.0930   -0.0001 O.2     1  LIG1       -0.4573
      6 H          -0.6680    1.0592    0.0000 H       1  LIG1        0.1043
      7 N           2.8862   -0.4137    0.0000 N.1     1  LIG1       -0.1907
      8 C           2.2451    0.5569    0.0000 C.1     1  LIG1        0.1034
      9 S           3.6886    3.3954    0.0000 S.3     1  LIG1       -0.1376
     10 H           3.6618    4.7408    0.0001 H       1  LIG1        0.1073
     11 C           0.4961    5.3090   -0.0001 C.ar    1  LIG1        0.1892
     12 C           1.1843    6.5183   -0.0001 C.ar    1  LIG1        0.1136
     13 C           0.1837    7.5638   -0.0001 C.ar    1  LIG1        0.0607
     14 C          -1.0160    6.9266   -0.0002 C.ar    1  LIG1        0.1071
     15 O          -0.8357    5.5712   -0.0002 O.2     1  LIG1       -0.4573
     16 H          -2.0386    7.2666   -0.0003 H       1  LIG1        0.1041
     17 N           3.7141    7.0201    0.0001 N.1     1  LIG1       -0.1907
     18 C           2.5763    6.7649    0.0000 C.1     1  LIG1        0.1042
     19 S           0.5688    9.2894   -0.0002 S.3     1  LIG1       -0.1383
     20 H          -0.7118    9.7086   -0.0002 H       1  LIG1        0.1072
@<TRIPOS>BOND
     1    16    14    1
     2    20    19    1
     3    14    15   ar
     4    14    13   ar
     5    15    11   ar
     6    19    13    1
     7    13    12   ar
     8    11     4    1
     9    11    12   ar
    10     5     4   ar
    11     5     1   ar
    12     4     3   ar
    13    12    18    1
    14     2     3   ar
    15     2     8    1
    16     2     1   ar
    17     3     9    1
    18     8     7    3
    19     1     6    1
    20     9    10    1
    21    18    17    3
