@<TRIPOS>MOLECULE
mol_data/opt/b3lyp/geoms/mol2/12dg12dg-12dg.out
 29 31 0 0 0
SMALL
GASTEIGER

@<TRIPOS>ATOM
      1 C           0.0592    1.8577   -0.0000 C.ar    1  LIG1        0.1112
      2 C           1.4203    1.7220   -0.0000 C.ar    1  LIG1        0.1033
      3 C           1.9728    3.0591   -0.0000 C.ar    1  LIG1        0.0712
      4 C           0.8768    3.9084   -0.0000 C.ar    1  LIG1        0.1854
      5 O          -0.2850    3.1498   -0.0000 O.2     1  LIG1       -0.4573
      6 H          -0.7425    1.1356    0.0000 H       1  LIG1        0.1043
      7 N           2.7390   -0.4996    0.0000 N.1     1  LIG1       -0.1907
      8 C           2.1437    0.4996    0.0000 C.1     1  LIG1        0.1034
      9 S           3.7166    3.2613   -0.0000 S.3     1  LIG1       -0.1376
     10 H           3.7580    4.6064   -0.0000 H       1  LIG1        0.1073
     11 C           0.6125    5.3241   -0.0001 C.ar    1  LIG1        0.1902
     12 C           1.3515    6.5013   -0.0001 C.ar    1  LIG1        0.1144
     13 C           0.4133    7.5991   -0.0001 C.ar    1  LIG1        0.0719
     14 C          -0.8411    7.0189   -0.0001 C.ar    1  LIG1        0.1864
     15 O          -0.6991    5.6439   -0.0001 O.2     1  LIG1       -0.4461
     16 N           3.9059    6.8621    0.0001 N.1     1  LIG1       -0.1907
     17 C           2.7551    6.6762    0.0000 C.1     1  LIG1        0.1042
     18 S           1.0233    9.2480   -0.0001 S.3     1  LIG1       -0.1376
     19 H          -0.1608    9.8876   -0.0001 H       1  LIG1        0.1073
     20 C          -2.2203    7.4359   -0.0002 C.ar    1  LIG1        0.1892
     21 C          -2.9259    8.6365   -0.0002 C.ar    1  LIG1        0.1136
     22 C          -4.3303    8.2903   -0.0003 C.ar    1  LIG1        0.0607
     23 C          -4.3761    6.9322   -0.0003 C.ar    1  LIG1        0.1071
     24 O          -3.1119    6.4122   -0.0002 O.2     1  LIG1       -0.4573
     25 H          -5.1811    6.2158   -0.0003 H       1  LIG1        0.1041
     26 N          -2.0957   11.0782   -0.0001 N.1     1  LIG1       -0.1907
     27 C          -2.4451    9.9656   -0.0001 C.1     1  LIG1        0.1042
     28 S          -5.6340    9.4848   -0.0003 S.3     1  LIG1       -0.1383
     29 H          -6.6360    8.5840   -0.0003 H       1  LIG1        0.1072
@<TRIPOS>BOND
     1    25    23    1
     2    29    28    1
     3    28    22    1
     4    23    22   ar
     5    23    24   ar
     6    22    21   ar
     7    24    20   ar
     8    21    20   ar
     9    21    27    1
    10    20    14    1
    11    27    26    3
    12    14    15   ar
    13    14    13   ar
    14    18    19    1
    15    18    13    1
    16    15    11   ar
    17    13    12   ar
    18    11    12   ar
    19    11     4    1
    20    12    17    1
    21     9    10    1
    22     9     3    1
    23     4     3   ar
    24     4     5   ar
    25     3     2   ar
    26     5     1   ar
    27     1     2   ar
    28     1     6    1
    29     2     8    1
    30    17    16    3
    31     8     7    3
