@<TRIPOS>MOLECULE
mol_data/opt/b3lyp/geoms/mol2/12dg12dg12dg-.out
 29 31 0 0 0
SMALL
GASTEIGER

@<TRIPOS>ATOM
      1 C           0.3708    1.8685    0.9073 C.ar    1  LIG1        0.1112
      2 C           1.5573    1.7582    0.2325 C.ar    1  LIG1        0.1033
      3 C           1.8931    3.0853   -0.2342 C.ar    1  LIG1        0.0712
      4 C           0.8664    3.8959    0.2087 C.ar    1  LIG1        0.1854
      5 O          -0.0533    3.1422    0.9109 O.2     1  LIG1       -0.4573
      6 H          -0.2445    1.1463    1.4208 H       1  LIG1        0.1043
      7 N           2.8914   -0.4244   -0.1325 N.1     1  LIG1       -0.1907
      8 C           2.2961    0.5611    0.0311 C.1     1  LIG1        0.1034
      9 S           3.2746    3.3818   -1.2902 S.3     1  LIG1       -0.1376
     10 H           3.6325    4.5862   -0.7989 H       1  LIG1        0.1073
     11 C           0.5227    5.2859    0.0676 C.ar    1  LIG1        0.1902
     12 C           1.2467    6.4622   -0.0332 C.ar    1  LIG1        0.1144
     13 C           0.2948    7.5358   -0.1811 C.ar    1  LIG1        0.0719
     14 C          -0.9449    6.9357   -0.1286 C.ar    1  LIG1        0.1864
     15 O          -0.8006    5.5758    0.0287 O.2     1  LIG1       -0.4461
     16 N           3.8101    6.6726    0.1779 N.1     1  LIG1       -0.1907
     17 C           2.6520    6.5960    0.0784 C.1     1  LIG1        0.1042
     18 S           0.7822    9.1992   -0.5265 S.3     1  LIG1       -0.1376
     19 H          -0.0429    9.8207    0.3421 H       1  LIG1        0.1073
     20 C          -2.3037    7.3986   -0.2357 C.ar    1  LIG1        0.1892
     21 C          -2.9592    8.5570    0.1484 C.ar    1  LIG1        0.1136
     22 C          -4.3320    8.4139   -0.2771 C.ar    1  LIG1        0.0607
     23 C          -4.4060    7.1853   -0.8601 C.ar    1  LIG1        0.1071
     24 O          -3.1872    6.5654   -0.8391 O.2     1  LIG1       -0.4573
     25 H          -5.2104    6.6294   -1.3137 H       1  LIG1        0.1041
     26 N          -1.9554   10.4915    1.5295 N.1     1  LIG1       -0.1907
     27 C          -2.4147    9.6235    0.9021 C.1     1  LIG1        0.1042
     28 S          -5.5765    9.6416   -0.0205 S.3     1  LIG1       -0.1383
     29 H          -6.5934    8.9061   -0.5109 H       1  LIG1        0.1072
@<TRIPOS>BOND
     1    25    23    1
     2     9    10    1
     3     9     3    1
     4    23    24   ar
     5    23    22   ar
     6    24    20   ar
     7    18    13    1
     8    18    19    1
     9    29    28    1
    10    22    28    1
    11    22    21   ar
    12    20    14    1
    13    20    21   ar
    14     3     4   ar
    15     3     2   ar
    16    13    14   ar
    17    13    12   ar
    18     7     8    3
    19    14    15   ar
    20    12    11   ar
    21    12    17    1
    22    15    11   ar
    23     8     2    1
    24    11     4    1
    25    17    16    3
    26    21    27    1
    27     4     5   ar
    28     2     1   ar
    29    27    26    3
    30     1     5   ar
    31     1     6    1
