@<TRIPOS>MOLECULE
mol_data/opt/b3lyp/geoms/mol2/12dg12dg-12dg12dg.out
 38 41 0 0 0
SMALL
GASTEIGER

@<TRIPOS>ATOM
      1 C           0.6139    2.0985    1.5853 C.ar    1  LIG1        0.1112
      2 C           1.6696    1.8407    0.7520 C.ar    1  LIG1        0.1033
      3 C           1.9184    3.0568    0.0100 C.ar    1  LIG1        0.0712
      4 C           0.9780    3.9594    0.4681 C.ar    1  LIG1        0.1854
      5 O           0.1920    3.3635    1.4350 O.2     1  LIG1       -0.4573
      6 H           0.0975    1.4936    2.3142 H       1  LIG1        0.1043
      7 N           2.9287   -0.4073    0.5565 N.1     1  LIG1       -0.1907
      8 C           2.3670    0.6072    0.6433 C.1     1  LIG1        0.1034
      9 S           3.1047    3.1227   -1.2927 S.3     1  LIG1       -0.1376
     10 H           3.5079    4.3978   -1.1160 H       1  LIG1        0.1073
     11 C           0.6055    5.3103    0.1431 C.ar    1  LIG1        0.1902
     12 C           1.2908    6.4328   -0.2931 C.ar    1  LIG1        0.1144
     13 C           0.3214    7.4882   -0.4546 C.ar    1  LIG1        0.0719
     14 C          -0.8854    6.9371   -0.0748 C.ar    1  LIG1        0.1864
     15 O          -0.7038    5.6208    0.2905 O.2     1  LIG1       -0.4461
     16 N           3.8476    6.6180   -0.5895 N.1     1  LIG1       -0.1907
     17 C           2.6916    6.5507   -0.4619 C.1     1  LIG1        0.1042
     18 S           0.7468    9.0468   -1.1645 S.3     1  LIG1       -0.1376
     19 H          -0.0105    9.8296   -0.3674 H       1  LIG1        0.1073
     20 C          -2.2475    7.3946   -0.0224 C.ar    1  LIG1        0.1902
     21 C          -2.8544    8.6138    0.2308 C.ar    1  LIG1        0.1144
     22 C          -4.2770    8.4142    0.1063 C.ar    1  LIG1        0.0719
     23 C          -4.4343    7.0754   -0.1844 C.ar    1  LIG1        0.1864
     24 O          -3.2044    6.4628   -0.2535 O.2     1  LIG1       -0.4461
     25 N          -1.6363   10.7681    0.9617 N.1     1  LIG1       -0.1907
     26 C          -2.2044    9.8069    0.6297 C.1     1  LIG1        0.1042
     27 S          -5.4354    9.7469    0.1685 S.3     1  LIG1       -0.1376
     28 H          -6.3473    9.1651    0.9758 H       1  LIG1        0.1073
     29 C          -5.5602    6.2200   -0.4557 C.ar    1  LIG1        0.1892
     30 C          -6.8645    6.1703    0.0078 C.ar    1  LIG1        0.1136
     31 C          -7.5060    5.0765   -0.6836 C.ar    1  LIG1        0.0607
     32 C          -6.5453    4.5413   -1.4874 C.ar    1  LIG1        0.1071
     33 O          -5.3684    5.2249   -1.3564 O.2     1  LIG1       -0.4573
     34 H          -6.5359    3.7135   -2.1779 H       1  LIG1        0.1041
     35 N          -7.8714    7.6264    1.8850 N.1     1  LIG1       -0.1907
     36 C          -7.4255    6.9677    1.0333 C.1     1  LIG1        0.1042
     37 S          -9.1919    4.6090   -0.4377 S.3     1  LIG1       -0.1383
     38 H          -9.1583    3.5457   -1.2646 H       1  LIG1        0.1072
@<TRIPOS>BOND
     1    34    32    1
     2    32    33   ar
     3    32    31   ar
     4    33    29   ar
     5     9    10    1
     6     9     3    1
     7    38    37    1
     8    18    13    1
     9    18    19    1
    10    31    37    1
    11    31    30   ar
    12    16    17    3
    13    17    12    1
    14    29    23    1
    15    29    30   ar
    16    13    12   ar
    17    13    14   ar
    18    12    11   ar
    19    24    23   ar
    20    24    20   ar
    21    23    22   ar
    22    14    20    1
    23    14    15   ar
    24    20    21   ar
    25    30    36    1
    26     3     4   ar
    27     3     2   ar
    28    22    27    1
    29    22    21   ar
    30    11    15   ar
    31    11     4    1
    32    27    28    1
    33    21    26    1
    34     4     5   ar
    35     7     8    3
    36    26    25    3
    37     8     2    1
    38     2     1   ar
    39    36    35    3
    40     5     1   ar
    41     1     6    1
