@<TRIPOS>MOLECULE
mol_data/opt/b3lyp/geoms/mol2/12dg12dg12dg-12dg-.out
 38 41 0 0 0
SMALL
GASTEIGER

@<TRIPOS>ATOM
      1 C           0.5758    2.0861    1.5773 C.ar    1  LIG1        0.1112
      2 C           1.6482    1.8325    0.7642 C.ar    1  LIG1        0.1033
      3 C           1.9136    3.0532    0.0358 C.ar    1  LIG1        0.0712
      4 C           0.9649    3.9539    0.4804 C.ar    1  LIG1        0.1854
      5 O           0.1585    3.3526    1.4268 O.2     1  LIG1       -0.4573
      6 H           0.0438    1.4769    2.2914 H       1  LIG1        0.1043
      7 N           2.9088   -0.4156    0.5795 N.1     1  LIG1       -0.1907
      8 C           2.3465    0.5989    0.6615 C.1     1  LIG1        0.1034
      9 S           3.1259    3.1278   -1.2426 S.3     1  LIG1       -0.1376
     10 H           3.5324    4.3984   -1.0425 H       1  LIG1        0.1073
     11 C           0.6009    5.3072    0.1562 C.ar    1  LIG1        0.1902
     12 C           1.2976    6.4316   -0.2565 C.ar    1  LIG1        0.1144
     13 C           0.3337    7.4895   -0.4331 C.ar    1  LIG1        0.0719
     14 C          -0.8825    6.9375   -0.0849 C.ar    1  LIG1        0.1864
     15 O          -0.7109    5.6185    0.2755 O.2     1  LIG1       -0.4461
     16 N           3.8611    6.6144   -0.4913 N.1     1  LIG1       -0.1907
     17 C           2.7023    6.5483   -0.3916 C.1     1  LIG1        0.1042
     18 S           0.7779    9.0522   -1.1214 S.3     1  LIG1       -0.1376
     19 H          -0.0011    9.8301   -0.3409 H       1  LIG1        0.1073
     20 C          -2.2450    7.3959   -0.0608 C.ar    1  LIG1        0.1902
     21 C          -2.8572    8.6140    0.1848 C.ar    1  LIG1        0.1144
     22 C          -4.2766    8.4155    0.0268 C.ar    1  LIG1        0.0719
     23 C          -4.4277    7.0784   -0.2744 C.ar    1  LIG1        0.1864
     24 O          -3.1967    6.4657   -0.3187 O.2     1  LIG1       -0.4461
     25 N          -1.6563   10.7647    0.9540 N.1     1  LIG1       -0.1907
     26 C          -2.2165    9.8051    0.6044 C.1     1  LIG1        0.1042
     27 S          -5.4366    9.7480    0.0681 S.3     1  LIG1       -0.1376
     28 H          -6.3633    9.1652    0.8576 H       1  LIG1        0.1073
     29 C          -5.5476    6.2254   -0.5753 C.ar    1  LIG1        0.1892
     30 C          -6.8615    6.1740   -0.1399 C.ar    1  LIG1        0.1136
     31 C          -7.4890    5.0849   -0.8512 C.ar    1  LIG1        0.0607
     32 C          -6.5117    4.5537   -1.6377 C.ar    1  LIG1        0.1071
     33 O          -5.3373    5.2355   -1.4776 O.2     1  LIG1       -0.4573
     34 H          -6.4882    3.7300   -2.3325 H       1  LIG1        0.1041
     35 N          -7.9056    7.6200    1.7248 N.1     1  LIG1       -0.1907
     36 C          -7.4431    6.9659    0.8785 C.1     1  LIG1        0.1042
     37 S          -9.1800    4.6174   -0.6438 S.3     1  LIG1       -0.1383
     38 H          -9.1307    3.5609   -1.4786 H       1  LIG1        0.1072
@<TRIPOS>BOND
     1    34    32    1
     2    32    33   ar
     3    32    31   ar
     4    38    37    1
     5    33    29   ar
     6     9    10    1
     7     9     3    1
     8    18    13    1
     9    18    19    1
    10    31    37    1
    11    31    30   ar
    12    29    23    1
    13    29    30   ar
    14    16    17    3
    15    13    12   ar
    16    13    14   ar
    17    17    12    1
    18    24    23   ar
    19    24    20   ar
    20    23    22   ar
    21    12    11   ar
    22    30    36    1
    23    14    20    1
    24    14    15   ar
    25    20    21   ar
    26    22    27    1
    27    22    21   ar
    28     3     4   ar
    29     3     2   ar
    30    27    28    1
    31    11    15   ar
    32    11     4    1
    33    21    26    1
    34     4     5   ar
    35     7     8    3
    36    26    25    3
    37     8     2    1
    38     2     1   ar
    39    36    35    3
    40     5     1   ar
    41     1     6    1
