@<TRIPOS>MOLECULE
mol_data/opt/b3lyp/geoms/mol2/12dh12dh-.out
 22 23 0 0 0
SMALL
GASTEIGER

@<TRIPOS>ATOM
      1 C           0.1597    1.7860    0.0148 C.ar    1  LIG1        0.1119
      2 C           1.5326    1.7735   -0.0175 C.ar    1  LIG1        0.1107
      3 C           1.9554    3.1556   -0.0345 C.ar    1  LIG1        0.0917
      4 C           0.7855    3.8942   -0.0155 C.ar    1  LIG1        0.1928
      5 O          -0.3039    3.0431    0.0186 O.2     1  LIG1       -0.4566
      6 H          -0.5721    0.9939    0.0353 H       1  LIG1        0.1043
      7 N           3.1422   -0.2437   -0.0734 N.1     1  LIG1       -0.1907
      8 C           2.3933    0.6471   -0.0426 C.1     1  LIG1        0.1042
      9 N           3.2506    3.5989   -0.0072 N.pl3   1  LIG1       -0.3540
     10 H           3.9597    2.9558   -0.3276 H       1  LIG1        0.1425
     11 H           3.4013    4.5685   -0.2429 H       1  LIG1        0.1425
     12 C           0.5438    5.2980   -0.0349 C.ar    1  LIG1        0.1907
     13 C          -0.6025    6.0763   -0.0248 C.ar    1  LIG1        0.1211
     14 C          -0.1623    7.4566   -0.0730 C.ar    1  LIG1        0.0812
     15 C           1.2001    7.4155   -0.1140 C.ar    1  LIG1        0.1146
     16 O           1.6364    6.0979   -0.0872 O.2     1  LIG1       -0.4565
     17 H           1.9707    8.1667   -0.1396 H       1  LIG1        0.1049
     18 N          -3.0886    5.3963    0.0098 N.1     1  LIG1       -0.1907
     19 C          -1.9536    5.6616    0.0014 C.1     1  LIG1        0.1049
     20 N          -1.0134    8.5484   -0.0086 N.pl3   1  LIG1       -0.3545
     21 H          -0.6492    9.4041   -0.4034 H       1  LIG1        0.1424
     22 H          -1.9570    8.3585   -0.3204 H       1  LIG1        0.1424
@<TRIPOS>BOND
     1    21    20    1
     2    10     9    1
     3    22    20    1
     4    11     9    1
     5    17    15    1
     6    15    16   ar
     7    15    14   ar
     8    16    12   ar
     9     7     8    3
    10    14    13   ar
    11    14    20    1
    12     8     2    1
    13    12    13   ar
    14    12     4    1
    15     3     2   ar
    16     3     4   ar
    17     3     9    1
    18    13    19    1
    19     2     1   ar
    20     4     5   ar
    21    19    18    3
    22     1     5   ar
    23     1     6    1
