@<TRIPOS>MOLECULE
mol_data/opt/b3lyp/geoms/mol2/12dh12dh12dh-12dh.out
 42 45 0 0 0
SMALL
GASTEIGER

@<TRIPOS>ATOM
      1 C           0.2723    1.7096   -0.2936 C.ar    1  LIG1        0.1119
      2 C           1.6277    1.7075   -0.0831 C.ar    1  LIG1        0.1107
      3 C           2.0364    3.0927    0.0148 C.ar    1  LIG1        0.0917
      4 C           0.8654    3.8295   -0.1590 C.ar    1  LIG1        0.1928
      5 O          -0.2007    2.9547   -0.3424 O.2     1  LIG1       -0.4566
      6 H          -0.4397    0.9092   -0.4238 H       1  LIG1        0.1043
      7 N           3.2565   -0.2840    0.1182 N.1     1  LIG1       -0.1907
      8 C           2.4959    0.5926    0.0256 C.1     1  LIG1        0.1042
      9 N           3.3067    3.4840    0.2964 N.pl3   1  LIG1       -0.3540
     10 H           4.0270    2.7789    0.2481 H       1  LIG1        0.1425
     11 H           3.6072    4.4338    0.1284 H       1  LIG1        0.1425
     12 C           0.5227    5.2117   -0.1500 C.ar    1  LIG1        0.1917
     13 C           1.2636    6.3963   -0.1746 C.ar    1  LIG1        0.1219
     14 C           0.3226    7.4888   -0.1224 C.ar    1  LIG1        0.0925
     15 C          -0.9329    6.8864   -0.0859 C.ar    1  LIG1        0.1939
     16 O          -0.7904    5.5059   -0.0992 O.2     1  LIG1       -0.4453
     17 N           3.8161    6.6686   -0.4001 N.1     1  LIG1       -0.1907
     18 C           2.6602    6.5411   -0.2950 C.1     1  LIG1        0.1050
     19 N           0.6468    8.7988   -0.1074 N.pl3   1  LIG1       -0.3539
     20 H           1.6103    9.0758   -0.2016 H       1  LIG1        0.1425
     21 H          -0.0486    9.5321   -0.1345 H       1  LIG1        0.1425
     22 C          -2.2403    7.4136   -0.0422 C.ar    1  LIG1        0.1918
     23 C          -3.5128    6.8420    0.0020 C.ar    1  LIG1        0.1219
     24 C          -4.4514    7.9335    0.0360 C.ar    1  LIG1        0.0925
     25 C          -3.6962    9.0937    0.0037 C.ar    1  LIG1        0.1938
     26 O          -2.3446    8.7638   -0.0392 O.2     1  LIG1       -0.4453
     27 N          -4.2569    4.3751   -0.0040 N.1     1  LIG1       -0.1907
     28 C          -3.8748    5.4767    0.0020 C.1     1  LIG1        0.1050
     29 N          -5.8071    7.8123    0.1373 N.pl3   1  LIG1       -0.3539
     30 H          -6.3623    8.6307   -0.0602 H       1  LIG1        0.1425
     31 H          -6.2122    6.9226   -0.1133 H       1  LIG1        0.1425
     32 C          -4.0343   10.4677   -0.0142 C.ar    1  LIG1        0.1907
     33 C          -3.2676   11.6270   -0.0784 C.ar    1  LIG1        0.1211
     34 C          -4.1995   12.7366   -0.0778 C.ar    1  LIG1        0.0812
     35 C          -5.4431   12.1823   -0.0207 C.ar    1  LIG1        0.1146
     36 O          -5.3478   10.7941    0.0244 O.2     1  LIG1       -0.4565
     37 H          -6.4402   12.5861    0.0186 H       1  LIG1        0.1049
     38 N          -0.6978   11.7485   -0.2250 N.1     1  LIG1       -0.1907
     39 C          -1.8620   11.6977   -0.1522 C.1     1  LIG1        0.1049
     40 N          -3.8275   14.0736   -0.0594 N.pl3   1  LIG1       -0.3545
     41 H          -2.9343   14.2623   -0.4959 H       1  LIG1        0.1424
     42 H          -4.5389   14.7174   -0.3775 H       1  LIG1        0.1424
@<TRIPOS>BOND
     1    41    40    1
     2     6     1    1
     3    17    18    3
     4    42    40    1
     5     5     1   ar
     6     5     4   ar
     7    18    13    1
     8     1     2   ar
     9    38    39    3
    10    20    19    1
    11    13    12   ar
    12    13    14   ar
    13     4    12    1
    14     4     3   ar
    15    39    33    1
    16    12    16   ar
    17    21    19    1
    18    14    19    1
    19    14    15   ar
    20    31    29    1
    21    16    15   ar
    22    15    22    1
    23     2     3   ar
    24     2     8    1
    25    33    34   ar
    26    33    32   ar
    27    34    40    1
    28    34    35   ar
    29    30    29    1
    30    22    26   ar
    31    22    23   ar
    32    26    25   ar
    33    35    37    1
    34    35    36   ar
    35    32    25    1
    36    32    36   ar
    37    27    28    3
    38    23    28    1
    39    23    24   ar
    40    25    24   ar
    41     3     9    1
    42     8     7    3
    43    24    29    1
    44    11     9    1
    45    10     9    1
