@<TRIPOS>MOLECULE
mol_data/opt/b3lyp/geoms/mol2/12dh12dh-4dh12dh.out
 45 48 0 0 0
SMALL
GASTEIGER

@<TRIPOS>ATOM
      1 C          -0.0381    1.6852    0.2040 C.ar    1  LIG1        0.1119
      2 C           1.3296    1.6095    0.2789 C.ar    1  LIG1        0.1107
      3 C           1.8306    2.9645    0.1642 C.ar    1  LIG1        0.0917
      4 C           0.6918    3.7547    0.0314 C.ar    1  LIG1        0.1928
      5 O          -0.4402    2.9515    0.0555 O.2     1  LIG1       -0.4566
      6 H          -0.8064    0.9285    0.2408 H       1  LIG1        0.1043
      7 N           2.8234   -0.4788    0.5427 N.1     1  LIG1       -0.1907
      8 C           2.1272    0.4469    0.4266 C.1     1  LIG1        0.1042
      9 N           3.1367    3.3199    0.2277 N.pl3   1  LIG1       -0.3540
     10 H           3.8173    2.5788    0.1464 H       1  LIG1        0.1425
     11 H           3.4462    4.2217   -0.1231 H       1  LIG1        0.1425
     12 C           0.4845    5.1492   -0.1137 C.ar    1  LIG1        0.1916
     13 C          -0.6555    5.9219   -0.3178 C.ar    1  LIG1        0.1218
     14 C          -0.2124    7.2877   -0.3917 C.ar    1  LIG1        0.0894
     15 C           1.1607    7.2736   -0.2207 C.ar    1  LIG1        0.1590
     16 O           1.5686    5.9498   -0.0592 O.2     1  LIG1       -0.4484
     17 N          -3.1274    5.2668   -0.6336 N.1     1  LIG1       -0.1907
     18 C          -1.9981    5.5120   -0.4796 C.1     1  LIG1        0.1050
     19 N          -1.0535    8.3691   -0.5825 N.pl3   1  LIG1       -0.3540
     20 H          -0.6554    9.1299   -1.1182 H       1  LIG1        0.1425
     21 H          -1.9764    8.1131   -0.9133 H       1  LIG1        0.1425
     22 C           3.5451    8.0955   -0.4207 C.ar    1  LIG1        0.0633
     23 C           4.4367    9.1682   -0.3625 C.ar    1  LIG1       -0.0312
     24 C           2.1545    8.3167   -0.1735 C.ar    1  LIG1        0.0383
     25 C           4.0441   10.4827   -0.0746 C.ar    1  LIG1        0.0405
     26 H           5.4802    8.9583   -0.5621 H       1  LIG1        0.0638
     27 C           1.7613    9.6259    0.1256 C.ar    1  LIG1       -0.0284
     28 C           2.6503   10.7140    0.1742 C.ar    1  LIG1        0.0361
     29 H           0.7256    9.8139    0.3889 H       1  LIG1        0.0644
     30 N           4.5144    5.7761   -1.0510 N.1     1  LIG1       -0.1908
     31 C           4.0691    6.8143   -0.7657 C.1     1  LIG1        0.0999
     32 N           2.1417   11.9519    0.4541 N.pl3   1  LIG1       -0.3574
     33 H           2.7659   12.7190    0.6377 H       1  LIG1        0.1423
     34 H           1.2069   12.0101    0.8241 H       1  LIG1        0.1423
     35 C           5.0576   11.5241   -0.0144 C.ar    1  LIG1        0.1557
     36 C           6.4488   11.5060   -0.0308 C.ar    1  LIG1        0.1180
     37 C           6.9025   12.8784    0.0442 C.ar    1  LIG1        0.0811
     38 C           5.7724   13.6379    0.1034 C.ar    1  LIG1        0.1145
     39 O           4.6579   12.8205    0.0692 O.2     1  LIG1       -0.4597
     40 H           5.5828   14.6951    0.1780 H       1  LIG1        0.1049
     41 N           8.1288    9.5551   -0.1716 N.1     1  LIG1       -0.1907
     42 C           7.3371   10.4086   -0.1024 C.1     1  LIG1        0.1048
     43 N           8.2307   13.2611    0.1182 N.pl3   1  LIG1       -0.3545
     44 H           8.8837   12.5909   -0.2666 H       1  LIG1        0.1424
     45 H           8.4293   14.2040   -0.1849 H       1  LIG1        0.1424
@<TRIPOS>BOND
     1    20    19    1
     2    30    31    3
     3    21    19    1
     4    31    22    1
     5    17    18    3
     6    19    14    1
     7    26    23    1
     8    18    13    1
     9    22    23   ar
    10    22    24   ar
    11    14    13   ar
    12    14    15   ar
    13    23    25   ar
    14    13    12   ar
    15    44    43    1
    16    15    24    1
    17    15    16   ar
    18    45    43    1
    19    24    27   ar
    20    41    42    3
    21    11     9    1
    22    12    16   ar
    23    12     4    1
    24    42    36    1
    25    25    35    1
    26    25    28   ar
    27    36    35   ar
    28    36    37   ar
    29    35    39   ar
    30     4     5   ar
    31     4     3   ar
    32    37    38   ar
    33    37    43    1
    34     5     1   ar
    35    39    38   ar
    36    38    40    1
    37    27    28   ar
    38    27    29    1
    39    10     9    1
    40     3     9    1
    41     3     2   ar
    42    28    32    1
    43     1     6    1
    44     1     2   ar
    45     2     8    1
    46     8     7    3
    47    32    33    1
    48    32    34    1
