@<TRIPOS>MOLECULE
mol_data/opt/b3lyp/geoms/mol2/12dh12dh-12dh-12dh.out
 42 45 0 0 0
SMALL
GASTEIGER

@<TRIPOS>ATOM
      1 C           0.0526    1.7337   -0.0577 C.ar    1  LIG1        0.1119
      2 C           1.4196    1.7004   -0.1773 C.ar    1  LIG1        0.1107
      3 C           1.8678    3.0777   -0.1977 C.ar    1  LIG1        0.0917
      4 C           0.7027    3.8339   -0.0838 C.ar    1  LIG1        0.1928
      5 O          -0.3969    2.9913   -0.0008 O.2     1  LIG1       -0.4566
      6 H          -0.6849    0.9480   -0.0032 H       1  LIG1        0.1043
      7 N           2.9795   -0.3499   -0.3347 N.1     1  LIG1       -0.1907
      8 C           2.2553    0.5586   -0.2633 C.1     1  LIG1        0.1042
      9 N           3.1449    3.4869   -0.3414 N.pl3   1  LIG1       -0.3540
     10 H           3.8936    2.8181   -0.2465 H       1  LIG1        0.1425
     11 H           3.4128    4.4478   -0.1851 H       1  LIG1        0.1425
     12 C           0.4698    5.2274   -0.0401 C.ar    1  LIG1        0.1917
     13 C          -0.6856    5.9956    0.0692 C.ar    1  LIG1        0.1219
     14 C          -0.2735    7.3754    0.0607 C.ar    1  LIG1        0.0925
     15 C           1.1171    7.3613   -0.0649 C.ar    1  LIG1        0.1939
     16 O           1.5501    6.0310   -0.1209 O.2     1  LIG1       -0.4453
     17 N          -3.1628    5.3136    0.2605 N.1     1  LIG1       -0.1907
     18 C          -2.0297    5.5736    0.1743 C.1     1  LIG1        0.1050
     19 N          -1.1360    8.4098    0.2158 N.pl3   1  LIG1       -0.3539
     20 H          -0.8669    9.3592    0.0025 H       1  LIG1        0.1425
     21 H          -2.1224    8.2010    0.1750 H       1  LIG1        0.1425
     22 C           2.1405    8.3381   -0.1071 C.ar    1  LIG1        0.1918
     23 C           2.1564    9.7368   -0.2104 C.ar    1  LIG1        0.1219
     24 C           3.5363   10.1439   -0.1742 C.ar    1  LIG1        0.0925
     25 C           4.2720    8.9774   -0.0702 C.ar    1  LIG1        0.1938
     26 O           3.4134    7.8869   -0.0247 O.2     1  LIG1       -0.4453
     27 N           0.1764   11.3489   -0.5525 N.1     1  LIG1       -0.1907
     28 C           1.0681   10.6116   -0.3906 C.1     1  LIG1        0.1050
     29 N           3.9904   11.4332   -0.1911 N.pl3   1  LIG1       -0.3539
     30 H           4.9727   11.5663   -0.3794 H       1  LIG1        0.1425
     31 H           3.3709   12.1368   -0.5650 H       1  LIG1        0.1425
     32 C           5.6663    8.7302   -0.0263 C.ar    1  LIG1        0.1907
     33 C           6.4290    7.5706    0.0583 C.ar    1  LIG1        0.1211
     34 C           7.8174    7.9885    0.0442 C.ar    1  LIG1        0.0812
     35 C           7.7997    9.3476   -0.0507 C.ar    1  LIG1        0.1146
     36 O           6.4868    9.8067   -0.0888 O.2     1  LIG1       -0.4565
     37 H           8.5637   10.1056   -0.0754 H       1  LIG1        0.1049
     38 N           5.6263    5.1264    0.1755 N.1     1  LIG1       -0.1907
     39 C           5.9674    6.2410    0.1269 C.1     1  LIG1        0.1049
     40 N           8.8949    7.1267    0.1849 N.pl3   1  LIG1       -0.3545
     41 H           8.7190    6.1839   -0.1372 H       1  LIG1        0.1424
     42 H           9.7752    7.4818   -0.1620 H       1  LIG1        0.1424
@<TRIPOS>BOND
     1    31    29    1
     2    27    28    3
     3    28    23    1
     4    30    29    1
     5     9    10    1
     6     9     3    1
     7     9    11    1
     8     7     8    3
     9     8     2    1
    10    23    24   ar
    11    23    22   ar
    12     3     2   ar
    13     3     4   ar
    14    29    24    1
    15     2     1   ar
    16    24    25   ar
    17    42    40    1
    18    41    40    1
    19    16    15   ar
    20    16    12   ar
    21    22    15    1
    22    22    26   ar
    23    36    35   ar
    24    36    32   ar
    25     4    12    1
    26     4     5   ar
    27    37    35    1
    28    25    32    1
    29    25    26   ar
    30    15    14   ar
    31     1     6    1
    32     1     5   ar
    33    35    34   ar
    34    12    13   ar
    35    32    33   ar
    36    20    19    1
    37    34    33   ar
    38    34    40    1
    39    33    39    1
    40    14    13   ar
    41    14    19    1
    42    13    18    1
    43    39    38    3
    44    18    17    3
    45    21    19    1
