@<TRIPOS>MOLECULE
mol_data/opt/b3lyp/geoms/mol2/12dh12dh12dh12dh-.out
 42 45 0 0 0
SMALL
GASTEIGER

@<TRIPOS>ATOM
      1 C           0.2059    1.8039   -0.3311 C.ar    1  LIG1        0.1119
      2 C           1.5647    1.7506   -0.1437 C.ar    1  LIG1        0.1107
      3 C           2.0234    3.1191   -0.0311 C.ar    1  LIG1        0.0917
      4 C           0.8758    3.8983   -0.1730 C.ar    1  LIG1        0.1928
      5 O          -0.2220    3.0639   -0.3530 O.2     1  LIG1       -0.4566
      6 H          -0.5396    1.0338   -0.4582 H       1  LIG1        0.1043
      7 N           3.1301   -0.2961   -0.0035 N.1     1  LIG1       -0.1907
      8 C           2.3964    0.6057   -0.0682 C.1     1  LIG1        0.1042
      9 N           3.3114    3.4628    0.2221 N.pl3   1  LIG1       -0.3540
     10 H           4.0107    2.7386    0.1615 H       1  LIG1        0.1425
     11 H           3.6352    4.4128    0.1134 H       1  LIG1        0.1425
     12 C           0.5704    5.2881   -0.1366 C.ar    1  LIG1        0.1917
     13 C           1.3286    6.4603   -0.0819 C.ar    1  LIG1        0.1219
     14 C           0.4019    7.5651   -0.0439 C.ar    1  LIG1        0.0925
     15 C          -0.8656    6.9899   -0.0999 C.ar    1  LIG1        0.1939
     16 O          -0.7332    5.6057   -0.1509 O.2     1  LIG1       -0.4453
     17 N           3.8921    6.7174   -0.1308 N.1     1  LIG1       -0.1907
     18 C           2.7313    6.5928   -0.1033 C.1     1  LIG1        0.1050
     19 N           0.7802    8.8642    0.0802 N.pl3   1  LIG1       -0.3539
     20 H           1.7552    9.0840   -0.0540 H       1  LIG1        0.1425
     21 H           0.1272    9.6149   -0.0936 H       1  LIG1        0.1425
     22 C          -2.2071    7.4547   -0.0930 C.ar    1  LIG1        0.1918
     23 C          -2.8184    8.7136   -0.1425 C.ar    1  LIG1        0.1219
     24 C          -4.2403    8.4896   -0.0855 C.ar    1  LIG1        0.0925
     25 C          -4.4015    7.1179   -0.0205 C.ar    1  LIG1        0.1938
     26 O          -3.1617    6.5028   -0.0185 O.2     1  LIG1       -0.4453
     27 N          -1.6967   11.0172   -0.4152 N.1     1  LIG1       -0.1907
     28 C          -2.2011    9.9719   -0.2833 C.1     1  LIG1        0.1050
     29 N          -5.2048    9.4616   -0.0484 N.pl3   1  LIG1       -0.3539
     30 H          -4.9594   10.3641   -0.4284 H       1  LIG1        0.1425
     31 H          -6.1509    9.1589   -0.2277 H       1  LIG1        0.1425
     32 C          -5.5515    6.2860    0.0137 C.ar    1  LIG1        0.1907
     33 C          -5.7383    4.9102    0.0296 C.ar    1  LIG1        0.1211
     34 C          -7.1717    4.6929    0.0468 C.ar    1  LIG1        0.0812
     35 C          -7.7426    5.9305    0.0340 C.ar    1  LIG1        0.1146
     36 O          -6.7562    6.9090    0.0179 O.2     1  LIG1       -0.4565
     37 H          -8.7584    6.2863    0.0566 H       1  LIG1        0.1049
     38 N          -4.0412    2.9711   -0.0377 N.1     1  LIG1       -0.1907
     39 C          -4.7718    3.8795   -0.0002 C.1     1  LIG1        0.1049
     40 N          -7.7690    3.4443    0.1357 N.pl3   1  LIG1       -0.3545
     41 H          -8.7115    3.3922   -0.2252 H       1  LIG1        0.1424
     42 H          -7.1924    2.6863   -0.2065 H       1  LIG1        0.1424
@<TRIPOS>BOND
     1     6     1    1
     2    30    29    1
     3    27    28    3
     4     5     1   ar
     5     5     4   ar
     6     1     2   ar
     7    28    23    1
     8    31    29    1
     9    41    40    1
    10    42    40    1
    11     4    12    1
    12     4     3   ar
    13    16    12   ar
    14    16    15   ar
    15     2     8    1
    16     2     3   ar
    17    23    22   ar
    18    23    24   ar
    19    12    13   ar
    20    17    18    3
    21    18    13    1
    22    15    22    1
    23    15    14   ar
    24    21    19    1
    25    22    26   ar
    26    24    29    1
    27    24    25   ar
    28    13    14   ar
    29     8     7    3
    30    20    19    1
    31    14    19    1
    32    38    39    3
    33     3     9    1
    34    25    26   ar
    35    25    32    1
    36    39    33    1
    37    32    36   ar
    38    32    33   ar
    39    36    35   ar
    40    33    34   ar
    41    35    34   ar
    42    35    37    1
    43    34    40    1
    44    11     9    1
    45    10     9    1
