@<TRIPOS>MOLECULE
mol_data/opt/b3lyp/geoms/mol2/12dh12dh12dh-12dh-.out
 42 45 0 0 0
SMALL
GASTEIGER

@<TRIPOS>ATOM
      1 C           0.3122    1.6775   -0.2475 C.ar    1  LIG1        0.1119
      2 C           1.6736    1.6912   -0.0819 C.ar    1  LIG1        0.1107
      3 C           2.0709    3.0812   -0.0107 C.ar    1  LIG1        0.0917
      4 C           0.8872    3.8045   -0.1525 C.ar    1  LIG1        0.1928
      5 O          -0.1751    2.9174   -0.2926 O.2     1  LIG1       -0.4566
      6 H          -0.3955    0.8687   -0.3464 H       1  LIG1        0.1043
      7 N           3.3320   -0.2790    0.0838 N.1     1  LIG1       -0.1907
      8 C           2.5576    0.5870    0.0083 C.1     1  LIG1        0.1042
      9 N           3.3459    3.4875    0.2233 N.pl3   1  LIG1       -0.3540
     10 H           4.0712    2.7886    0.1621 H       1  LIG1        0.1425
     11 H           3.6322    4.4384    0.0387 H       1  LIG1        0.1425
     12 C           0.5317    5.1830   -0.1467 C.ar    1  LIG1        0.1917
     13 C           1.2602    6.3758   -0.2010 C.ar    1  LIG1        0.1219
     14 C           0.3071    7.4527   -0.1330 C.ar    1  LIG1        0.0925
     15 C          -0.9366    6.8431   -0.0617 C.ar    1  LIG1        0.1939
     16 O          -0.7843    5.4666   -0.0632 O.2     1  LIG1       -0.4453
     17 N           3.8008    6.6846   -0.5018 N.1     1  LIG1       -0.1907
     18 C           2.6511    6.5385   -0.3602 C.1     1  LIG1        0.1050
     19 N           0.5976    8.7820   -0.1036 N.pl3   1  LIG1       -0.3539
     20 H           1.5113    9.0805   -0.4074 H       1  LIG1        0.1425
     21 H          -0.1631    9.4352   -0.2187 H       1  LIG1        0.1425
     22 C          -2.2404    7.3872   -0.0110 C.ar    1  LIG1        0.1918
     23 C          -3.5176    6.8454    0.0644 C.ar    1  LIG1        0.1219
     24 C          -4.4429    7.9540    0.0810 C.ar    1  LIG1        0.0925
     25 C          -3.6662    9.1047   -0.0005 C.ar    1  LIG1        0.1938
     26 O          -2.3186    8.7362   -0.0516 O.2     1  LIG1       -0.4453
     27 N          -4.2972    4.3912    0.1641 N.1     1  LIG1       -0.1907
     28 C          -3.9013    5.4869    0.1206 C.1     1  LIG1        0.1050
     29 N          -5.7878    7.8033    0.2304 N.pl3   1  LIG1       -0.3539
     30 H          -6.4176    8.5542   -0.0155 H       1  LIG1        0.1425
     31 H          -6.1549    6.8703    0.1141 H       1  LIG1        0.1425
     32 C          -3.9082   10.5077   -0.0089 C.ar    1  LIG1        0.1907
     33 C          -5.0491   11.2989   -0.1432 C.ar    1  LIG1        0.1211
     34 C          -4.6147   12.6775   -0.0437 C.ar    1  LIG1        0.0812
     35 C          -3.2636   12.6282    0.1220 C.ar    1  LIG1        0.1146
     36 O          -2.8314   11.3118    0.1494 O.2     1  LIG1       -0.4565
     37 H          -2.4997   13.3772    0.2438 H       1  LIG1        0.1049
     38 N          -7.4588   10.5355   -0.6422 N.1     1  LIG1       -0.1907
     39 C          -6.3665   10.8781   -0.4077 C.1     1  LIG1        0.1049
     40 N          -5.4681   13.7722   -0.0542 N.pl3   1  LIG1       -0.3545
     41 H          -5.0318   14.6476   -0.3096 H       1  LIG1        0.1424
     42 H          -6.3283   13.6240   -0.5662 H       1  LIG1        0.1424
@<TRIPOS>BOND
     1    38    39    3
     2    42    40    1
     3    17    18    3
     4    39    33    1
     5    20    19    1
     6    18    13    1
     7     6     1    1
     8    41    40    1
     9     5     1   ar
    10     5     4   ar
    11     1     2   ar
    12    21    19    1
    13    13    12   ar
    14    13    14   ar
    15     4    12    1
    16     4     3   ar
    17    12    16   ar
    18    33    34   ar
    19    33    32   ar
    20    14    19    1
    21    14    15   ar
    22     2     3   ar
    23     2     8    1
    24    16    15   ar
    25    15    22    1
    26    40    34    1
    27    26    22   ar
    28    26    25   ar
    29    34    35   ar
    30    30    29    1
    31    22    23   ar
    32     3     9    1
    33    32    25    1
    34    32    36   ar
    35    25    24   ar
    36     8     7    3
    37    11     9    1
    38    23    24   ar
    39    23    28    1
    40    24    29    1
    41    31    29    1
    42    28    27    3
    43    35    36   ar
    44    35    37    1
    45    10     9    1
