@<TRIPOS>MOLECULE
mol_data/opt/b3lyp/geoms/mol2/12dh12dh.out
 22 23 0 0 0
SMALL
GASTEIGER

@<TRIPOS>ATOM
      1 C           0.1416    1.7892   -0.2255 C.ar    1  LIG1        0.1119
      2 C           1.5027    1.7843   -0.0617 C.ar    1  LIG1        0.1107
      3 C           1.9162    3.1687    0.0389 C.ar    1  LIG1        0.0917
      4 C           0.7463    3.9068   -0.0872 C.ar    1  LIG1        0.1928
      5 O          -0.3289    3.0392   -0.2462 O.2     1  LIG1       -0.4566
      6 H          -0.5755    0.9913   -0.3404 H       1  LIG1        0.1043
      7 N           3.1232   -0.2211    0.0586 N.1     1  LIG1       -0.1907
      8 C           2.3683    0.6638    0.0040 C.1     1  LIG1        0.1042
      9 N           3.1989    3.5623    0.2987 N.pl3   1  LIG1       -0.3540
     10 H           3.9096    2.8534    0.1867 H       1  LIG1        0.1425
     11 H           3.4944    4.4938    0.0384 H       1  LIG1        0.1425
     12 C           0.4202    5.2998   -0.0485 C.ar    1  LIG1        0.1907
     13 C           1.1688    6.4655   -0.1840 C.ar    1  LIG1        0.1211
     14 C           0.2518    7.5727   -0.0095 C.ar    1  LIG1        0.0812
     15 C          -0.9705    7.0049    0.1958 C.ar    1  LIG1        0.1146
     16 O          -0.8683    5.6268    0.1803 O.2     1  LIG1       -0.4565
     17 H          -1.9567    7.4016    0.3673 H       1  LIG1        0.1049
     18 N           3.6654    6.6616   -0.7930 N.1     1  LIG1       -0.1907
     19 C           2.5350    6.5744   -0.5124 C.1     1  LIG1        0.1049
     20 N           0.6223    8.9107    0.0012 N.pl3   1  LIG1       -0.3545
     21 H           1.4428    9.1194   -0.5534 H       1  LIG1        0.1424
     22 H          -0.1289    9.5583   -0.1948 H       1  LIG1        0.1424
@<TRIPOS>BOND
     1    18    19    3
     2    21    20    1
     3    19    13    1
     4     6     1    1
     5     5     1   ar
     6     5     4   ar
     7     1     2   ar
     8    22    20    1
     9    13    12   ar
    10    13    14   ar
    11     4    12    1
    12     4     3   ar
    13     2     8    1
    14     2     3   ar
    15    12    16   ar
    16    14    20    1
    17    14    15   ar
    18     8     7    3
    19    11     9    1
    20     3     9    1
    21    16    15   ar
    22    10     9    1
    23    15    17    1
