@<TRIPOS>MOLECULE
mol_data/opt/b3lyp/geoms/mol2/12dh12dh-12dh12dh-.out
 42 45 0 0 0
SMALL
GASTEIGER

@<TRIPOS>ATOM
      1 C           0.1438    1.7192   -0.0670 C.ar    1  LIG1        0.1119
      2 C           1.5164    1.7120   -0.0614 C.ar    1  LIG1        0.1107
      3 C           1.9397    3.0973   -0.0561 C.ar    1  LIG1        0.0917
      4 C           0.7545    3.8316   -0.0601 C.ar    1  LIG1        0.1928
      5 O          -0.3315    2.9683   -0.0662 O.2     1  LIG1       -0.4566
      6 H          -0.5810    0.9199   -0.0720 H       1  LIG1        0.1043
      7 N           3.1344   -0.2987   -0.0626 N.1     1  LIG1       -0.1907
      8 C           2.3812    0.5890   -0.0616 C.1     1  LIG1        0.1042
      9 N           3.2202    3.5199   -0.0417 N.pl3   1  LIG1       -0.3540
     10 H           3.9669    2.8444   -0.0654 H       1  LIG1        0.1425
     11 H           3.4757    4.4975   -0.0651 H       1  LIG1        0.1425
     12 C           0.4968    5.2217   -0.0591 C.ar    1  LIG1        0.1917
     13 C          -0.6685    5.9852   -0.0568 C.ar    1  LIG1        0.1219
     14 C          -0.2616    7.3691   -0.0573 C.ar    1  LIG1        0.0925
     15 C           1.1337    7.3512   -0.0599 C.ar    1  LIG1        0.1939
     16 O           1.5797    6.0297   -0.0609 O.2     1  LIG1       -0.4453
     17 N          -3.1435    5.2677   -0.0522 N.1     1  LIG1       -0.1907
     18 C          -2.0123    5.5490   -0.0543 C.1     1  LIG1        0.1050
     19 N          -1.1006    8.4232   -0.0613 N.pl3   1  LIG1       -0.3539
     20 H          -0.7803    9.3819   -0.0417 H       1  LIG1        0.1425
     21 H          -2.0951    8.2631   -0.0390 H       1  LIG1        0.1425
     22 C           2.1097    8.3621   -0.0621 C.ar    1  LIG1        0.1918
     23 C           3.5092    8.3367   -0.0761 C.ar    1  LIG1        0.1219
     24 C           3.9465    9.7080   -0.0690 C.ar    1  LIG1        0.0925
     25 C           2.7953   10.4767   -0.0572 C.ar    1  LIG1        0.1938
     26 O           1.6784    9.6430   -0.0483 O.2     1  LIG1       -0.4453
     27 N           4.9987    6.2351   -0.1299 N.1     1  LIG1       -0.1907
     28 C           4.3266    7.1892   -0.1013 C.1     1  LIG1        0.1050
     29 N           5.2436   10.1375   -0.0213 N.pl3   1  LIG1       -0.3539
     30 H           5.9560    9.4936   -0.3313 H       1  LIG1        0.1425
     31 H           5.4096   11.1106   -0.2308 H       1  LIG1        0.1425
     32 C           2.5588   11.8719   -0.0658 C.ar    1  LIG1        0.1907
     33 C           1.3897   12.6256   -0.0608 C.ar    1  LIG1        0.1211
     34 C           1.7976   14.0157   -0.0915 C.ar    1  LIG1        0.0812
     35 C           3.1603   14.0068   -0.1174 C.ar    1  LIG1        0.1146
     36 O           3.6318   12.6967   -0.0959 O.2     1  LIG1       -0.4565
     37 H           3.9126   14.7767   -0.1264 H       1  LIG1        0.1049
     38 N          -1.0144   11.6972   -0.0352 N.1     1  LIG1       -0.1907
     39 C           0.0725   12.1234   -0.0418 C.1     1  LIG1        0.1049
     40 N           0.9234   15.0911   -0.0235 N.pl3   1  LIG1       -0.3545
     41 H           1.2970   15.9662   -0.3645 H       1  LIG1        0.1424
     42 H           0.0047   14.9053   -0.4043 H       1  LIG1        0.1424
@<TRIPOS>BOND
     1    42    40    1
     2    41    40    1
     3    30    29    1
     4    31    29    1
     5    27    28    3
     6    37    35    1
     7    35    36   ar
     8    35    34   ar
     9    28    23    1
    10    36    32   ar
    11    34    33   ar
    12    34    40    1
    13    23    24   ar
    14    23    22   ar
    15     6     1    1
    16    24    25   ar
    17    24    29    1
    18     1     5   ar
    19     1     2   ar
    20     5     4   ar
    21    32    33   ar
    22    32    25    1
    23    10     9    1
    24    11     9    1
    25     7     8    3
    26    22    15    1
    27    22    26   ar
    28     8     2    1
    29     2     3   ar
    30    19    14    1
    31    19    20    1
    32    19    21    1
    33    16    15   ar
    34    16    12   ar
    35    33    39    1
    36     4    12    1
    37     4     3   ar
    38    15    14   ar
    39    12    13   ar
    40    14    13   ar
    41    25    26   ar
    42    13    18    1
    43     3     9    1
    44    18    17    3
    45    39    38    3
