@<TRIPOS>MOLECULE
mol_data/opt/b3lyp/geoms/mol2/12dh12dh12dh12dh.out
 42 45 0 0 0
SMALL
GASTEIGER

@<TRIPOS>ATOM
      1 C           0.4099    1.7606   -0.7148 C.ar    1  LIG1        0.1119
      2 C           1.7331    1.7441   -0.3567 C.ar    1  LIG1        0.1107
      3 C           2.1047    3.1138   -0.0705 C.ar    1  LIG1        0.0917
      4 C           0.9481    3.8583   -0.2953 C.ar    1  LIG1        0.1928
      5 O          -0.0771    3.0020   -0.6858 O.2     1  LIG1       -0.4566
      6 H          -0.2679    0.9735   -1.0071 H       1  LIG1        0.1043
      7 N           3.3606   -0.2515   -0.1858 N.1     1  LIG1       -0.1907
      8 C           2.6022    0.6278   -0.2696 C.1     1  LIG1        0.1042
      9 N           3.3299    3.4789    0.3906 N.pl3   1  LIG1       -0.3540
     10 H           4.0626    2.7862    0.3464 H       1  LIG1        0.1425
     11 H           3.6335    4.4416    0.3500 H       1  LIG1        0.1425
     12 C           0.5880    5.2328   -0.1819 C.ar    1  LIG1        0.1917
     13 C           1.3157    6.4116   -0.0180 C.ar    1  LIG1        0.1219
     14 C           0.3654    7.4941    0.0510 C.ar    1  LIG1        0.0925
     15 C          -0.8847    6.9018   -0.1031 C.ar    1  LIG1        0.1939
     16 O          -0.7227    5.5243   -0.2357 O.2     1  LIG1       -0.4453
     17 N           3.8734    6.7198    0.0417 N.1     1  LIG1       -0.1907
     18 C           2.7152    6.5730    0.0179 C.1     1  LIG1        0.1050
     19 N           0.7131    8.7878    0.2921 N.pl3   1  LIG1       -0.3539
     20 H           1.6916    9.0216    0.2119 H       1  LIG1        0.1425
     21 H           0.0723    9.5378    0.0720 H       1  LIG1        0.1425
     22 C          -2.2300    7.3646   -0.1116 C.ar    1  LIG1        0.1918
     23 C          -2.8184    8.6277   -0.2031 C.ar    1  LIG1        0.1219
     24 C          -4.2465    8.4400   -0.1235 C.ar    1  LIG1        0.0925
     25 C          -4.4365    7.0688   -0.0196 C.ar    1  LIG1        0.1938
     26 O          -3.1967    6.4340   -0.0080 O.2     1  LIG1       -0.4453
     27 N          -1.6658   10.9016   -0.5764 N.1     1  LIG1       -0.1907
     28 C          -2.1838    9.8691   -0.4028 C.1     1  LIG1        0.1050
     29 N          -5.1459    9.4679   -0.0845 N.pl3   1  LIG1       -0.3539
     30 H          -4.7965   10.3759   -0.3551 H       1  LIG1        0.1425
     31 H          -6.1065    9.2961   -0.3503 H       1  LIG1        0.1425
     32 C          -5.5711    6.2138    0.1167 C.ar    1  LIG1        0.1907
     33 C          -6.9394    6.3864   -0.0903 C.ar    1  LIG1        0.1211
     34 C          -7.5753    5.1343    0.2627 C.ar    1  LIG1        0.0812
     35 C          -6.5622    4.3007    0.6321 C.ar    1  LIG1        0.1146
     36 O          -5.3476    4.9553    0.5516 O.2     1  LIG1       -0.4565
     37 H          -6.5244    3.2780    0.9672 H       1  LIG1        0.1049
     38 N          -8.1345    8.4450   -1.0768 N.1     1  LIG1       -0.1907
     39 C          -7.5938    7.5133   -0.6244 C.1     1  LIG1        0.1049
     40 N          -8.9474    4.9193    0.2645 N.pl3   1  LIG1       -0.3545
     41 H          -9.4570    5.4877   -0.4000 H       1  LIG1        0.1424
     42 H          -9.2221    3.9483    0.2048 H       1  LIG1        0.1424
@<TRIPOS>BOND
     1    38    39    3
     2     6     1    1
     3     1     5   ar
     4     1     2   ar
     5     5     4   ar
     6    39    33    1
     7    27    28    3
     8    28    23    1
     9    41    40    1
    10     2     8    1
    11     2     3   ar
    12    30    29    1
    13    31    29    1
    14     4    12    1
    15     4     3   ar
    16     8     7    3
    17    16    12   ar
    18    16    15   ar
    19    23    24   ar
    20    23    22   ar
    21    12    13   ar
    22    24    29    1
    23    24    25   ar
    24    22    15    1
    25    22    26   ar
    26    15    14   ar
    27    33    32   ar
    28    33    34   ar
    29     3     9    1
    30    25    26   ar
    31    25    32    1
    32    13    18    1
    33    13    14   ar
    34    18    17    3
    35    14    19    1
    36    21    19    1
    37    32    36   ar
    38    42    40    1
    39    20    19    1
    40    34    40    1
    41    34    35   ar
    42    10     9    1
    43    11     9    1
    44    36    35   ar
    45    35    37    1
