@<TRIPOS>MOLECULE
mol_data/opt/b3lyp/geoms/mol2/12dh12dh-12dh.out
 32 34 0 0 0
SMALL
GASTEIGER

@<TRIPOS>ATOM
      1 C           0.1570    1.7614   -0.0134 C.ar    1  LIG1        0.1119
      2 C           1.5287    1.7619   -0.0607 C.ar    1  LIG1        0.1107
      3 C           1.9443    3.1496   -0.0841 C.ar    1  LIG1        0.0917
      4 C           0.7567    3.8771   -0.0456 C.ar    1  LIG1        0.1928
      5 O          -0.3242    3.0089   -0.0041 O.2     1  LIG1       -0.4566
      6 H          -0.5633    0.9587    0.0170 H       1  LIG1        0.1043
      7 N           3.1542   -0.2423   -0.1006 N.1     1  LIG1       -0.1907
      8 C           2.3983    0.6429   -0.0826 C.1     1  LIG1        0.1042
      9 N           3.2227    3.5788   -0.1592 N.pl3   1  LIG1       -0.3540
     10 H           3.9711    2.9082   -0.0883 H       1  LIG1        0.1425
     11 H           3.4732    4.5554   -0.0846 H       1  LIG1        0.1425
     12 C           0.4897    5.2670   -0.0410 C.ar    1  LIG1        0.1917
     13 C          -0.6781    6.0266   -0.0320 C.ar    1  LIG1        0.1219
     14 C          -0.2693    7.4084   -0.0323 C.ar    1  LIG1        0.0925
     15 C           1.1147    7.3993   -0.0462 C.ar    1  LIG1        0.1938
     16 O           1.5679    6.0841   -0.0479 O.2     1  LIG1       -0.4453
     17 N          -3.1535    5.3105   -0.0524 N.1     1  LIG1       -0.1907
     18 C          -2.0219    5.5898   -0.0387 C.1     1  LIG1        0.1050
     19 N          -1.1068    8.4845    0.0282 N.pl3   1  LIG1       -0.3539
     20 H          -0.7183    9.3874   -0.1977 H       1  LIG1        0.1425
     21 H          -2.0715    8.3348   -0.2275 H       1  LIG1        0.1425
     22 C           2.0897    8.4261   -0.0631 C.ar    1  LIG1        0.1907
     23 C           3.4802    8.4063   -0.0575 C.ar    1  LIG1        0.1211
     24 C           3.9113    9.7891   -0.0986 C.ar    1  LIG1        0.0812
     25 C           2.7716   10.5361   -0.1296 C.ar    1  LIG1        0.1146
     26 O           1.6541    9.7070   -0.1027 O.2     1  LIG1       -0.4565
     27 H           2.5718   11.5938   -0.1461 H       1  LIG1        0.1049
     28 N           4.9745    6.3075    0.0020 N.1     1  LIG1       -0.1907
     29 C           4.3009    7.2607   -0.0213 C.1     1  LIG1        0.1049
     30 N           5.2347   10.2005   -0.0328 N.pl3   1  LIG1       -0.3545
     31 H           5.8972    9.5340   -0.4077 H       1  LIG1        0.1424
     32 H           5.4090   11.1334   -0.3805 H       1  LIG1        0.1424
@<TRIPOS>BOND
     1    31    30    1
     2    32    30    1
     3    21    19    1
     4    20    19    1
     5     9    10    1
     6     9    11    1
     7     9     3    1
     8    27    25    1
     9    25    26   ar
    10    25    24   ar
    11    26    22   ar
    12     7     8    3
    13    24    23   ar
    14    24    30    1
    15     3     2   ar
    16     3     4   ar
    17     8     2    1
    18    22    23   ar
    19    22    15    1
    20     2     1   ar
    21    23    29    1
    22    17    18    3
    23    16    15   ar
    24    16    12   ar
    25    15    14   ar
    26     4    12    1
    27     4     5   ar
    28    12    13   ar
    29    18    13    1
    30    14    13   ar
    31    14    19    1
    32    29    28    3
    33     1     5   ar
    34     1     6    1
