@<TRIPOS>MOLECULE
mol_data/opt/b3lyp/geoms/mol2/12dh12dl12if-4hi.out
 50 53 0 0 0
SMALL
GASTEIGER

@<TRIPOS>ATOM
      1 C           0.5055    1.6468   -0.0060 C.ar    1  LIG1        0.1119
      2 C           1.8619    1.6764    0.1908 C.ar    1  LIG1        0.1107
      3 C           2.2499    3.0712    0.2198 C.ar    1  LIG1        0.0917
      4 C           1.0706    3.7801    0.0200 C.ar    1  LIG1        0.1929
      5 O           0.0145    2.8842   -0.1115 O.2     1  LIG1       -0.4566
      6 H          -0.1947    0.8304   -0.0917 H       1  LIG1        0.1043
      7 N           3.5122   -0.2885    0.4691 N.1     1  LIG1       -0.1907
      8 C           2.7444    0.5778    0.3438 C.1     1  LIG1        0.1042
      9 N           3.5182    3.4998    0.4895 N.pl3   1  LIG1       -0.3540
     10 H           4.2427    2.7977    0.4431 H       1  LIG1        0.1425
     11 H           3.8073    4.4223    0.1926 H       1  LIG1        0.1425
     12 C           0.7140    5.1640   -0.0293 C.ar    1  LIG1        0.1936
     13 C           1.4309    6.3421   -0.2112 C.ar    1  LIG1        0.1428
     14 C           0.4658    7.4143   -0.1371 C.ar    1  LIG1        0.1869
     15 C          -0.7597    6.8349    0.0805 C.ar    1  LIG1        0.2137
     16 O          -0.5948    5.4635    0.1519 O.2     1  LIG1       -0.4434
     17 N           3.9555    6.5243   -0.6989 N.1     1  LIG1       -0.1906
     18 C           2.8118    6.4575   -0.4742 C.1     1  LIG1        0.1068
     19 O           0.7123    8.7442   -0.2321 O.3     1  LIG1       -0.4900
     20 C           1.2256    9.1952   -1.4968 C.3     1  LIG1        0.0790
     21 H           1.3116   10.2791   -1.4143 H       1  LIG1        0.0660
     22 H           2.2118    8.7684   -1.7042 H       1  LIG1        0.0660
     23 H           0.5345    8.9389   -2.3074 H       1  LIG1        0.0660
     24 C          -2.0998    7.3369    0.2343 C.ar    1  LIG1        0.1808
     25 C          -2.6252    8.5285    0.6806 C.ar    1  LIG1        0.0406
     26 C          -4.0438    8.3814    0.5594 C.ar    1  LIG1        0.1664
     27 C          -4.3029    7.1197    0.0484 C.ar    1  LIG1        0.1790
     28 O          -3.0957    6.4799   -0.1487 O.2     1  LIG1       -0.4475
     29 C          -1.9492    9.7345    1.2520 C.3     1  LIG1       -0.0325
     30 H          -2.4199   10.0145    2.2000 H       1  LIG1        0.0280
     31 H          -2.0509   10.5967    0.5825 H       1  LIG1        0.0280
     32 H          -0.8856    9.5638    1.4162 H       1  LIG1        0.0280
     33 O          -4.8990    9.3414    0.9624 O.3     1  LIG1       -0.5030
     34 H          -5.7913    9.1151    0.5940 H       1  LIG1        0.2923
     35 C          -6.7543    6.9234   -0.4625 C.ar    1  LIG1        0.0355
     36 C          -7.8923    6.1225   -0.5719 C.ar    1  LIG1       -0.0401
     37 C          -5.5052    6.3298   -0.1728 C.ar    1  LIG1        0.0418
     38 C          -7.8112    4.7396   -0.4376 C.ar    1  LIG1       -0.0571
     39 H          -8.8511    6.5906   -0.7847 H       1  LIG1        0.0636
     40 C          -5.4453    4.9248   -0.0835 C.ar    1  LIG1       -0.0463
     41 C          -6.5750    4.1179   -0.2120 C.ar    1  LIG1       -0.0497
     42 H          -4.4816    4.4695    0.1197 H       1  LIG1        0.0628
     43 H          -8.7128    4.1395   -0.5267 H       1  LIG1        0.0621
     44 N          -6.8370    8.3446   -0.6313 N.pl3   1  LIG1       -0.3574
     45 H          -6.2687    8.6496   -1.4209 H       1  LIG1        0.1423
     46 H          -7.7932    8.6423   -0.7987 H       1  LIG1        0.1423
     47 C          -6.4734    2.6139   -0.1085 C.3     1  LIG1       -0.0397
     48 H          -5.4930    2.3056    0.2640 H       1  LIG1        0.0278
     49 H          -6.6215    2.1366   -1.0849 H       1  LIG1        0.0278
     50 H          -7.2334    2.2068    0.5670 H       1  LIG1        0.0278
@<TRIPOS>BOND
     1    23    20    1
     2    22    20    1
     3    20    21    1
     4    20    19    1
     5    45    44    1
     6    49    47    1
     7    46    44    1
     8    39    36    1
     9    17    18    3
    10    44    35    1
    11    36    35   ar
    12    36    38   ar
    13    43    38    1
    14    18    13    1
    15    35    37   ar
    16    38    41   ar
    17    19    14    1
    18    41    47    1
    19    41    40   ar
    20    13    14   ar
    21    13    12   ar
    22    37    40   ar
    23    37    27    1
    24    28    27   ar
    25    28    24   ar
    26    14    15   ar
    27     5     1   ar
    28     5     4   ar
    29    47    48    1
    30    47    50    1
    31     6     1    1
    32    40    42    1
    33    12     4    1
    34    12    16   ar
    35     1     2   ar
    36     4     3   ar
    37    27    26   ar
    38    15    16   ar
    39    15    24    1
    40     2     3   ar
    41     2     8    1
    42    11     9    1
    43     3     9    1
    44    24    25   ar
    45     8     7    3
    46    10     9    1
    47    26    25   ar
    48    26    33    1
    49    31    29    1
    50    34    33    1
    51    25    29    1
    52    29    32    1
    53    29    30    1
