@<TRIPOS>MOLECULE
mol_data/opt/b3lyp/geoms/mol2/12dh12dh12dh.out
 32 34 0 0 0
SMALL
GASTEIGER

@<TRIPOS>ATOM
      1 C           0.2522    1.7338   -0.4418 C.ar    1  LIG1        0.1119
      2 C           1.5943    1.7270   -0.1622 C.ar    1  LIG1        0.1107
      3 C           1.9911    3.1084    0.0126 C.ar    1  LIG1        0.0917
      4 C           0.8294    3.8484   -0.1918 C.ar    1  LIG1        0.1928
      5 O          -0.2233    2.9804   -0.4651 O.2     1  LIG1       -0.4566
      6 H          -0.4474    0.9368   -0.6413 H       1  LIG1        0.1043
      7 N           3.2131   -0.2727    0.0419 N.1     1  LIG1       -0.1907
      8 C           2.4586    0.6088   -0.0538 C.1     1  LIG1        0.1042
      9 N           3.2441    3.4915    0.3823 N.pl3   1  LIG1       -0.3540
     10 H           3.9680    2.7901    0.3277 H       1  LIG1        0.1425
     11 H           3.5523    4.4428    0.2366 H       1  LIG1        0.1425
     12 C           0.4872    5.2329   -0.1443 C.ar    1  LIG1        0.1917
     13 C           1.2322    6.4107   -0.1212 C.ar    1  LIG1        0.1219
     14 C           0.2961    7.5066   -0.0424 C.ar    1  LIG1        0.0925
     15 C          -0.9621    6.9207   -0.0530 C.ar    1  LIG1        0.1938
     16 O          -0.8223    5.5364   -0.1088 O.2     1  LIG1       -0.4453
     17 N           3.7883    6.6815   -0.3044 N.1     1  LIG1       -0.1907
     18 C           2.6308    6.5540   -0.2175 C.1     1  LIG1        0.1050
     19 N           0.6680    8.8143    0.0927 N.pl3   1  LIG1       -0.3539
     20 H           1.6354    9.0255   -0.1056 H       1  LIG1        0.1425
     21 H           0.0202    9.5437   -0.1744 H       1  LIG1        0.1425
     22 C          -2.3038    7.4037    0.0214 C.ar    1  LIG1        0.1907
     23 C          -2.8893    8.6562   -0.1571 C.ar    1  LIG1        0.1211
     24 C          -4.3060    8.4933    0.0939 C.ar    1  LIG1        0.0812
     25 C          -4.4770    7.1719    0.3813 C.ar    1  LIG1        0.1146
     26 O          -3.2635    6.5115    0.3452 O.2     1  LIG1       -0.4565
     27 H          -5.3341    6.5682    0.6272 H       1  LIG1        0.1049
     28 N          -1.7473   10.8262   -0.9489 N.1     1  LIG1       -0.1907
     29 C          -2.2650    9.8443   -0.5848 C.1     1  LIG1        0.1049
     30 N          -5.2321    9.5280    0.0904 N.pl3   1  LIG1       -0.3545
     31 H          -4.9897   10.3002   -0.5173 H       1  LIG1        0.1424
     32 H          -6.1900    9.2364   -0.0492 H       1  LIG1        0.1424
@<TRIPOS>BOND
     1    28    29    3
     2     6     1    1
     3    29    23    1
     4    31    30    1
     5     5     1   ar
     6     5     4   ar
     7     1     2   ar
     8    17    18    3
     9    18    13    1
    10     4    12    1
    11     4     3   ar
    12    21    19    1
    13     2     8    1
    14     2     3   ar
    15    23    22   ar
    16    23    24   ar
    17    12    13   ar
    18    12    16   ar
    19    13    14   ar
    20    16    15   ar
    21    20    19    1
    22     8     7    3
    23    15    14   ar
    24    15    22    1
    25    32    30    1
    26    14    19    1
    27     3     9    1
    28    22    26   ar
    29    30    24    1
    30    24    25   ar
    31    11     9    1
    32    10     9    1
    33    26    25   ar
    34    25    27    1
