@<TRIPOS>MOLECULE
mol_data/opt/b3lyp/geoms/mol2/12dh12dh-12dh-12dh-.out
 42 45 0 0 0
SMALL
GASTEIGER

@<TRIPOS>ATOM
      1 C           0.1829    1.7159   -0.1538 C.ar    1  LIG1        0.1119
      2 C           1.5555    1.7709   -0.1371 C.ar    1  LIG1        0.1107
      3 C           1.9103    3.1718   -0.0909 C.ar    1  LIG1        0.0917
      4 C           0.6967    3.8500   -0.0885 C.ar    1  LIG1        0.1928
      5 O          -0.3487    2.9439   -0.1239 O.2     1  LIG1       -0.4566
      6 H          -0.5054    0.8857   -0.1861 H       1  LIG1        0.1043
      7 N           3.2743   -0.1537   -0.1867 N.1     1  LIG1       -0.1907
      8 C           2.4744    0.6917   -0.1629 C.1     1  LIG1        0.1042
      9 N           3.1664    3.6762   -0.0271 N.pl3   1  LIG1       -0.3540
     10 H           3.9518    3.0637   -0.1764 H       1  LIG1        0.1425
     11 H           3.3126    4.6717   -0.0962 H       1  LIG1        0.1425
     12 C           0.4130    5.2364   -0.0640 C.ar    1  LIG1        0.1917
     13 C          -0.7480    5.9982   -0.0400 C.ar    1  LIG1        0.1219
     14 C          -0.3404    7.3833   -0.0218 C.ar    1  LIG1        0.0925
     15 C           1.0547    7.3732   -0.0440 C.ar    1  LIG1        0.1939
     16 O           1.4917    6.0457   -0.0664 O.2     1  LIG1       -0.4453
     17 N          -3.2236    5.2826   -0.0267 N.1     1  LIG1       -0.1907
     18 C          -2.0924    5.5633   -0.0318 C.1     1  LIG1        0.1050
     19 N          -1.2142    8.4144    0.0399 N.pl3   1  LIG1       -0.3539
     20 H          -0.9226    9.3763   -0.0473 H       1  LIG1        0.1425
     21 H          -2.1990    8.2148   -0.0394 H       1  LIG1        0.1425
     22 C           2.0968    8.3347   -0.0433 C.ar    1  LIG1        0.1918
     23 C           2.1500    9.7307   -0.0618 C.ar    1  LIG1        0.1219
     24 C           3.5435   10.1051   -0.0407 C.ar    1  LIG1        0.0925
     25 C           4.2542    8.9119   -0.0307 C.ar    1  LIG1        0.1938
     26 O           3.3537    7.8460   -0.0284 O.2     1  LIG1       -0.4453
     27 N           0.1971   11.4083   -0.1601 N.1     1  LIG1       -0.1907
     28 C           1.0771   10.6417   -0.1100 C.1     1  LIG1        0.1050
     29 N           3.9766   11.3963    0.0390 N.pl3   1  LIG1       -0.3539
     30 H           4.9232   11.6264   -0.2317 H       1  LIG1        0.1425
     31 H           3.2945   12.1143   -0.1566 H       1  LIG1        0.1425
     32 C           5.6314    8.5476    0.0148 C.ar    1  LIG1        0.1907
     33 C           6.8250    9.2428   -0.1787 C.ar    1  LIG1        0.1211
     34 C           7.8997    8.2965    0.0400 C.ar    1  LIG1        0.0812
     35 C           7.2930    7.1104    0.3247 C.ar    1  LIG1        0.1146
     36 O           5.9163    7.2604    0.3165 O.2     1  LIG1       -0.4565
     37 H           7.6584    6.1247    0.5580 H       1  LIG1        0.1049
     38 N           7.1229   11.6837   -0.9479 N.1     1  LIG1       -0.1907
     39 C           6.9871   10.5790   -0.5923 C.1     1  LIG1        0.1049
     40 N           9.2494    8.6197    0.0147 N.pl3   1  LIG1       -0.3545
     41 H           9.8696    7.8377   -0.1453 H       1  LIG1        0.1424
     42 H           9.4786    9.4024   -0.5845 H       1  LIG1        0.1424
@<TRIPOS>BOND
     1    38    39    3
     2    39    33    1
     3    42    40    1
     4    30    29    1
     5     7     8    3
     6     6     1    1
     7    33    32   ar
     8    33    34   ar
     9    10     9    1
    10     8     2    1
    11    27    28    3
    12    31    29    1
    13     1     2   ar
    14     1     5   ar
    15    41    40    1
    16     2     3   ar
    17     5     4   ar
    18    28    23    1
    19    11     9    1
    20     3     4   ar
    21     3     9    1
    22     4    12    1
    23    16    12   ar
    24    16    15   ar
    25    12    13   ar
    26    23    22   ar
    27    23    24   ar
    28    20    19    1
    29    15    22    1
    30    15    14   ar
    31    22    26   ar
    32    24    25   ar
    33    24    29    1
    34    13    18    1
    35    13    14   ar
    36    21    19    1
    37    18    17    3
    38    25    26   ar
    39    25    32    1
    40    14    19    1
    41    40    34    1
    42    32    36   ar
    43    34    35   ar
    44    36    35   ar
    45    35    37    1
