@<TRIPOS>MOLECULE
mol_data/opt/b3lyp/geoms/mol2/12dh.out
 12 12 0 0 0
SMALL
GASTEIGER

@<TRIPOS>ATOM
      1 C           0.1055    1.8829    0.0353 C.ar    1  LIG1        0.1109
      2 C           1.4769    1.8717   -0.0073 C.ar    1  LIG1        0.1100
      3 C           1.8965    3.2589   -0.0521 C.ar    1  LIG1        0.0804
      4 C           0.7398    3.9851   -0.0361 C.ar    1  LIG1        0.1136
      5 O          -0.3521    3.1430    0.0200 O.2     1  LIG1       -0.4678
      6 H          -0.6262    1.0916    0.0727 H       1  LIG1        0.1043
      7 H           0.5238    5.0401   -0.0459 H       1  LIG1        0.1049
      8 N           3.0799   -0.1521   -0.0493 N.1     1  LIG1       -0.1907
      9 C           2.3357    0.7433   -0.0237 C.1     1  LIG1        0.1042
     10 N           3.2168    3.6896   -0.0329 N.pl3   1  LIG1       -0.3545
     11 H           3.8760    3.0173   -0.4039 H       1  LIG1        0.1424
     12 H           3.3691    4.6109   -0.4198 H       1  LIG1        0.1424
@<TRIPOS>BOND
     1    12    10    1
     2    11    10    1
     3     3     4   ar
     4     3    10    1
     5     3     2   ar
     6     8     9    3
     7     7     4    1
     8     4     5   ar
     9     9     2    1
    10     2     1   ar
    11     5     1   ar
    12     1     6    1
