@<TRIPOS>MOLECULE
mol_data/opt/b3lyp/geoms/mol2/12di12ah-6he6hd-12fa-12fl-13da4ed.out
 89 96 0 0 0
SMALL
GASTEIGER

@<TRIPOS>ATOM
      1 C           0.8247    1.5458   -0.2372 C.ar    1  LIG1        0.1103
      2 C           2.1836    1.7168   -0.2030 C.ar    1  LIG1        0.0930
      3 C           2.4329    3.1385   -0.2403 C.ar    1  LIG1        0.0157
      4 C           1.1871    3.7151   -0.3027 C.ar    1  LIG1        0.1739
      5 O           0.2086    2.7446   -0.2993 O.2     1  LIG1       -0.4582
      6 H           0.1939    0.6716   -0.2194 H       1  LIG1        0.1043
      7 N           3.9819   -0.1342   -0.0636 N.1     1  LIG1       -0.1908
      8 C           3.1622    0.6892   -0.1272 C.1     1  LIG1        0.1026
      9 C           3.7685    3.8123   -0.2045 C.3     1  LIG1       -0.0348
     10 H           3.7382    4.7132    0.4165 H       1  LIG1        0.0279
     11 H           4.0999    4.1101   -1.2068 H       1  LIG1        0.0279
     12 H           4.5284    3.1414    0.2038 H       1  LIG1        0.0279
     13 C           0.7446    5.0801   -0.3711 C.ar    1  LIG1        0.1727
     14 C           1.3871    6.2637   -0.6393 C.ar    1  LIG1        0.0086
     15 C           0.4027    7.2939   -0.5638 C.ar    1  LIG1        0.0718
     16 C          -0.7971    6.6788   -0.2438 C.ar    1  LIG1        0.1597
     17 O          -0.5747    5.3166   -0.1281 O.2     1  LIG1       -0.4497
     18 H           2.4298    6.3879   -0.8914 H       1  LIG1        0.0675
     19 N           0.6392    8.6564   -0.7495 N.pl3   1  LIG1       -0.3550
     20 H           1.4540    8.8449   -1.3198 H       1  LIG1        0.1424
     21 H          -0.1630    9.1654   -1.1023 H       1  LIG1        0.1424
     22 C          -3.3275    6.4061   -0.2289 C.ar    1  LIG1        0.1277
     23 C          -2.1380    7.1853   -0.0291 C.ar    1  LIG1        0.0598
     24 C          -2.3370    8.5007    0.3878 C.ar    1  LIG1       -0.0302
     25 C          -3.6164    9.0695    0.5324 C.ar    1  LIG1        0.0515
     26 C          -4.7297    8.2387    0.2369 C.ar    1  LIG1        0.0918
     27 N          -4.5437    6.9498   -0.0951 N.ar    1  LIG1       -0.2304
     28 H          -1.4786    9.1116    0.6458 H       1  LIG1        0.0639
     29 N          -3.3018    5.0980   -0.5915 N.pl3   1  LIG1       -0.3426
     30 H          -4.1873    4.6088   -0.6428 H       1  LIG1        0.1437
     31 H          -2.4455    4.5730   -0.5295 H       1  LIG1        0.1437
     32 C          -3.7027   10.4062    1.0236 C.1     1  LIG1       -0.0675
     33 C          -3.7022   11.5405    1.4494 C.1     1  LIG1       -0.1138
     34 H          -3.7296   12.5341    1.8331 H       1  LIG1        0.1232
     35 C          -7.2404    7.8094    0.5402 C.ar    1  LIG1        0.1263
     36 C          -6.1384    8.6974    0.2625 C.ar    1  LIG1        0.0424
     37 C          -6.4928   10.0025   -0.0473 C.ar    1  LIG1       -0.0296
     38 C          -7.8337   10.4247   -0.0701 C.ar    1  LIG1        0.0816
     39 C          -8.8468    9.4786    0.2546 C.ar    1  LIG1        0.1290
     40 N          -8.5186    8.2142    0.5445 N.ar    1  LIG1       -0.2273
     41 H          -5.7267   10.7194   -0.3116 H       1  LIG1        0.0639
     42 N          -7.0498    6.5083    0.8618 N.pl3   1  LIG1       -0.3426
     43 H          -7.8906    5.9575    0.9354 H       1  LIG1        0.1437
     44 H          -6.1814    6.0817    0.5567 H       1  LIG1        0.1437
     45 N          -8.4349   12.8201   -0.8354 N.1     1  LIG1       -0.1908
     46 C          -8.1414   11.7411   -0.4959 C.1     1  LIG1        0.1014
     47 C         -10.2740    9.7554    0.2558 C.ar    1  LIG1        0.1964
     48 C         -11.1337   10.8472    0.4183 C.ar    1  LIG1        0.1649
     49 C         -12.4635   10.3425    0.3959 C.ar    1  LIG1        0.0297
     50 C         -12.3526    8.9849    0.2183 C.ar    1  LIG1        0.1781
     51 O         -11.0534    8.6195    0.1364 O.2     1  LIG1       -0.4462
     52 O         -10.9017   12.1516    0.6470 O.3     1  LIG1       -0.5031
     53 H         -10.0504   12.4465    0.2767 H       1  LIG1        0.2923
     54 H         -13.3681   10.9216    0.4979 H       1  LIG1        0.0693
     55 C         -13.3122    7.9337    0.0839 C.ar    1  LIG1        0.2157
     56 C         -14.6882    7.8944    0.0554 C.ar    1  LIG1        0.2092
     57 C         -15.0685    6.5330   -0.1338 C.ar    1  LIG1        0.2099
     58 C         -13.8999    5.7990   -0.2074 C.ar    1  LIG1        0.1984
     59 O         -12.8351    6.6548   -0.0786 O.2     1  LIG1       -0.4426
     60 O         -15.5265    8.9506    0.1893 O.3     1  LIG1       -0.5007
     61 H         -16.4055    8.6011    0.4001 H       1  LIG1        0.2924
     62 O         -16.3571    6.0996   -0.1355 O.3     1  LIG1       -0.4884
     63 C         -17.0524    6.2601   -1.3912 C.3     1  LIG1        0.0791
     64 H         -18.0730    5.9227   -1.2125 H       1  LIG1        0.0660
     65 H         -17.0499    7.3097   -1.7070 H       1  LIG1        0.0660
     66 H         -16.6000    5.6364   -2.1656 H       1  LIG1        0.0660
     67 C         -13.5388    4.4147   -0.3053 C.ar    1  LIG1        0.1039
     68 C         -14.2506    3.2359   -0.5929 C.ar    1  LIG1        0.0807
     69 C         -13.3348    2.1523   -0.5019 C.ar    1  LIG1       -0.0182
     70 C         -12.0898    2.6646   -0.1755 C.ar    1  LIG1        0.0495
     71 N         -12.2415    4.0398   -0.0775 N.ar    1  LIG1       -0.3506
     72 H         -11.5408    4.6972    0.2323 H       1  LIG1        0.1660
     73 N         -16.7202    2.9742   -1.2993 N.1     1  LIG1       -0.1908
     74 C         -15.6129    3.1157   -0.9657 C.1     1  LIG1        0.1014
     75 H         -13.5695    1.1181   -0.6893 H       1  LIG1        0.0652
     76 C         -10.6592    0.6736    0.4542 C.ar    1  LIG1        0.0338
     77 C          -9.3779    0.1121    0.6138 C.ar    1  LIG1       -0.0445
     78 C         -10.7899    2.0221    0.0063 C.ar    1  LIG1        0.0149
     79 C          -8.2271    0.8418    0.3651 C.ar    1  LIG1       -0.0432
     80 H          -9.3054   -0.9144    0.9550 H       1  LIG1        0.0630
     81 C          -9.6122    2.7439   -0.2536 C.ar    1  LIG1       -0.0341
     82 C          -8.3464    2.1725   -0.0696 C.ar    1  LIG1        0.0525
     83 H          -9.6746    3.7566   -0.6379 H       1  LIG1        0.0637
     84 H          -7.2477    0.3985    0.5030 H       1  LIG1        0.0631
     85 C         -11.7769   -0.1489    0.7853 C.1     1  LIG1       -0.0690
     86 C         -12.6693   -0.9068    1.0927 C.1     1  LIG1       -0.1139
     87 H         -13.4731   -1.5531    1.3629 H       1  LIG1        0.1232
     88 N          -6.1784    3.5338   -0.5020 N.1     1  LIG1       -0.1909
     89 C          -7.1592    2.9356   -0.3218 C.1     1  LIG1        0.0992
@<TRIPOS>BOND
     1    66    63    1
     2    65    63    1
     3    63    64    1
     4    63    62    1
     5    20    19    1
     6    73    74    3
     7    11     9    1
     8    21    19    1
     9    74    68    1
    10    18    14    1
    11    45    46    3
    12    19    15    1
    13    75    69    1
    14    30    29    1
    15    14    15   ar
    16    14    13   ar
    17    83    81    1
    18    68    69   ar
    19    68    67   ar
    20    29    31    1
    21    29    22    1
    22    15    16   ar
    23    88    89    3
    24    69    70   ar
    25    46    38    1
    26    13     4    1
    27    13    17   ar
    28    89    82    1
    29    41    37    1
    30    67    58    1
    31    67    71   ar
    32     4     5   ar
    33     4     3   ar
    34     5     1   ar
    35    81    82   ar
    36    81    78   ar
    37    16    17   ar
    38    16    23    1
    39     3     9    1
    40     3     2   ar
    41     1     6    1
    42     1     2   ar
    43    22    27   ar
    44    22    23   ar
    45    58    57   ar
    46    58    59   ar
    47     9    12    1
    48     9    10    1
    49     2     8    1
    50    70    71   ar
    51    70    78    1
    52    62    57    1
    53    57    56   ar
    54     8     7    3
    55    27    26   ar
    56    59    55   ar
    57    71    72    1
    58    38    37   ar
    59    38    39   ar
    60    82    79   ar
    61    37    36   ar
    62    23    24   ar
    63    78    76   ar
    64    56    55   ar
    65    56    60    1
    66    55    50    1
    67    51    50   ar
    68    51    47   ar
    69    60    61    1
    70    50    49   ar
    71    26    36    1
    72    26    25   ar
    73    39    47    1
    74    39    40   ar
    75    47    48   ar
    76    36    35   ar
    77    53    52    1
    78    79    84    1
    79    79    77   ar
    80    24    25   ar
    81    24    28    1
    82    49    48   ar
    83    49    54    1
    84    48    52    1
    85    76    77   ar
    86    76    85    1
    87    25    32    1
    88    35    40   ar
    89    35    42    1
    90    44    42    1
    91    77    80    1
    92    85    86    3
    93    42    43    1
    94    32    33    3
    95    86    87    1
    96    33    34    1
