@<TRIPOS>MOLECULE
mol_data/opt/b3lyp/geoms/mol2/12di13fa13lh13eh-.out
 48 51 0 0 0
SMALL
GASTEIGER

@<TRIPOS>ATOM
      1 C           0.3671    1.9285   -1.3534 C.ar    1  LIG1        0.1102
      2 C           1.6252    1.6840   -0.8799 C.ar    1  LIG1        0.0929
      3 C           2.0794    2.8831   -0.2066 C.ar    1  LIG1        0.0142
      4 C           1.0471    3.7825   -0.3387 C.ar    1  LIG1        0.1586
      5 O           0.0007    3.1918   -1.0393 O.2     1  LIG1       -0.4598
      6 H          -0.3452    1.3308   -1.8992 H       1  LIG1        0.1043
      7 N           2.9509   -0.5227   -1.1145 N.1     1  LIG1       -0.1908
      8 C           2.3472    0.4672   -1.0137 C.1     1  LIG1        0.1026
      9 C           3.3935    3.0112    0.4998 C.3     1  LIG1       -0.0348
     10 H           3.5455    4.0195    0.8810 H       1  LIG1        0.0279
     11 H           4.2218    2.7696   -0.1756 H       1  LIG1        0.0279
     12 H           3.4515    2.3070    1.3382 H       1  LIG1        0.0279
     13 C           0.7690    5.1405    0.0548 C.ar    1  LIG1        0.1248
     14 C           1.5414    6.2073    0.5130 C.ar    1  LIG1        0.1457
     15 C           0.7047    7.3319    0.6883 C.ar    1  LIG1        0.0075
     16 C          -0.5864    6.9518    0.3270 C.ar    1  LIG1        0.0706
     17 N          -0.5342    5.6271   -0.0336 N.ar    1  LIG1       -0.3476
     18 H          -1.2560    5.1183   -0.5180 H       1  LIG1        0.1661
     19 O           2.8855    6.1369    0.7438 O.3     1  LIG1       -0.5045
     20 H           3.1879    6.9976    1.0591 H       1  LIG1        0.2922
     21 H           0.9806    8.3032    1.0727 H       1  LIG1        0.0676
     22 C          -1.8002    7.7269    0.3294 C.ar    1  LIG1        0.1076
     23 C          -1.9719    9.1093    0.2883 C.ar    1  LIG1        0.1679
     24 C          -3.3608    9.4101    0.3000 C.ar    1  LIG1        0.0946
     25 C          -4.0365    8.1865    0.3397 C.ar    1  LIG1        0.0892
     26 N          -3.0674    7.1832    0.3818 N.ar    1  LIG1       -0.3474
     27 H          -3.2856    6.2089    0.2524 H       1  LIG1        0.1662
     28 O          -0.9813   10.0638    0.2789 O.3     1  LIG1       -0.4911
     29 C          -0.4387   10.3215   -1.0229 C.3     1  LIG1        0.0790
     30 H           0.2778   11.1377   -0.9053 H       1  LIG1        0.0660
     31 H           0.0763    9.4388   -1.4184 H       1  LIG1        0.0660
     32 H          -1.2238   10.6236   -1.7267 H       1  LIG1        0.0660
     33 N          -3.8899   10.6918    0.3987 N.pl3   1  LIG1       -0.3534
     34 H          -3.1890   11.4064    0.2520 H       1  LIG1        0.1425
     35 H          -4.7301   10.8539   -0.1449 H       1  LIG1        0.1425
     36 C          -5.4364    7.8679    0.4441 C.ar    1  LIG1        0.0822
     37 C          -6.5728    8.4852   -0.0992 C.ar    1  LIG1        0.0720
     38 C          -7.7263    7.7440    0.3502 C.ar    1  LIG1        0.0584
     39 C          -7.2672    6.7050    1.1255 C.ar    1  LIG1        0.0243
     40 N          -5.8756    6.7717    1.1481 N.ar    1  LIG1       -0.3569
     41 H          -5.3117    6.3241    1.8541 H       1  LIG1        0.1655
     42 H          -7.7995    5.9232    1.6444 H       1  LIG1        0.0826
     43 C          -6.6136    9.5645   -1.0095 C.1     1  LIG1       -0.0656
     44 C          -6.6897   10.4922   -1.7905 C.1     1  LIG1       -0.1138
     45 H          -6.7536   11.2776   -2.5070 H       1  LIG1        0.1232
     46 N          -9.0469    8.0880    0.0513 N.pl3   1  LIG1       -0.3559
     47 H          -9.1190    8.6670   -0.7768 H       1  LIG1        0.1424
     48 H          -9.6747    7.2969   -0.0101 H       1  LIG1        0.1424
@<TRIPOS>BOND
     1    45    44    1
     2     6     1    1
     3    44    43    3
     4    32    29    1
     5    31    29    1
     6     1     5   ar
     7     1     2   ar
     8     7     8    3
     9     5     4   ar
    10    29    30    1
    11    29    28    1
    12     8     2    1
    13    43    37    1
    14     2     3   ar
    15    47    46    1
    16    18    17    1
    17     4     3   ar
    18     4    13    1
    19     3     9    1
    20    11     9    1
    21    35    33    1
    22    37    38   ar
    23    37    36   ar
    24    17    13   ar
    25    17    16   ar
    26    48    46    1
    27    46    38    1
    28    13    14   ar
    29    34    33    1
    30    27    26    1
    31    28    23    1
    32    23    24   ar
    33    23    22   ar
    34    24    25   ar
    35    24    33    1
    36    16    22    1
    37    16    15   ar
    38    22    26   ar
    39    25    26   ar
    40    25    36    1
    41    38    39   ar
    42    36    40   ar
    43     9    10    1
    44     9    12    1
    45    14    15   ar
    46    14    19    1
    47    15    21    1
    48    19    20    1
    49    39    40   ar
    50    39    42    1
    51    40    41    1
