@<TRIPOS>MOLECULE
mol_data/opt/b3lyp/geoms/mol2/12di6ia-12df-6hf.out
 46 49 0 0 0
SMALL
GASTEIGER

@<TRIPOS>ATOM
      1 C           0.7095    1.6528   -1.0663 C.ar    1  LIG1        0.1102
      2 C           1.8615    1.6928   -0.3279 C.ar    1  LIG1        0.0929
      3 C           2.0373    3.0627    0.1005 C.ar    1  LIG1        0.0127
      4 C           0.9687    3.7479   -0.4217 C.ar    1  LIG1        0.1407
      5 O           0.1590    2.8795   -1.1311 O.2     1  LIG1       -0.4613
      6 H           0.1926    0.8550   -1.5761 H       1  LIG1        0.1043
      7 N           3.4191   -0.2907    0.2366 N.1     1  LIG1       -0.1908
      8 C           2.7110    0.5948   -0.0255 C.1     1  LIG1        0.1026
      9 C           3.1512    3.5664    0.9658 C.3     1  LIG1       -0.0349
     10 H           2.8913    4.5182    1.4341 H       1  LIG1        0.0279
     11 H           4.0735    3.7129    0.3914 H       1  LIG1        0.0279
     12 H           3.3793    2.8457    1.7568 H       1  LIG1        0.0279
     13 C          -0.7684    5.5817   -0.1878 C.ar    1  LIG1        0.0497
     14 C           0.5748    5.1558   -0.3764 C.ar    1  LIG1        0.0386
     15 C           1.5561    6.1499   -0.5043 C.ar    1  LIG1       -0.0472
     16 C           1.2131    7.4922   -0.4428 C.ar    1  LIG1       -0.0319
     17 C          -0.1386    7.8163   -0.2593 C.ar    1  LIG1        0.1077
     18 N          -1.0955    6.8739   -0.1353 N.ar    1  LIG1       -0.2480
     19 H           2.5887    5.8666   -0.6777 H       1  LIG1        0.0626
     20 C          -1.9099    4.6107   -0.0137 C.3     1  LIG1       -0.0216
     21 H          -1.6623    3.8254    0.7071 H       1  LIG1        0.0293
     22 H          -2.1552    4.1130   -0.9567 H       1  LIG1        0.0293
     23 H          -2.7876    5.1568    0.3331 H       1  LIG1        0.0293
     24 H           1.9693    8.2601   -0.5495 H       1  LIG1        0.0640
     25 C          -0.5960    9.1979   -0.1840 C.ar    1  LIG1        0.1748
     26 C           0.0401   10.4309   -0.1106 C.ar    1  LIG1        0.1409
     27 C          -0.9959   11.4154   -0.0173 C.ar    1  LIG1        0.1812
     28 C          -2.1991   10.7452   -0.0558 C.ar    1  LIG1        0.1817
     29 O          -1.9335    9.3980   -0.1512 O.2     1  LIG1       -0.4480
     30 N           2.5782   10.9000   -0.0772 N.1     1  LIG1       -0.1906
     31 C           1.4325   10.6929   -0.0905 C.1     1  LIG1        0.1067
     32 O          -0.7425   12.7386    0.1038 O.3     1  LIG1       -0.5023
     33 H          -1.5359   13.1861    0.4317 H       1  LIG1        0.2923
     34 C          -4.6322   10.3876    0.5507 C.ar    1  LIG1        0.1272
     35 C          -3.5793   11.1897    0.0067 C.ar    1  LIG1        0.0639
     36 C          -3.9113   12.4730   -0.4486 C.ar    1  LIG1       -0.0046
     37 C          -5.2152   12.9476   -0.3230 C.ar    1  LIG1        0.1357
     38 C          -6.1625   12.0937    0.2424 C.ar    1  LIG1        0.0711
     39 N          -5.8840   10.8541    0.6501 N.ar    1  LIG1       -0.2364
     40 H          -3.1728   13.0977   -0.9417 H       1  LIG1        0.0663
     41 H          -7.1970   12.4203    0.3600 H       1  LIG1        0.0867
     42 N          -4.4188    9.1233    1.0508 N.pl3   1  LIG1       -0.3426
     43 H          -5.2709    8.6240    1.2593 H       1  LIG1        0.1437
     44 H          -3.6522    8.5756    0.6892 H       1  LIG1        0.1437
     45 O          -5.4963   14.2099   -0.7717 O.3     1  LIG1       -0.5052
     46 H          -6.4392   14.3848   -0.6529 H       1  LIG1        0.2922
@<TRIPOS>BOND
     1     6     1    1
     2     5     1   ar
     3     5     4   ar
     4     1     2   ar
     5    22    20    1
     6    40    36    1
     7    45    46    1
     8    45    37    1
     9    19    15    1
    10    24    16    1
    11    15    16   ar
    12    15    14   ar
    13    36    37   ar
    14    36    35   ar
    15    16    17   ar
    16     4    14    1
    17     4     3   ar
    18    14    13   ar
    19     2     8    1
    20     2     3   ar
    21    37    38   ar
    22    17    25    1
    23    17    18   ar
    24    13    18   ar
    25    13    20    1
    26    25    29   ar
    27    25    26   ar
    28    29    28   ar
    29    26    31    1
    30    26    27   ar
    31    31    30    3
    32    28    27   ar
    33    28    35    1
    34     8     7    3
    35    27    32    1
    36    20    23    1
    37    20    21    1
    38    35    34   ar
    39     3     9    1
    40    32    33    1
    41    38    41    1
    42    38    39   ar
    43    11     9    1
    44    34    39   ar
    45    34    42    1
    46    44    42    1
    47     9    10    1
    48     9    12    1
    49    42    43    1
