@<TRIPOS>MOLECULE
mol_data/opt/b3lyp/geoms/mol2/12di13af-13ei-13fd-.out
 45 48 0 0 0
SMALL
GASTEIGER

@<TRIPOS>ATOM
      1 C           0.3275    1.7640    0.6336 C.ar    1  LIG1        0.1102
      2 C           1.6473    1.7183    0.2726 C.ar    1  LIG1        0.0929
      3 C           2.0342    3.0555   -0.1135 C.ar    1  LIG1        0.0141
      4 C           0.9001    3.8151    0.0445 C.ar    1  LIG1        0.1551
      5 O          -0.1402    3.0268    0.5005 O.2     1  LIG1       -0.4599
      6 H          -0.3663    1.0171    0.9840 H       1  LIG1        0.1043
      7 N           3.1809   -0.3623    0.2804 N.1     1  LIG1       -0.1908
      8 C           2.4802    0.5668    0.2808 C.1     1  LIG1        0.1026
      9 C           3.3874    3.4941   -0.5801 C.3     1  LIG1       -0.0348
     10 H           3.7789    4.3081    0.0400 H       1  LIG1        0.0279
     11 H           3.3588    3.8547   -1.6146 H       1  LIG1        0.0279
     12 H           4.0973    2.6649   -0.5352 H       1  LIG1        0.0279
     13 C           0.5968    5.2055   -0.1525 C.ar    1  LIG1        0.0864
     14 C           1.3878    6.2625   -0.5890 C.ar    1  LIG1        0.0089
     15 C           0.5979    7.4345   -0.5364 C.ar    1  LIG1        0.1442
     16 C          -0.6769    7.0836   -0.0703 C.ar    1  LIG1        0.1066
     17 N          -0.6555    5.7052    0.1289 N.ar    1  LIG1       -0.3476
     18 H          -1.3243    5.2075    0.6959 H       1  LIG1        0.1661
     19 H           2.4079    6.2121   -0.9353 H       1  LIG1        0.0676
     20 O           1.0490    8.6354   -0.9645 O.3     1  LIG1       -0.5046
     21 H           0.5181    9.3528   -0.5752 H       1  LIG1        0.2922
     22 C          -1.8886    7.8413    0.0857 C.ar    1  LIG1        0.0828
     23 C          -2.1143    9.1984    0.3493 C.ar    1  LIG1        0.0550
     24 C          -3.5362    9.4233    0.3698 C.ar    1  LIG1       -0.0076
     25 C          -4.1369    8.2049    0.1230 C.ar    1  LIG1        0.0711
     26 N          -3.1296    7.2434   -0.0117 N.ar    1  LIG1       -0.3505
     27 H          -3.2676    6.3876   -0.5299 H       1  LIG1        0.1660
     28 C          -1.1169   10.1631    0.6267 C.1     1  LIG1       -0.0672
     29 C          -0.2588   10.9923    0.8532 C.1     1  LIG1       -0.1138
     30 H           0.4846   11.7169    1.0938 H       1  LIG1        0.1232
     31 C          -4.2125   10.7280    0.6542 C.3     1  LIG1       -0.0365
     32 H          -5.1667   10.5733    1.1653 H       1  LIG1        0.0279
     33 H          -4.4283   11.2766   -0.2692 H       1  LIG1        0.0279
     34 H          -3.5802   11.3631    1.2806 H       1  LIG1        0.0279
     35 C          -5.5339    7.8355    0.0324 C.ar    1  LIG1        0.1065
     36 C          -6.6065    8.4428   -0.5996 C.ar    1  LIG1        0.1609
     37 C          -7.7690    7.6310   -0.3830 C.ar    1  LIG1        0.1110
     38 C          -7.3691    6.5358    0.3755 C.ar    1  LIG1        0.0233
     39 N          -6.0382    6.6649    0.6064 N.ar    1  LIG1       -0.3554
     40 H          -5.5030    6.0798    1.2284 H       1  LIG1        0.1655
     41 H          -7.9457    5.7052    0.7510 H       1  LIG1        0.0821
     42 O          -6.5306    9.5888   -1.3208 O.3     1  LIG1       -0.5034
     43 H          -7.4063    9.7937   -1.6788 H       1  LIG1        0.2923
     44 N         -10.0866    8.2283   -1.3457 N.1     1  LIG1       -0.1907
     45 C          -9.0570    7.9219   -0.8932 C.1     1  LIG1        0.1043
@<TRIPOS>BOND
     1    43    42    1
     2    11     9    1
     3    44    45    3
     4    42    36    1
     5    20    21    1
     6    20    15    1
     7    19    14    1
     8    45    37    1
     9    36    37   ar
    10    36    35   ar
    11    14    15   ar
    12    14    13   ar
    13     9    12    1
    14     9     3    1
    15     9    10    1
    16    15    16   ar
    17    27    26    1
    18    37    38   ar
    19    33    31    1
    20    13     4    1
    21    13    17   ar
    22     3     4   ar
    23     3     2   ar
    24    16    22    1
    25    16    17   ar
    26    26    22   ar
    27    26    25   ar
    28    35    25    1
    29    35    39   ar
    30     4     5   ar
    31    22    23   ar
    32    25    24   ar
    33    17    18    1
    34     2     8    1
    35     2     1   ar
    36     7     8    3
    37    23    24   ar
    38    23    28    1
    39    24    31    1
    40    38    39   ar
    41    38    41    1
    42     5     1   ar
    43    39    40    1
    44    28    29    3
    45     1     6    1
    46    31    32    1
    47    31    34    1
    48    29    30    1
