@<TRIPOS>MOLECULE
mol_data/opt/b3lyp/geoms/mol2/12dl12ai-6fa-12lf.out
 46 49 0 0 0
SMALL
GASTEIGER

@<TRIPOS>ATOM
      1 C           0.5532    1.3938   -0.5808 C.ar    1  LIG1        0.1138
      2 C           1.9199    1.4630   -0.4386 C.ar    1  LIG1        0.1317
      3 C           2.2120    2.8497   -0.1482 C.ar    1  LIG1        0.1862
      4 C           0.9984    3.5040   -0.1392 C.ar    1  LIG1        0.2123
      5 O          -0.0067    2.6024   -0.4032 O.2     1  LIG1       -0.4547
      6 H          -0.1087    0.5715   -0.8005 H       1  LIG1        0.1044
      7 N           3.4957   -0.5719   -0.6719 N.1     1  LIG1       -0.1906
      8 C           2.7940    0.3506   -0.5651 C.1     1  LIG1        0.1060
      9 O           3.3739    3.4925    0.0909 O.3     1  LIG1       -0.4900
     10 C           4.5976    2.7608   -0.0207 C.3     1  LIG1        0.0790
     11 H           5.3892    3.4830    0.1795 H       1  LIG1        0.0660
     12 H           4.6459    1.9514    0.7141 H       1  LIG1        0.0660
     13 H           4.7236    2.3484   -1.0268 H       1  LIG1        0.0660
     14 C           0.6505    4.8729    0.0932 C.ar    1  LIG1        0.1745
     15 C           1.3764    5.9831    0.4341 C.ar    1  LIG1       -0.0091
     16 C           0.4623    7.0754    0.5417 C.ar    1  LIG1       -0.0038
     17 C          -0.7889    6.5701    0.2446 C.ar    1  LIG1        0.1438
     18 O          -0.6693    5.2169   -0.0315 O.2     1  LIG1       -0.4512
     19 H           2.4422    6.0088    0.6055 H       1  LIG1        0.0659
     20 C           0.8348    8.4724    0.9447 C.3     1  LIG1       -0.0361
     21 H           0.0707    8.9256    1.5831 H       1  LIG1        0.0279
     22 H           0.9735    9.1303    0.0778 H       1  LIG1        0.0279
     23 H           1.7765    8.4680    1.5004 H       1  LIG1        0.0279
     24 C          -3.3184    6.3473    0.3181 C.ar    1  LIG1        0.2239
     25 C          -2.1287    7.1299    0.1826 C.ar    1  LIG1        0.0788
     26 C          -2.3273    8.5111    0.0120 C.ar    1  LIG1       -0.0438
     27 C          -3.5985    9.0614    0.0204 C.ar    1  LIG1       -0.0316
     28 C          -4.6913    8.1942    0.1936 C.ar    1  LIG1        0.1136
     29 N          -4.5356    6.8658    0.3297 N.ar    1  LIG1       -0.2092
     30 H          -1.4706    9.1566   -0.1416 H       1  LIG1        0.0627
     31 O          -3.2975    5.0036    0.4520 O.3     1  LIG1       -0.4919
     32 H          -2.3906    4.6787    0.3372 H       1  LIG1        0.2938
     33 H          -3.7561   10.1247   -0.1022 H       1  LIG1        0.0640
     34 C          -6.0560    8.7000    0.2211 C.ar    1  LIG1        0.1982
     35 C          -6.6005    9.9564    0.0337 C.ar    1  LIG1        0.2092
     36 C          -8.0179    9.8173    0.1999 C.ar    1  LIG1        0.1979
     37 C          -8.2405    8.4970    0.4705 C.ar    1  LIG1        0.1378
     38 O          -7.0622    7.8159    0.4932 O.2     1  LIG1       -0.4538
     39 H          -9.1329    7.9251    0.6719 H       1  LIG1        0.1069
     40 O          -5.8980   11.1003   -0.1961 O.3     1  LIG1       -0.4884
     41 C          -6.3376   11.8816   -1.3167 C.3     1  LIG1        0.0791
     42 H          -5.6656   12.7400   -1.3654 H       1  LIG1        0.0660
     43 H          -6.2620   11.3041   -2.2458 H       1  LIG1        0.0660
     44 H          -7.3666   12.2245   -1.1818 H       1  LIG1        0.0660
     45 O          -8.8937   10.8597    0.0969 O.3     1  LIG1       -0.5012
     46 H          -9.7915   10.5342    0.2424 H       1  LIG1        0.2924
@<TRIPOS>BOND
     1    43    41    1
     2    42    41    1
     3    41    44    1
     4    41    40    1
     5    13    10    1
     6     6     1    1
     7     7     8    3
     8     1     2   ar
     9     1     5   ar
    10     8     2    1
    11     2     3   ar
    12     5     4   ar
    13    40    35    1
    14     3     4   ar
    15     3     9    1
    16    30    26    1
    17     4    14    1
    18    33    27    1
    19    18    14   ar
    20    18    17   ar
    21    10     9    1
    22    10    11    1
    23    10    12    1
    24    26    27   ar
    25    26    25   ar
    26    27    28   ar
    27    35    36   ar
    28    35    34   ar
    29    22    20    1
    30    14    15   ar
    31    45    36    1
    32    45    46    1
    33    25    17    1
    34    25    24   ar
    35    28    34    1
    36    28    29   ar
    37    36    37   ar
    38    34    38   ar
    39    17    16   ar
    40    24    29   ar
    41    24    31    1
    42    32    31    1
    43    15    16   ar
    44    15    19    1
    45    37    38   ar
    46    37    39    1
    47    16    20    1
    48    20    23    1
    49    20    21    1
