@<TRIPOS>MOLECULE
mol_data/opt/b3lyp/geoms/mol2/12dl6le-12ee13ad-.out
 49 52 0 0 0
SMALL
GASTEIGER

@<TRIPOS>ATOM
      1 C           0.2462    1.5205   -0.0334 C.ar    1  LIG1        0.1137
      2 C           1.6161    1.5911    0.0520 C.ar    1  LIG1        0.1316
      3 C           1.9226    3.0029    0.1146 C.ar    1  LIG1        0.1832
      4 C           0.7164    3.6747    0.0586 C.ar    1  LIG1        0.1826
      5 O          -0.2970    2.7431   -0.0253 O.2     1  LIG1       -0.4576
      6 H          -0.4285    0.6817   -0.1022 H       1  LIG1        0.1044
      7 N           3.1821   -0.4624    0.1275 N.1     1  LIG1       -0.1906
      8 C           2.4832    0.4678    0.0921 C.1     1  LIG1        0.1060
      9 O           3.1122    3.6283    0.2415 O.3     1  LIG1       -0.4901
     10 C           4.2910    2.9532   -0.2176 C.3     1  LIG1        0.0790
     11 H           5.0853    3.6992   -0.1865 H       1  LIG1        0.0660
     12 H           4.5489    2.1152    0.4351 H       1  LIG1        0.0660
     13 H           4.1633    2.5945   -1.2441 H       1  LIG1        0.0660
     14 C          -0.8212    5.6541   -0.3859 C.ar    1  LIG1        0.2262
     15 C           0.3982    5.0919    0.1005 C.ar    1  LIG1        0.0836
     16 C           1.3109    6.0034    0.6283 C.ar    1  LIG1       -0.0282
     17 C           1.0500    7.3871    0.6526 C.ar    1  LIG1        0.0546
     18 C          -0.1717    7.8226    0.0954 C.ar    1  LIG1        0.1264
     19 N          -1.0801    6.9477   -0.3831 N.ar    1  LIG1       -0.2079
     20 H           2.2407    5.6438    1.0493 H       1  LIG1        0.0639
     21 O          -1.7398    4.8087   -0.8903 O.3     1  LIG1       -0.4792
     22 C          -2.9434    5.3809   -1.4132 C.3     1  LIG1        0.0804
     23 H          -3.5224    4.5350   -1.7845 H       1  LIG1        0.0660
     24 H          -3.4982    5.9087   -0.6327 H       1  LIG1        0.0660
     25 H          -2.7260    6.0830   -2.2222 H       1  LIG1        0.0660
     26 C           1.9704    8.2535    1.3104 C.1     1  LIG1       -0.0674
     27 C           2.7663    8.9400    1.9095 C.1     1  LIG1       -0.1138
     28 H           3.4535    9.5726    2.4219 H       1  LIG1        0.1232
     29 C          -0.5621    9.2285    0.0084 C.ar    1  LIG1        0.1717
     30 C           0.0713   10.3954   -0.3714 C.ar    1  LIG1        0.0880
     31 C          -0.9301   11.4445   -0.3146 C.ar    1  LIG1        0.0879
     32 C          -2.0997   10.8293    0.0838 C.ar    1  LIG1        0.1684
     33 O          -1.8831    9.4969    0.2695 O.2     1  LIG1       -0.4492
     34 C           1.3967   10.5667   -0.8348 C.1     1  LIG1       -0.0646
     35 C           2.5134   10.7481   -1.2615 C.1     1  LIG1       -0.1138
     36 H           3.5006   10.8945   -1.6341 H       1  LIG1        0.1232
     37 C          -0.7453   12.8111   -0.6242 C.1     1  LIG1       -0.0646
     38 C          -0.5862   13.9816   -0.8884 C.1     1  LIG1       -0.1138
     39 H          -0.4366   15.0099   -1.1241 H       1  LIG1        0.1232
     40 C          -3.4343   11.2951    0.3374 C.ar    1  LIG1        0.0846
     41 C          -4.0045   12.5552    0.2642 C.ar    1  LIG1       -0.0159
     42 C          -5.3759   12.4135    0.6287 C.ar    1  LIG1        0.0697
     43 C          -5.5997   11.0698    0.9136 C.ar    1  LIG1        0.0197
     44 N          -4.4245   10.4116    0.7335 N.ar    1  LIG1       -0.3570
     45 H          -4.2690    9.4237    0.8648 H       1  LIG1        0.1655
     46 H          -6.5009   10.5649    1.2246 H       1  LIG1        0.0820
     47 H          -3.4992   13.4654   -0.0165 H       1  LIG1        0.0653
     48 N          -7.1495   14.2906    0.7479 N.1     1  LIG1       -0.1908
     49 C          -6.3525   13.4438    0.6950 C.1     1  LIG1        0.1007
@<TRIPOS>BOND
     1    25    22    1
     2    23    22    1
     3    36    35    1
     4    22    21    1
     5    22    24    1
     6    35    34    3
     7    13    10    1
     8    39    38    1
     9    21    14    1
    10    38    37    3
    11    34    30    1
    12    37    31    1
    13    14    19   ar
    14    14    15   ar
    15    19    18   ar
    16    30    31   ar
    17    30    29   ar
    18    31    32   ar
    19    10    11    1
    20    10     9    1
    21    10    12    1
    22     6     1    1
    23     1     5   ar
    24     1     2   ar
    25     5     4   ar
    26    47    41    1
    27    29    18    1
    28    29    33   ar
    29     2     8    1
    30     2     3   ar
    31     4    15    1
    32     4     3   ar
    33    32    33   ar
    34    32    40    1
    35     8     7    3
    36    18    17   ar
    37    15    16   ar
    38     3     9    1
    39    41    40   ar
    40    41    42   ar
    41    40    44   ar
    42    16    17   ar
    43    16    20    1
    44    42    49    1
    45    42    43   ar
    46    17    26    1
    47    49    48    3
    48    44    45    1
    49    44    43   ar
    50    43    46    1
    51    26    27    3
    52    27    28    1
