@<TRIPOS>MOLECULE
mol_data/opt/b3lyp/geoms/mol2/12dl12hf-13hi-13fl-.out
 50 53 0 0 0
SMALL
GASTEIGER

@<TRIPOS>ATOM
      1 C           0.0543    1.5069   -0.2363 C.ar    1  LIG1        0.1138
      2 C           1.4158    1.4435   -0.3680 C.ar    1  LIG1        0.1317
      3 C           1.8765    2.8118   -0.3953 C.ar    1  LIG1        0.1862
      4 C           0.7574    3.6097   -0.2746 C.ar    1  LIG1        0.2143
      5 O          -0.3517    2.7968   -0.1845 O.2     1  LIG1       -0.4546
      6 H          -0.7118    0.7512   -0.1733 H       1  LIG1        0.1044
      7 N           2.8677   -0.6853   -0.5455 N.1     1  LIG1       -0.1906
      8 C           2.2040    0.2681   -0.4700 C.1     1  LIG1        0.1060
      9 O           3.1616    3.2368   -0.5828 O.3     1  LIG1       -0.4900
     10 C           4.0557    2.9608    0.5125 C.3     1  LIG1        0.0790
     11 H           5.0360    3.3251    0.2016 H       1  LIG1        0.0660
     12 H           3.7324    3.4903    1.4149 H       1  LIG1        0.0660
     13 H           4.1146    1.8859    0.7083 H       1  LIG1        0.0660
     14 C           0.5382    5.0225   -0.2471 C.ar    1  LIG1        0.1986
     15 C           1.3859    6.1156   -0.3061 C.ar    1  LIG1        0.1170
     16 C           0.5473    7.2713   -0.2356 C.ar    1  LIG1        0.1861
     17 C          -0.7531    6.8262   -0.1355 C.ar    1  LIG1        0.1968
     18 O          -0.7729    5.4506   -0.1390 O.2     1  LIG1       -0.4443
     19 N           2.7673    6.1713   -0.3563 N.pl3   1  LIG1       -0.3521
     20 H           3.2071    5.3554   -0.7635 H       1  LIG1        0.1425
     21 H           3.1129    7.0513   -0.7159 H       1  LIG1        0.1425
     22 O           1.0366    8.5268   -0.2860 O.3     1  LIG1       -0.5019
     23 H           0.2626    9.1536   -0.2154 H       1  LIG1        0.2924
     24 C          -2.0140    7.5022   -0.0522 C.ar    1  LIG1        0.1075
     25 C          -2.3330    8.8591   -0.0279 C.ar    1  LIG1        0.0570
     26 C          -3.7498    8.9920    0.0444 C.ar    1  LIG1       -0.0023
     27 C          -4.2714    7.7004    0.0510 C.ar    1  LIG1        0.0719
     28 N          -3.2042    6.8173    0.0126 N.ar    1  LIG1       -0.3487
     29 H          -3.2811    5.8230   -0.1359 H       1  LIG1        0.1661
     30 N          -1.3433    9.9052   -0.0466 N.pl3   1  LIG1       -0.3560
     31 H          -1.5186   10.5551   -0.8112 H       1  LIG1        0.1424
     32 H          -1.3752   10.4552    0.8110 H       1  LIG1        0.1424
     33 C          -4.5210   10.2741    0.1455 C.3     1  LIG1       -0.0359
     34 H          -5.2890   10.2147    0.9238 H       1  LIG1        0.0279
     35 H          -5.0404   10.5177   -0.7870 H       1  LIG1        0.0279
     36 H          -3.8578   11.1098    0.3928 H       1  LIG1        0.0279
     37 C          -5.6309    7.2178    0.1345 C.ar    1  LIG1        0.1090
     38 C          -6.8115    7.6842   -0.4163 C.ar    1  LIG1        0.1858
     39 C          -7.8583    6.8002   -0.0255 C.ar    1  LIG1        0.1793
     40 C          -7.3115    5.7999    0.7479 C.ar    1  LIG1        0.0482
     41 N          -5.9458    6.0322    0.8037 N.ar    1  LIG1       -0.3535
     42 H          -5.3761    5.6989    1.5668 H       1  LIG1        0.1656
     43 H          -7.7596    4.9484    1.2336 H       1  LIG1        0.0845
     44 O          -6.9562    8.7530   -1.2541 O.3     1  LIG1       -0.5019
     45 H          -7.8901    8.7865   -1.5067 H       1  LIG1        0.2924
     46 O          -9.1299    7.0114   -0.4765 O.3     1  LIG1       -0.4900
     47 C         -10.0895    6.0501   -0.0653 C.3     1  LIG1        0.0790
     48 H         -11.0422    6.3467   -0.5061 H       1  LIG1        0.0660
     49 H          -9.8184    5.0465   -0.4193 H       1  LIG1        0.0660
     50 H         -10.1839    6.0297    1.0285 H       1  LIG1        0.0660
@<TRIPOS>BOND
     1    45    44    1
     2    44    38    1
     3    31    30    1
     4    35    33    1
     5    20    19    1
     6    21    19    1
     7     9     3    1
     8     9    10    1
     9     7     8    3
    10    48    47    1
    11    46    47    1
    12    46    39    1
    13     8     2    1
    14    49    47    1
    15    38    39   ar
    16    38    37   ar
    17     3     2   ar
    18     3     4   ar
    19     2     1   ar
    20    19    15    1
    21    15    14   ar
    22    15    16   ar
    23    22    16    1
    24    22    23    1
    25     4    14    1
    26     4     5   ar
    27    14    18   ar
    28     1     5   ar
    29     1     6    1
    30    16    17   ar
    31    18    17   ar
    32    29    28    1
    33    17    24    1
    34    47    50    1
    35    24    25   ar
    36    24    28   ar
    37    30    25    1
    38    30    32    1
    39    25    26   ar
    40    39    40   ar
    41    28    27   ar
    42    26    27   ar
    43    26    33    1
    44    27    37    1
    45    37    41   ar
    46    33    36    1
    47    33    34    1
    48    11    10    1
    49    10    13    1
    50    10    12    1
    51    40    41   ar
    52    40    43    1
    53    41    42    1
