@<TRIPOS>MOLECULE
mol_data/opt/b3lyp/geoms/mol2/12dl12dl-4af-13hh.out
 49 52 0 0 0
SMALL
GASTEIGER

@<TRIPOS>ATOM
      1 C           0.4173    1.4283   -0.5074 C.ar    1  LIG1        0.1138
      2 C           1.7193    1.4458   -0.0739 C.ar    1  LIG1        0.1317
      3 C           2.0404    2.8399    0.1459 C.ar    1  LIG1        0.1862
      4 C           0.9095    3.5514   -0.1927 C.ar    1  LIG1        0.2137
      5 O          -0.0830    2.6742   -0.5781 O.2     1  LIG1       -0.4546
      6 H          -0.2422    0.6206   -0.7837 H       1  LIG1        0.1044
      7 N           3.2040   -0.6263    0.3439 N.1     1  LIG1       -0.1906
      8 C           2.5341    0.3063    0.1544 C.1     1  LIG1        0.1060
      9 O           3.1445    3.3858    0.6841 O.3     1  LIG1       -0.4900
     10 C           4.4156    3.0192    0.1122 C.3     1  LIG1        0.0790
     11 H           5.1587    3.5895    0.6674 H       1  LIG1        0.0660
     12 H           4.6047    1.9484    0.2254 H       1  LIG1        0.0660
     13 H           4.4543    3.3067   -0.9424 H       1  LIG1        0.0660
     14 C           0.5990    4.9504   -0.1998 C.ar    1  LIG1        0.1953
     15 C           1.3756    6.0960   -0.2675 C.ar    1  LIG1        0.1428
     16 C           0.4509    7.2023   -0.2226 C.ar    1  LIG1        0.1838
     17 C          -0.8189    6.6728   -0.1472 C.ar    1  LIG1        0.1787
     18 O          -0.7108    5.2967   -0.1356 O.2     1  LIG1       -0.4465
     19 N           3.9207    6.2786   -0.6523 N.1     1  LIG1       -0.1906
     20 C           2.7754    6.1760   -0.4659 C.1     1  LIG1        0.1068
     21 O           0.7432    8.5227   -0.3225 O.3     1  LIG1       -0.4901
     22 C           1.6495    9.0466    0.6633 C.3     1  LIG1        0.0790
     23 H           1.7233   10.1154    0.4599 H       1  LIG1        0.0660
     24 H           1.2559    8.8886    1.6735 H       1  LIG1        0.0660
     25 H           2.6404    8.5921    0.5767 H       1  LIG1        0.0660
     26 C          -2.3742    8.6220   -0.1825 C.ar    1  LIG1       -0.0501
     27 C          -3.6636    9.1301   -0.1279 C.ar    1  LIG1       -0.0484
     28 C          -2.1533    7.2359   -0.0959 C.ar    1  LIG1        0.0245
     29 C          -4.8077    8.3104    0.0004 C.ar    1  LIG1        0.0416
     30 H          -3.8031   10.2045   -0.1526 H       1  LIG1        0.0625
     31 C          -3.2727    6.3973    0.0547 C.ar    1  LIG1       -0.0087
     32 C          -4.5579    6.9174    0.1047 C.ar    1  LIG1        0.1267
     33 H          -3.1305    5.3225    0.1299 H       1  LIG1        0.0661
     34 H          -1.5320    9.2940   -0.2900 H       1  LIG1        0.0625
     35 O          -5.6415    6.0753    0.2585 O.3     1  LIG1       -0.5061
     36 H          -5.3241    5.1649    0.3141 H       1  LIG1        0.2922
     37 C          -6.1370    8.8936    0.0295 C.ar    1  LIG1        0.0728
     38 C          -6.5769   10.1768   -0.3285 C.ar    1  LIG1        0.0712
     39 C          -7.9708   10.2523   -0.0586 C.ar    1  LIG1        0.0637
     40 C          -8.3611    9.0205    0.4437 C.ar    1  LIG1        0.0249
     41 N          -7.2647    8.2133    0.4807 N.ar    1  LIG1       -0.3575
     42 H          -7.2415    7.2365    0.7237 H       1  LIG1        0.1654
     43 H          -9.3346    8.6670    0.7512 H       1  LIG1        0.0826
     44 N          -5.8444   11.2569   -0.8468 N.pl3   1  LIG1       -0.3549
     45 H          -5.2003   10.9792   -1.5806 H       1  LIG1        0.1424
     46 H          -6.4987   11.9459   -1.2118 H       1  LIG1        0.1424
     47 N          -8.7342   11.4221   -0.3433 N.pl3   1  LIG1       -0.3554
     48 H          -9.6843   11.1925   -0.6167 H       1  LIG1        0.1424
     49 H          -8.7894   12.0434    0.4607 H       1  LIG1        0.1424
@<TRIPOS>BOND
     1    45    44    1
     2    46    44    1
     3    13    10    1
     4    44    38    1
     5     6     1    1
     6    19    20    3
     7    48    47    1
     8     5     1   ar
     9     5     4   ar
    10     1     2   ar
    11    20    15    1
    12    47    39    1
    13    47    49    1
    14    38    39   ar
    15    38    37   ar
    16    21    16    1
    17    21    22    1
    18    34    26    1
    19    15    16   ar
    20    15    14   ar
    21    16    17   ar
    22    14     4    1
    23    14    18   ar
    24     4     3   ar
    25    26    27   ar
    26    26    28   ar
    27    30    27    1
    28    17    18   ar
    29    17    28    1
    30    27    29   ar
    31    28    31   ar
    32     2     3   ar
    33     2     8    1
    34    39    40   ar
    35    29    37    1
    36    29    32   ar
    37    37    41   ar
    38    31    32   ar
    39    31    33    1
    40    32    35    1
    41    10    12    1
    42    10    11    1
    43    10     9    1
    44     3     9    1
    45     8     7    3
    46    35    36    1
    47    40    41   ar
    48    40    43    1
    49    23    22    1
    50    41    42    1
    51    25    22    1
    52    22    24    1
