@<TRIPOS>MOLECULE
mol_data/opt/b3lyp/geoms/mol2/12ea12ea.out
 20 21 0 0 0
SMALL
GASTEIGER

@<TRIPOS>ATOM
      1 C           0.1834    1.8128    0.0000 C.ar    1  LIG1        0.1081
      2 C           1.5559    1.8564    0.0002 C.ar    1  LIG1        0.0630
      3 C           1.9013    3.2525    0.0002 C.ar    1  LIG1        0.0027
      4 C           0.7179    3.9425   -0.0000 C.ar    1  LIG1        0.1721
      5 O          -0.3366    3.0637   -0.0001 O.2     1  LIG1       -0.4585
      6 H          -0.5231    0.9984   -0.0000 H       1  LIG1        0.1042
      7 C           2.4416    0.7470    0.0004 C.1     1  LIG1       -0.0665
      8 C           3.2032   -0.1926    0.0004 C.1     1  LIG1       -0.1138
      9 H           3.8716   -1.0220   -0.0005 H       1  LIG1        0.1232
     10 H           2.8924    3.6774    0.0002 H       1  LIG1        0.0669
     11 C           0.4062    5.3454   -0.0001 C.ar    1  LIG1        0.1850
     12 C           1.2038    6.4789   -0.0001 C.ar    1  LIG1        0.0734
     13 C           0.2930    7.5955   -0.0002 C.ar    1  LIG1       -0.0077
     14 C          -0.9577    7.0702   -0.0003 C.ar    1  LIG1        0.0939
     15 O          -0.9072    5.7050   -0.0003 O.2     1  LIG1       -0.4586
     16 H          -1.9463    7.5007   -0.0004 H       1  LIG1        0.1030
     17 C           2.6182    6.5301    0.0001 C.1     1  LIG1       -0.0658
     18 C           3.8280    6.5860    0.0002 C.1     1  LIG1       -0.1138
     19 H           4.8920    6.6403    0.0001 H       1  LIG1        0.1232
     20 H           0.5648    8.6402   -0.0002 H       1  LIG1        0.0661
@<TRIPOS>BOND
     1     9     8    1
     2    16    14    1
     3    14    15   ar
     4    14    13   ar
     5    15    11   ar
     6    20    13    1
     7    13    12   ar
     8    11    12   ar
     9    11     4    1
    10     5     4   ar
    11     5     1   ar
    12    12    17    1
    13     6     1    1
    14     4     3   ar
    15     1     2   ar
    16    17    18    3
    17    19    18    1
    18     3     2   ar
    19     3    10    1
    20     2     7    1
    21     7     8    3
