@<TRIPOS>MOLECULE
mol_data/opt/b3lyp/geoms/mol2/12ea12ea-12ea.out
 29 31 0 0 0
SMALL
GASTEIGER

@<TRIPOS>ATOM
      1 C           0.1806    1.7734   -0.0000 C.ar    1  LIG1        0.1081
      2 C           1.5544    1.7903    0.0000 C.ar    1  LIG1        0.0630
      3 C           1.9262    3.1789    0.0000 C.ar    1  LIG1        0.0027
      4 C           0.7547    3.8900   -0.0000 C.ar    1  LIG1        0.1721
      5 O          -0.3156    3.0344   -0.0001 O.2     1  LIG1       -0.4585
      6 H          -0.5417    0.9730   -0.0000 H       1  LIG1        0.1042
      7 C           2.4173    0.6632    0.0001 C.1     1  LIG1       -0.0665
      8 C           3.1595   -0.2918    0.0001 C.1     1  LIG1       -0.1138
      9 H           3.8107   -1.1349    0.0002 H       1  LIG1        0.1232
     10 H           2.9243    3.5884    0.0000 H       1  LIG1        0.0669
     11 C           0.4894    5.2975   -0.0001 C.ar    1  LIG1        0.1860
     12 C          -0.6624    6.0724   -0.0001 C.ar    1  LIG1        0.0741
     13 C          -0.2148    7.4346   -0.0001 C.ar    1  LIG1        0.0035
     14 C           1.1545    7.4009   -0.0001 C.ar    1  LIG1        0.1731
     15 O           1.5895    6.1028   -0.0001 O.2     1  LIG1       -0.4473
     16 C          -2.0087    5.6318   -0.0001 C.1     1  LIG1       -0.0657
     17 C          -3.1700    5.2927   -0.0000 C.1     1  LIG1       -0.1138
     18 H          -4.1883    4.9802   -0.0001 H       1  LIG1        0.1232
     19 H          -0.8379    8.3152   -0.0001 H       1  LIG1        0.0669
     20 C           2.1508    8.4301   -0.0002 C.ar    1  LIG1        0.1850
     21 C           3.5368    8.4299   -0.0001 C.ar    1  LIG1        0.0734
     22 C           3.9224    9.8197   -0.0002 C.ar    1  LIG1       -0.0077
     23 C           2.7741   10.5409   -0.0002 C.ar    1  LIG1        0.0939
     24 O           1.6866    9.7136   -0.0002 O.2     1  LIG1       -0.4586
     25 H           2.5577   11.5973   -0.0003 H       1  LIG1        0.1030
     26 C           4.4133    7.3179   -0.0000 C.1     1  LIG1       -0.0658
     27 C           5.1982    6.3963    0.0000 C.1     1  LIG1       -0.1138
     28 H           5.8848    5.5818    0.0001 H       1  LIG1        0.1232
     29 H           4.9333   10.1985   -0.0002 H       1  LIG1        0.0661
@<TRIPOS>BOND
     1    25    23    1
     2    23    24   ar
     3    23    22   ar
     4    24    20   ar
     5    22    29    1
     6    22    21   ar
     7    20    14    1
     8    20    21   ar
     9    14    13   ar
    10    14    15   ar
    11    19    13    1
    12    21    26    1
    13    13    12   ar
    14    15    11   ar
    15    12    11   ar
    16    12    16    1
    17    11     4    1
    18    18    17    1
    19     5     4   ar
    20     5     1   ar
    21    16    17    3
    22     6     1    1
    23     4     3   ar
    24    26    27    3
    25     1     2   ar
    26     3    10    1
    27     3     2   ar
    28     2     7    1
    29    27    28    1
    30     7     8    3
    31     8     9    1
