@<TRIPOS>MOLECULE
mol_data/opt/b3lyp/geoms/mol2/12ea.out
 11 11 0 0 0
SMALL
GASTEIGER

@<TRIPOS>ATOM
      1 C           0.1721    1.9097    0.0000 C.ar    1  LIG1        0.1070
      2 C           1.5433    1.8972   -0.0000 C.ar    1  LIG1        0.0623
      3 C           1.9418    3.2870    0.0000 C.ar    1  LIG1       -0.0085
      4 C           0.7938    4.0099   -0.0001 C.ar    1  LIG1        0.0929
      5 O          -0.2948    3.1831   -0.0002 O.2     1  LIG1       -0.4698
      6 H          -0.5664    1.1240    0.0001 H       1  LIG1        0.1042
      7 H           0.5800    5.0668   -0.0001 H       1  LIG1        0.1029
      8 C           2.3873    0.7560    0.0001 C.1     1  LIG1       -0.0665
      9 C           3.1188   -0.2076    0.0002 C.1     1  LIG1       -0.1138
     10 H           3.7577   -1.0599    0.0003 H       1  LIG1        0.1232
     11 H           2.9534    3.6643    0.0001 H       1  LIG1        0.0661
@<TRIPOS>BOND
     1     5     4   ar
     2     5     1   ar
     3     7     4    1
     4     4     3   ar
     5     2     3   ar
     6     2     1   ar
     7     2     8    1
     8     3    11    1
     9     1     6    1
    10     8     9    3
    11     9    10    1
