@<TRIPOS>MOLECULE
mol_data/opt/b3lyp/geoms/mol2/12ea12ea-12ea12ea-.out
 38 41 0 0 0
SMALL
GASTEIGER

@<TRIPOS>ATOM
      1 C           0.1827    1.7168   -0.0001 C.ar    1  LIG1        0.1081
      2 C           1.5567    1.7306   -0.0001 C.ar    1  LIG1        0.0630
      3 C           1.9316    3.1182   -0.0001 C.ar    1  LIG1        0.0027
      4 C           0.7616    3.8319   -0.0001 C.ar    1  LIG1        0.1721
      5 O          -0.3107    2.9788   -0.0001 O.2     1  LIG1       -0.4585
      6 H          -0.5413    0.9180   -0.0001 H       1  LIG1        0.1042
      7 C           2.4170    0.6014   -0.0001 C.1     1  LIG1       -0.0665
      8 C           3.1570   -0.3553    0.0001 C.1     1  LIG1       -0.1138
      9 H           3.8062   -1.1999    0.0011 H       1  LIG1        0.1232
     10 H           2.9305    3.5256   -0.0000 H       1  LIG1        0.0669
     11 C           0.5007    5.2398   -0.0001 C.ar    1  LIG1        0.1860
     12 C          -0.6496    6.0186   -0.0001 C.ar    1  LIG1        0.0741
     13 C          -0.1993    7.3785   -0.0001 C.ar    1  LIG1        0.0035
     14 C           1.1713    7.3405   -0.0001 C.ar    1  LIG1        0.1732
     15 O           1.6034    6.0410   -0.0001 O.2     1  LIG1       -0.4473
     16 C          -1.9967    5.5801   -0.0001 C.1     1  LIG1       -0.0657
     17 C          -3.1582    5.2419   -0.0001 C.1     1  LIG1       -0.1138
     18 H          -4.1768    4.9302   -0.0000 H       1  LIG1        0.1232
     19 H          -0.8149    8.2645   -0.0001 H       1  LIG1        0.0669
     20 C           2.1613    8.3705   -0.0001 C.ar    1  LIG1        0.1860
     21 C           3.5509    8.3834   -0.0001 C.ar    1  LIG1        0.0741
     22 C           3.9265    9.7663   -0.0001 C.ar    1  LIG1        0.0035
     23 C           2.7644   10.4924   -0.0001 C.ar    1  LIG1        0.1731
     24 O           1.6863    9.6486   -0.0002 O.2     1  LIG1       -0.4473
     25 C           4.4328    7.2749   -0.0000 C.1     1  LIG1       -0.0657
     26 C           5.2193    6.3551   -0.0000 C.1     1  LIG1       -0.1138
     27 H           5.9088    5.5430   -0.0005 H       1  LIG1        0.1232
     28 H           4.9314   10.1588   -0.0001 H       1  LIG1        0.0669
     29 C           2.4997   11.8998   -0.0002 C.ar    1  LIG1        0.1850
     30 C           1.3418   12.6620   -0.0002 C.ar    1  LIG1        0.0734
     31 C           1.7845   14.0346   -0.0002 C.ar    1  LIG1       -0.0077
     32 C           3.1403   14.0052   -0.0002 C.ar    1  LIG1        0.0939
     33 O           3.5934   12.7162   -0.0002 O.2     1  LIG1       -0.4586
     34 H           3.9020   14.7683   -0.0003 H       1  LIG1        0.1030
     35 C          -0.0017   12.2155   -0.0001 C.1     1  LIG1       -0.0658
     36 C          -1.1643   11.8782   -0.0001 C.1     1  LIG1       -0.1138
     37 H          -2.1859   11.5763   -0.0001 H       1  LIG1        0.1232
     38 H           1.1488   14.9071   -0.0002 H       1  LIG1        0.0661
@<TRIPOS>BOND
     1    27    26    1
     2    34    32    1
     3    32    33   ar
     4    32    31   ar
     5    33    29   ar
     6    31    38    1
     7    31    30   ar
     8    29    30   ar
     9    29    23    1
    10    30    35    1
    11    24    23   ar
    12    24    20   ar
    13    23    22   ar
    14     6     1    1
    15     5     1   ar
    16     5     4   ar
    17    20    14    1
    18    20    21   ar
    19    15    14   ar
    20    15    11   ar
    21     1     2   ar
    22    37    36    1
    23    14    13   ar
    24    35    36    3
    25    22    21   ar
    26    22    28    1
    27    11     4    1
    28    11    12   ar
    29     4     3   ar
    30    13    12   ar
    31    13    19    1
    32    12    16    1
    33    21    25    1
    34    16    17    3
    35     2     3   ar
    36     2     7    1
    37     3    10    1
    38     7     8    3
    39    17    18    1
    40    26    25    3
    41     8     9    1
