@<TRIPOS>MOLECULE
mol_data/opt/b3lyp/geoms/mol2/12ea12ea12ea-12ea-.out
 38 41 0 0 0
SMALL
GASTEIGER

@<TRIPOS>ATOM
      1 C           0.3644    1.6543    0.0000 C.ar    1  LIG1        0.1081
      2 C           1.7356    1.7420   -0.0000 C.ar    1  LIG1        0.0630
      3 C           2.0354    3.1473    0.0000 C.ar    1  LIG1        0.0027
      4 C           0.8288    3.7995   -0.0000 C.ar    1  LIG1        0.1721
      5 O          -0.1963    2.8865   -0.0000 O.2     1  LIG1       -0.4585
      6 H          -0.3145    0.8168    0.0000 H       1  LIG1        0.1042
      7 C           2.6562    0.6615   -0.0000 C.1     1  LIG1       -0.0665
      8 C           3.4474   -0.2533   -0.0000 C.1     1  LIG1       -0.1138
      9 H           4.1421   -1.0608   -0.0002 H       1  LIG1        0.1232
     10 H           3.0121    3.6043    0.0001 H       1  LIG1        0.0669
     11 C           0.4760    5.1889   -0.0000 C.ar    1  LIG1        0.1860
     12 C           1.2435    6.3481   -0.0000 C.ar    1  LIG1        0.0741
     13 C           0.3133    7.4346   -0.0000 C.ar    1  LIG1        0.0035
     14 C          -0.9402    6.8773   -0.0001 C.ar    1  LIG1        0.1732
     15 O          -0.8464    5.5103   -0.0001 O.2     1  LIG1       -0.4473
     16 C           2.6568    6.4345    0.0000 C.1     1  LIG1       -0.0657
     17 C           3.8647    6.5186    0.0001 C.1     1  LIG1       -0.1138
     18 H           4.9270    6.6004    0.0001 H       1  LIG1        0.1232
     19 H           0.5486    8.4874   -0.0000 H       1  LIG1        0.0669
     20 C          -2.2460    7.4588   -0.0001 C.ar    1  LIG1        0.1860
     21 C          -3.5376    6.9467   -0.0001 C.ar    1  LIG1        0.0741
     22 C          -4.4077    8.0846   -0.0001 C.ar    1  LIG1        0.0035
     23 C          -3.6070    9.1972   -0.0002 C.ar    1  LIG1        0.1731
     24 O          -2.2872    8.8222   -0.0002 O.2     1  LIG1       -0.4473
     25 C          -3.9341    5.5873   -0.0000 C.1     1  LIG1       -0.0657
     26 C          -4.3058    4.4361    0.0000 C.1     1  LIG1       -0.1138
     27 H          -4.6153    3.4170    0.0002 H       1  LIG1        0.1232
     28 H          -5.4860    8.0715   -0.0002 H       1  LIG1        0.0669
     29 C          -3.8905   10.6025   -0.0003 C.ar    1  LIG1        0.1850
     30 C          -5.0804   11.3161   -0.0003 C.ar    1  LIG1        0.0734
     31 C          -4.7003   12.7053   -0.0004 C.ar    1  LIG1       -0.0077
     32 C          -3.3437   12.7325   -0.0003 C.ar    1  LIG1        0.0939
     33 O          -2.8353   11.4647   -0.0003 O.2     1  LIG1       -0.4586
     34 H          -2.6153   13.5276   -0.0003 H       1  LIG1        0.1030
     35 C          -6.3934   10.7891   -0.0003 C.1     1  LIG1       -0.0658
     36 C          -7.5217   10.3486   -0.0003 C.1     1  LIG1       -0.1138
     37 H          -8.5160    9.9660   -0.0004 H       1  LIG1        0.1232
     38 H          -5.3722   13.5502   -0.0004 H       1  LIG1        0.0661
@<TRIPOS>BOND
     1    37    36    1
     2    38    31    1
     3    31    32   ar
     4    31    30   ar
     5    34    32    1
     6    32    33   ar
     7    36    35    3
     8    30    35    1
     9    30    29   ar
    10    33    29   ar
    11    29    23    1
    12     9     8    1
    13    23    24   ar
    14    23    22   ar
    15    24    20   ar
    16    28    22    1
    17    22    21   ar
    18    20    21   ar
    19    20    14    1
    20    21    25    1
    21    14    15   ar
    22    14    13   ar
    23    15    11   ar
    24     5     4   ar
    25     5     1   ar
    26    25    26    3
    27    13    19    1
    28    13    12   ar
    29    11     4    1
    30    11    12   ar
    31     8     7    3
    32     2     7    1
    33     2     1   ar
    34     2     3   ar
    35     4     3   ar
    36    12    16    1
    37     1     6    1
    38    26    27    1
    39     3    10    1
    40    16    17    3
    41    17    18    1
