@<TRIPOS>MOLECULE
mol_data/opt/b3lyp/geoms/mol2/12ea12ea-12ea-12ea.out
 38 41 0 0 0
SMALL
GASTEIGER

@<TRIPOS>ATOM
      1 C           0.0053    1.7302   -0.0001 C.ar    1  LIG1        0.1081
      2 C           1.3790    1.6998   -0.0001 C.ar    1  LIG1        0.0630
      3 C           1.7975    3.0747   -0.0001 C.ar    1  LIG1        0.0027
      4 C           0.6515    3.8259   -0.0001 C.ar    1  LIG1        0.1721
      5 O          -0.4473    3.0075   -0.0000 O.2     1  LIG1       -0.4585
      6 H          -0.7440    0.9551   -0.0001 H       1  LIG1        0.1042
      7 C           2.2043    0.5448   -0.0001 C.1     1  LIG1       -0.0665
      8 C           2.9163   -0.4329   -0.0000 C.1     1  LIG1       -0.1138
      9 H           3.5395   -1.2969    0.0003 H       1  LIG1        0.1232
     10 H           2.8084    3.4510   -0.0001 H       1  LIG1        0.0669
     11 C           0.4386    5.2419   -0.0000 C.ar    1  LIG1        0.1860
     12 C          -0.6845    6.0590    0.0000 C.ar    1  LIG1        0.0741
     13 C          -0.1889    7.4027   -0.0000 C.ar    1  LIG1        0.0035
     14 C           1.1808    7.3201   -0.0001 C.ar    1  LIG1        0.1732
     15 O           1.5673    6.0041   -0.0001 O.2     1  LIG1       -0.4473
     16 C          -2.0460    5.6672    0.0001 C.1     1  LIG1       -0.0657
     17 C          -3.2183    5.3687    0.0001 C.1     1  LIG1       -0.1138
     18 H          -4.2470    5.0923   -0.0001 H       1  LIG1        0.1232
     19 H          -0.7766    8.3069    0.0000 H       1  LIG1        0.0669
     20 C           2.2175    8.3056   -0.0001 C.ar    1  LIG1        0.1860
     21 C           2.1898    9.6959   -0.0001 C.ar    1  LIG1        0.0741
     22 C           3.5576   10.1149   -0.0002 C.ar    1  LIG1        0.0035
     23 C           4.3178    8.9737   -0.0002 C.ar    1  LIG1        0.1731
     24 O           3.5080    7.8697   -0.0001 O.2     1  LIG1       -0.4473
     25 C           1.0417   10.5241   -0.0001 C.1     1  LIG1       -0.0657
     26 C           0.0643   11.2389   -0.0001 C.1     1  LIG1       -0.1138
     27 H          -0.7910   11.8743   -0.0002 H       1  LIG1        0.1232
     28 H           3.9211   11.1306   -0.0002 H       1  LIG1        0.0669
     29 C           5.7347    8.7635   -0.0002 C.ar    1  LIG1        0.1850
     30 C           6.5499    7.6424   -0.0001 C.ar    1  LIG1        0.0734
     31 C           7.9007    8.1483   -0.0002 C.ar    1  LIG1       -0.0077
     32 C           7.8091    9.5011   -0.0003 C.ar    1  LIG1        0.0939
     33 O           6.5008    9.8941   -0.0003 O.2     1  LIG1       -0.4586
     34 H           8.5364   10.2972   -0.0004 H       1  LIG1        0.1030
     35 C           6.1738    6.2777    0.0001 C.1     1  LIG1       -0.0658
     36 C           5.9069    5.0971    0.0002 C.1     1  LIG1       -0.1138
     37 H           5.6696    4.0586    0.0003 H       1  LIG1        0.1232
     38 H           8.8011    7.5529   -0.0001 H       1  LIG1        0.0661
@<TRIPOS>BOND
     1    34    32    1
     2    33    32   ar
     3    33    29   ar
     4    32    31   ar
     5    28    22    1
     6    29    23    1
     7    29    30   ar
     8    22    23   ar
     9    22    21   ar
    10    31    38    1
    11    31    30   ar
    12    27    26    1
    13    23    24   ar
    14    21    25    1
    15    21    20   ar
    16    25    26    3
    17    24    20   ar
    18    10     3    1
    19    20    14    1
    20    30    35    1
    21     6     1    1
    22    15    14   ar
    23    15    11   ar
    24     3     4   ar
    25     3     2   ar
    26     1     2   ar
    27     1     5   ar
    28    18    17    1
    29    14    13   ar
    30     4    11    1
    31     4     5   ar
    32     2     7    1
    33     7     8    3
    34    11    12   ar
    35     8     9    1
    36    13    12   ar
    37    13    19    1
    38    12    16    1
    39    35    36    3
    40    16    17    3
    41    36    37    1
