@<TRIPOS>MOLECULE
mol_data/opt/b3lyp/geoms/mol2/12ea12ea12ea12ea.out
 38 41 0 0 0
SMALL
GASTEIGER

@<TRIPOS>ATOM
      1 C           0.6298    1.6108   -0.0000 C.ar    1  LIG1        0.1081
      2 C           1.9930    1.7824   -0.0000 C.ar    1  LIG1        0.0630
      3 C           2.2063    3.2034    0.0000 C.ar    1  LIG1        0.0027
      4 C           0.9619    3.7802   -0.0000 C.ar    1  LIG1        0.1721
      5 O          -0.0052    2.8062   -0.0001 O.2     1  LIG1       -0.4585
      6 H           0.0030    0.7335   -0.0000 H       1  LIG1        0.1042
      7 C           2.9783    0.7604   -0.0000 C.1     1  LIG1       -0.0665
      8 C           3.8243   -0.1039   -0.0000 C.1     1  LIG1       -0.1138
      9 H           4.5672   -0.8674   -0.0001 H       1  LIG1        0.1232
     10 H           3.1531    3.7194    0.0001 H       1  LIG1        0.0669
     11 C           0.5235    5.1451   -0.0000 C.ar    1  LIG1        0.1860
     12 C           1.2183    6.3493    0.0000 C.ar    1  LIG1        0.0741
     13 C           0.2239    7.3769   -0.0000 C.ar    1  LIG1        0.0035
     14 C          -0.9944    6.7444   -0.0001 C.ar    1  LIG1        0.1732
     15 O          -0.8150    5.3838   -0.0001 O.2     1  LIG1       -0.4473
     16 C           2.6237    6.5229    0.0001 C.1     1  LIG1       -0.0657
     17 C           3.8241    6.6811    0.0001 C.1     1  LIG1       -0.1138
     18 H           4.8794    6.8274    0.0002 H       1  LIG1        0.1232
     19 H           0.3930    8.4419   -0.0000 H       1  LIG1        0.0669
     20 C          -2.3392    7.2328   -0.0001 C.ar    1  LIG1        0.1860
     21 C          -2.8651    8.5205   -0.0002 C.ar    1  LIG1        0.0741
     22 C          -4.2868    8.3640   -0.0002 C.ar    1  LIG1        0.0035
     23 C          -4.5334    7.0147   -0.0002 C.ar    1  LIG1        0.1731
     24 O          -3.3495    6.3217   -0.0002 O.2     1  LIG1       -0.4473
     25 C          -2.1410    9.7371   -0.0001 C.1     1  LIG1       -0.0657
     26 C          -1.5294   10.7821   -0.0001 C.1     1  LIG1       -0.1138
     27 H          -0.9986   11.7060   -0.0001 H       1  LIG1        0.1232
     28 H          -5.0248    9.1503   -0.0002 H       1  LIG1        0.0669
     29 C          -5.7457    6.2492   -0.0003 C.ar    1  LIG1        0.1850
     30 C          -7.0831    6.6193   -0.0003 C.ar    1  LIG1        0.0734
     31 C          -7.8271    5.3862   -0.0003 C.ar    1  LIG1       -0.0077
     32 C          -6.9108    4.3851   -0.0003 C.ar    1  LIG1        0.0939
     33 O          -5.6427    4.8913   -0.0002 O.2     1  LIG1       -0.4586
     34 H          -6.9837    3.3093   -0.0003 H       1  LIG1        0.1030
     35 C          -7.6070    7.9336   -0.0003 C.1     1  LIG1       -0.0658
     36 C          -8.0662    9.0545   -0.0004 C.1     1  LIG1       -0.1138
     37 H          -8.4762   10.0378   -0.0005 H       1  LIG1        0.1232
     38 H          -8.9022    5.2899   -0.0004 H       1  LIG1        0.0661
@<TRIPOS>BOND
     1    37    36    1
     2    38    31    1
     3    36    35    3
     4    35    30    1
     5    31    30   ar
     6    31    32   ar
     7    30    29   ar
     8    32    34    1
     9    32    33   ar
    10    29    33   ar
    11    29    23    1
    12    28    22    1
    13    23    22   ar
    14    23    24   ar
    15    22    21   ar
    16    24    20   ar
    17    21    25    1
    18    21    20   ar
    19     9     8    1
    20    25    26    3
    21    20    14    1
    22    26    27    1
    23    14    15   ar
    24    14    13   ar
    25    15    11   ar
    26     5     4   ar
    27     5     1   ar
    28    13    19    1
    29    13    12   ar
    30    11     4    1
    31    11    12   ar
    32     2     7    1
    33     2     1   ar
    34     2     3   ar
    35     6     1    1
    36     4     3   ar
    37     7     8    3
    38    12    16    1
    39     3    10    1
    40    16    17    3
    41    17    18    1
