@<TRIPOS>MOLECULE
mol_data/opt/b3lyp/geoms/mol2/12ea12ea12ea.out
 29 31 0 0 0
SMALL
GASTEIGER

@<TRIPOS>ATOM
      1 C           0.3222    1.6806    0.0001 C.ar    1  LIG1        0.1081
      2 C           1.6919    1.7867    0.0001 C.ar    1  LIG1        0.0630
      3 C           1.9731    3.1961    0.0001 C.ar    1  LIG1        0.0027
      4 C           0.7582    3.8320    0.0000 C.ar    1  LIG1        0.1721
      5 O          -0.2548    2.9055   -0.0000 O.2     1  LIG1       -0.4585
      6 H          -0.3460    0.8344    0.0001 H       1  LIG1        0.1042
      7 C           2.6270    0.7187    0.0001 C.1     1  LIG1       -0.0665
      8 C           3.4306   -0.1852    0.0001 C.1     1  LIG1       -0.1138
      9 H           4.1360   -0.9834   -0.0005 H       1  LIG1        0.1232
     10 H           2.9436    3.6661    0.0001 H       1  LIG1        0.0669
     11 C           0.3853    5.2168   -0.0000 C.ar    1  LIG1        0.1860
     12 C           1.1353    6.3863   -0.0000 C.ar    1  LIG1        0.0741
     13 C           0.1891    7.4602   -0.0001 C.ar    1  LIG1        0.0035
     14 C          -1.0559    6.8858   -0.0001 C.ar    1  LIG1        0.1731
     15 O          -0.9410    5.5185   -0.0001 O.2     1  LIG1       -0.4473
     16 C           2.5473    6.4936    0.0001 C.1     1  LIG1       -0.0657
     17 C           3.7538    6.5952    0.0001 C.1     1  LIG1       -0.1138
     18 H           4.8149    6.6916    0.0004 H       1  LIG1        0.1232
     19 H           0.4077    8.5162   -0.0001 H       1  LIG1        0.0669
     20 C          -2.3804    7.4356   -0.0002 C.ar    1  LIG1        0.1850
     21 C          -2.8485    8.7417   -0.0003 C.ar    1  LIG1        0.0734
     22 C          -4.2852    8.6392   -0.0003 C.ar    1  LIG1       -0.0077
     23 C          -4.5755    7.3137   -0.0003 C.ar    1  LIG1        0.0939
     24 O          -3.4308    6.5688   -0.0002 O.2     1  LIG1       -0.4586
     25 H          -5.4968    6.7534   -0.0003 H       1  LIG1        0.1030
     26 C          -2.0762    9.9273   -0.0002 C.1     1  LIG1       -0.0658
     27 C          -1.4251   10.9487   -0.0002 C.1     1  LIG1       -0.1138
     28 H          -0.8578   11.8505   -0.0001 H       1  LIG1        0.1232
     29 H          -4.9833    9.4626   -0.0004 H       1  LIG1        0.0661
@<TRIPOS>BOND
     1     9     8    1
     2    29    22    1
     3    22    23   ar
     4    22    21   ar
     5    25    23    1
     6    23    24   ar
     7    21    26    1
     8    21    20   ar
     9    26    27    3
    10    24    20   ar
    11    27    28    1
    12    20    14    1
    13    14    15   ar
    14    14    13   ar
    15    15    11   ar
    16    19    13    1
    17    13    12   ar
    18    11    12   ar
    19    11     4    1
    20     5     4   ar
    21     5     1   ar
    22    12    16    1
    23     4     3   ar
    24    16    17    3
    25     2     1   ar
    26     2     3   ar
    27     2     7    1
    28     1     6    1
    29     8     7    3
    30     3    10    1
    31    17    18    1
