@<TRIPOS>MOLECULE
mol_data/opt/b3lyp/geoms/mol2/12ea12ea-12ea12ea.out
 38 41 0 0 0
SMALL
GASTEIGER

@<TRIPOS>ATOM
      1 C           0.2121    1.7068   -0.0000 C.ar    1  LIG1        0.1081
      2 C           1.5856    1.7443   -0.0000 C.ar    1  LIG1        0.0630
      3 C           1.9365    3.1381   -0.0000 C.ar    1  LIG1        0.0027
      4 C           0.7544    3.8317   -0.0000 C.ar    1  LIG1        0.1721
      5 O          -0.3030    2.9600   -0.0001 O.2     1  LIG1       -0.4585
      6 H          -0.4980    0.8957   -0.0000 H       1  LIG1        0.1042
      7 C           2.4653    0.6302   -0.0000 C.1     1  LIG1       -0.0665
      8 C           3.2217   -0.3136    0.0001 C.1     1  LIG1       -0.1138
      9 H           3.8855   -1.1468    0.0009 H       1  LIG1        0.1232
     10 H           2.9283    3.5625    0.0000 H       1  LIG1        0.0669
     11 C           0.4682    5.2348   -0.0001 C.ar    1  LIG1        0.1860
     12 C          -0.6961    5.9922   -0.0001 C.ar    1  LIG1        0.0741
     13 C          -0.2707    7.3601   -0.0001 C.ar    1  LIG1        0.0035
     14 C           1.1004    7.3482   -0.0001 C.ar    1  LIG1        0.1732
     15 O           1.5558    6.0563   -0.0001 O.2     1  LIG1       -0.4473
     16 C          -2.0351    5.5296   -0.0000 C.1     1  LIG1       -0.0657
     17 C          -3.1905    5.1712   -0.0000 C.1     1  LIG1       -0.1138
     18 H          -4.2037    4.8423   -0.0004 H       1  LIG1        0.1232
     19 H          -0.9064    8.2318   -0.0001 H       1  LIG1        0.0669
     20 C           2.0763    8.3920   -0.0001 C.ar    1  LIG1        0.1860
     21 C           3.4657    8.4157   -0.0001 C.ar    1  LIG1        0.0741
     22 C           3.8316    9.8006   -0.0001 C.ar    1  LIG1        0.0035
     23 C           2.6645   10.5197   -0.0001 C.ar    1  LIG1        0.1731
     24 O           1.5902    9.6657   -0.0001 O.2     1  LIG1       -0.4473
     25 C           4.3573    7.3150   -0.0000 C.1     1  LIG1       -0.0657
     26 C           5.1513    6.4016   -0.0000 C.1     1  LIG1       -0.1138
     27 H           5.8476    5.5953   -0.0009 H       1  LIG1        0.1232
     28 H           4.8320   10.2034   -0.0001 H       1  LIG1        0.0669
     29 C           2.3869   11.9261   -0.0002 C.ar    1  LIG1        0.1850
     30 C           3.2125   13.0411   -0.0002 C.ar    1  LIG1        0.0734
     31 C           2.3290   14.1785   -0.0003 C.ar    1  LIG1       -0.0077
     32 C           1.0655   13.6837   -0.0002 C.ar    1  LIG1        0.0939
     33 O           1.0819   12.3179   -0.0002 O.2     1  LIG1       -0.4586
     34 H           0.0881   14.1389   -0.0003 H       1  LIG1        0.1030
     35 C           4.6273   13.0578   -0.0002 C.1     1  LIG1       -0.0658
     36 C           5.8382   13.0835   -0.0002 C.1     1  LIG1       -0.1138
     37 H           6.9033   13.1119    0.0005 H       1  LIG1        0.1232
     38 H           2.6258   15.2165   -0.0003 H       1  LIG1        0.0661
@<TRIPOS>BOND
     1    27    26    1
     2    18    17    1
     3    38    31    1
     4    34    32    1
     5    31    32   ar
     6    31    30   ar
     7    32    33   ar
     8    30    35    1
     9    30    29   ar
    10    35    36    3
    11    33    29   ar
    12    29    23    1
    13    36    37    1
    14    24    23   ar
    15    24    20   ar
    16    23    22   ar
    17    20    14    1
    18    20    21   ar
    19    22    28    1
    20    22    21   ar
    21    14    15   ar
    22    14    13   ar
    23    15    11   ar
    24    21    25    1
    25     5     4   ar
    26     5     1   ar
    27    13    19    1
    28    13    12   ar
    29    11    12   ar
    30    11     4    1
    31    12    16    1
    32     4     3   ar
    33    17    16    3
    34    26    25    3
    35     1     6    1
    36     1     2   ar
    37     2     7    1
    38     2     3   ar
    39     7     8    3
    40     3    10    1
    41     8     9    1
