@<TRIPOS>MOLECULE
mol_data/opt/b3lyp/geoms/mol2/12ea12ea12ea-12ea.out
 38 41 0 0 0
SMALL
GASTEIGER

@<TRIPOS>ATOM
      1 C           0.3814    1.6506   -0.0001 C.ar    1  LIG1        0.1081
      2 C           1.7511    1.7586   -0.0000 C.ar    1  LIG1        0.0630
      3 C           2.0302    3.1682   -0.0000 C.ar    1  LIG1        0.0027
      4 C           0.8141    3.8024   -0.0001 C.ar    1  LIG1        0.1721
      5 O          -0.1975    2.8745   -0.0001 O.2     1  LIG1       -0.4585
      6 H          -0.2851    0.8032   -0.0002 H       1  LIG1        0.1042
      7 C           2.6877    0.6919    0.0000 C.1     1  LIG1       -0.0665
      8 C           3.4923   -0.2111    0.0001 C.1     1  LIG1       -0.1138
      9 H           4.1988   -1.0084    0.0004 H       1  LIG1        0.1232
     10 H           3.0000    3.6394    0.0000 H       1  LIG1        0.0669
     11 C           0.4400    5.1862   -0.0001 C.ar    1  LIG1        0.1860
     12 C           1.1891    6.3576   -0.0000 C.ar    1  LIG1        0.0741
     13 C           0.2421    7.4294   -0.0001 C.ar    1  LIG1        0.0035
     14 C          -1.0020    6.8514   -0.0001 C.ar    1  LIG1        0.1732
     15 O          -0.8875    5.4864   -0.0001 O.2     1  LIG1       -0.4473
     16 C           2.6011    6.4652    0.0000 C.1     1  LIG1       -0.0657
     17 C           3.8076    6.5669    0.0001 C.1     1  LIG1       -0.1138
     18 H           4.8687    6.6632    0.0002 H       1  LIG1        0.1232
     19 H           0.4554    8.4870   -0.0001 H       1  LIG1        0.0669
     20 C          -2.3140    7.4177   -0.0002 C.ar    1  LIG1        0.1860
     21 C          -3.6026    6.8981   -0.0002 C.ar    1  LIG1        0.0741
     22 C          -4.4788    8.0319   -0.0002 C.ar    1  LIG1        0.0035
     23 C          -3.6833    9.1477   -0.0002 C.ar    1  LIG1        0.1731
     24 O          -2.3644    8.7810   -0.0002 O.2     1  LIG1       -0.4473
     25 C          -3.9901    5.5361   -0.0001 C.1     1  LIG1       -0.0657
     26 C          -4.3537    4.3823   -0.0001 C.1     1  LIG1       -0.1138
     27 H          -4.6562    3.3611   -0.0002 H       1  LIG1        0.1232
     28 H          -5.5574    8.0099   -0.0002 H       1  LIG1        0.0669
     29 C          -3.9779   10.5491   -0.0003 C.ar    1  LIG1        0.1850
     30 C          -3.2011   11.6973   -0.0002 C.ar    1  LIG1        0.0734
     31 C          -4.1364   12.7952   -0.0003 C.ar    1  LIG1       -0.0077
     32 C          -5.3771   12.2480   -0.0003 C.ar    1  LIG1        0.0939
     33 O          -5.3012   10.8838   -0.0003 O.2     1  LIG1       -0.4586
     34 H          -6.3734   12.6606   -0.0004 H       1  LIG1        0.1030
     35 C          -1.7892   11.8017   -0.0001 C.1     1  LIG1       -0.0658
     36 C          -0.5865   11.9400   -0.0001 C.1     1  LIG1       -0.1138
     37 H           0.4724   12.0569   -0.0002 H       1  LIG1        0.1232
     38 H          -3.8839   13.8447   -0.0003 H       1  LIG1        0.0661
@<TRIPOS>BOND
     1    34    32    1
     2    32    33   ar
     3    32    31   ar
     4    33    29   ar
     5    31    38    1
     6    31    30   ar
     7    29    23    1
     8    29    30   ar
     9    28    22    1
    10    23    22   ar
    11    23    24   ar
    12    30    35    1
    13    22    21   ar
    14    37    36    1
    15    24    20   ar
    16    21    20   ar
    17    21    25    1
    18    27    26    1
    19    20    14    1
    20     6     1    1
    21    25    26    3
    22    35    36    3
    23    15    14   ar
    24    15    11   ar
    25    14    13   ar
    26     1     5   ar
    27     1     2   ar
    28     5     4   ar
    29    11     4    1
    30    11    12   ar
    31    13    19    1
    32    13    12   ar
    33     4     3   ar
    34    12    16    1
    35     3     2   ar
    36     3    10    1
    37     2     7    1
    38    16    17    3
    39     7     8    3
    40    17    18    1
    41     8     9    1
