@<TRIPOS>MOLECULE
mol_data/opt/b3lyp/geoms/mol2/12ea12ea-.out
 20 21 0 0 0
SMALL
GASTEIGER

@<TRIPOS>ATOM
      1 C           0.2208    1.8168   -0.0000 C.ar    1  LIG1        0.1081
      2 C           1.5940    1.8282    0.0001 C.ar    1  LIG1        0.0630
      3 C           1.9709    3.2165    0.0000 C.ar    1  LIG1        0.0027
      4 C           0.8037    3.9323   -0.0001 C.ar    1  LIG1        0.1721
      5 O          -0.2692    3.0805   -0.0001 O.2     1  LIG1       -0.4585
      6 H          -0.5053    1.0200   -0.0000 H       1  LIG1        0.1042
      7 C           2.4538    0.6988    0.0001 C.1     1  LIG1       -0.0665
      8 C           3.1941   -0.2577    0.0002 C.1     1  LIG1       -0.1138
      9 H           3.8440   -1.1018    0.0001 H       1  LIG1        0.1232
     10 H           2.9730    3.6160    0.0000 H       1  LIG1        0.0669
     11 C           0.5348    5.3427   -0.0001 C.ar    1  LIG1        0.1850
     12 C          -0.6200    6.1069   -0.0001 C.ar    1  LIG1        0.0734
     13 C          -0.1749    7.4793   -0.0002 C.ar    1  LIG1       -0.0077
     14 C           1.1805    7.4472   -0.0002 C.ar    1  LIG1        0.0939
     15 O           1.6300    6.1567   -0.0002 O.2     1  LIG1       -0.4586
     16 H           1.9444    8.2082   -0.0002 H       1  LIG1        0.1030
     17 C          -1.9647    5.6631   -0.0000 C.1     1  LIG1       -0.0658
     18 C          -3.1269    5.3260   -0.0000 C.1     1  LIG1       -0.1138
     19 H          -4.1450    5.0129    0.0000 H       1  LIG1        0.1232
     20 H          -0.8093    8.3527   -0.0002 H       1  LIG1        0.0661
@<TRIPOS>BOND
     1    16    14    1
     2    14    15   ar
     3    14    13   ar
     4    20    13    1
     5    15    11   ar
     6    13    12   ar
     7    11    12   ar
     8    11     4    1
     9    12    17    1
    10     5     4   ar
    11     5     1   ar
    12     4     3   ar
    13    17    18    3
    14     6     1    1
    15     1     2   ar
    16    18    19    1
    17     3    10    1
    18     3     2   ar
    19     2     7    1
    20     9     8    1
    21     7     8    3
