@<TRIPOS>MOLECULE
mol_data/opt/b3lyp/geoms/mol2/12ea12hi13al-12la.out
 46 49 0 0 0
SMALL
GASTEIGER

@<TRIPOS>ATOM
      1 C           0.5854    1.5971   -0.7425 C.ar    1  LIG1        0.1081
      2 C           1.8393    1.6105   -0.1884 C.ar    1  LIG1        0.0630
      3 C           2.0862    2.9801    0.1869 C.ar    1  LIG1        0.0027
      4 C           0.9722    3.6930   -0.1819 C.ar    1  LIG1        0.1727
      5 O           0.0512    2.8466   -0.7529 O.2     1  LIG1       -0.4585
      6 H          -0.0289    0.8078   -1.1448 H       1  LIG1        0.1042
      7 C           2.7004    0.4971   -0.0056 C.1     1  LIG1       -0.0665
      8 C           3.4440   -0.4439    0.1540 C.1     1  LIG1       -0.1138
      9 H           4.0936   -1.2761    0.2950 H       1  LIG1        0.1232
     10 H           2.9482    3.3523    0.7195 H       1  LIG1        0.0669
     11 C           0.6564    5.0874   -0.1217 C.ar    1  LIG1        0.1914
     12 C           1.4607    6.2040   -0.0205 C.ar    1  LIG1        0.0777
     13 C           0.5953    7.3443    0.0314 C.ar    1  LIG1        0.0182
     14 C          -0.6872    6.8455   -0.0691 C.ar    1  LIG1        0.1567
     15 O          -0.6658    5.4801   -0.1552 O.2     1  LIG1       -0.4481
     16 N           2.8529    6.2315    0.0730 N.pl3   1  LIG1       -0.3547
     17 H           3.2921    5.4060   -0.3200 H       1  LIG1        0.1424
     18 H           3.2609    7.0671   -0.3287 H       1  LIG1        0.1424
     19 C           1.0252    8.7715    0.1845 C.3     1  LIG1       -0.0343
     20 H           0.3072    9.3364    0.7864 H       1  LIG1        0.0279
     21 H           1.1258    9.2894   -0.7784 H       1  LIG1        0.0279
     22 H           1.9921    8.8318    0.6950 H       1  LIG1        0.0279
     23 C          -1.9900    7.4475   -0.0908 C.ar    1  LIG1        0.0865
     24 C          -2.4003    8.7818   -0.1762 C.ar    1  LIG1        0.0092
     25 C          -3.8138    8.7836   -0.1522 C.ar    1  LIG1        0.1491
     26 C          -4.2567    7.4580   -0.0682 C.ar    1  LIG1        0.1284
     27 N          -3.1206    6.6753   -0.0278 N.ar    1  LIG1       -0.3463
     28 H          -3.1238    5.6697    0.0426 H       1  LIG1        0.1662
     29 H          -1.7511    9.6373   -0.2661 H       1  LIG1        0.0677
     30 O          -4.6652    9.8453   -0.1737 O.3     1  LIG1       -0.4929
     31 C          -4.0594   11.1223   -0.2873 C.3     1  LIG1        0.0789
     32 H          -4.8732   11.8489   -0.2963 H       1  LIG1        0.0660
     33 H          -3.3966   11.3312    0.5631 H       1  LIG1        0.0660
     34 H          -3.4846   11.2122   -1.2183 H       1  LIG1        0.0660
     35 C          -5.5627    6.8629    0.0059 C.ar    1  LIG1        0.1958
     36 C          -6.8488    7.2543   -0.2988 C.ar    1  LIG1        0.1672
     37 C          -7.7100    6.1473    0.0062 C.ar    1  LIG1        0.0187
     38 C          -6.9008    5.1514    0.4517 C.ar    1  LIG1        0.0963
     39 O          -5.5971    5.5607    0.4593 O.2     1  LIG1       -0.4575
     40 H          -7.0758    4.1390    0.7797 H       1  LIG1        0.1031
     41 O          -7.2233    8.4314   -0.8758 O.3     1  LIG1       -0.4913
     42 C          -7.8500    9.3591    0.0111 C.3     1  LIG1        0.0790
     43 H          -8.1621   10.2080   -0.6009 H       1  LIG1        0.0660
     44 H          -8.7329    8.9199    0.4940 H       1  LIG1        0.0660
     45 H          -7.1449    9.6998    0.7768 H       1  LIG1        0.0660
     46 H          -8.7816    6.1084   -0.1244 H       1  LIG1        0.0686
@<TRIPOS>BOND
     1    34    31    1
     2     6     1    1
     3    41    36    1
     4    41    42    1
     5    21    19    1
     6     5     1   ar
     7     5     4   ar
     8     1     2   ar
     9    43    42    1
    10    18    16    1
    11    17    16    1
    12    36    35   ar
    13    36    37   ar
    14    32    31    1
    15    31    30    1
    16    31    33    1
    17    29    24    1
    18     2     7    1
    19     2     3   ar
    20     4    11    1
    21     4     3   ar
    22    24    25   ar
    23    24    23   ar
    24    30    25    1
    25    15    11   ar
    26    15    14   ar
    27    25    26   ar
    28    46    37    1
    29    11    12   ar
    30    23    14    1
    31    23    27   ar
    32    14    13   ar
    33    26    27   ar
    34    26    35    1
    35    27    28    1
    36    12    13   ar
    37    12    16    1
    38     7     8    3
    39    35    39   ar
    40    37    38   ar
    41    42    44    1
    42    42    45    1
    43    13    19    1
    44     8     9    1
    45    19    22    1
    46    19    20    1
    47     3    10    1
    48    38    39   ar
    49    38    40    1
