@<TRIPOS>MOLECULE
mol_data/opt/b3lyp/geoms/mol2/12ea12lf4ea-4af.out
 46 49 0 0 0
SMALL
GASTEIGER

@<TRIPOS>ATOM
      1 C           0.2203    1.3373    0.2595 C.ar    1  LIG1        0.1081
      2 C           1.5647    1.3457   -0.0182 C.ar    1  LIG1        0.0630
      3 C           1.9107    2.7253   -0.2357 C.ar    1  LIG1        0.0028
      4 C           0.7549    3.4420   -0.0711 C.ar    1  LIG1        0.1747
      5 O          -0.2834    2.5968    0.2310 O.2     1  LIG1       -0.4585
      6 H          -0.4761    0.5460    0.4855 H       1  LIG1        0.1042
      7 C           2.4256    0.2185   -0.0782 C.1     1  LIG1       -0.0665
      8 C           3.1668   -0.7361   -0.1307 C.1     1  LIG1       -0.1138
      9 H           3.8169   -1.5786   -0.1775 H       1  LIG1        0.1232
     10 H           2.8796    3.1257   -0.4876 H       1  LIG1        0.0669
     11 C           0.4688    4.8453   -0.1522 C.ar    1  LIG1        0.2157
     12 C           1.2898    5.9284   -0.3710 C.ar    1  LIG1        0.2114
     13 C           0.4517    7.0884   -0.3501 C.ar    1  LIG1        0.2062
     14 C          -0.8400    6.6473   -0.1004 C.ar    1  LIG1        0.1820
     15 O          -0.8154    5.2681    0.0059 O.2     1  LIG1       -0.4441
     16 O           2.6187    5.8381   -0.6380 O.3     1  LIG1       -0.4883
     17 C           3.4692    6.7396    0.0861 C.3     1  LIG1        0.0791
     18 H           4.4876    6.5015   -0.2242 H       1  LIG1        0.0660
     19 H           3.2381    7.7794   -0.1555 H       1  LIG1        0.0660
     20 H           3.3702    6.5822    1.1669 H       1  LIG1        0.0660
     21 O           0.9279    8.3242   -0.6229 O.3     1  LIG1       -0.5008
     22 H           0.3403    8.9964   -0.2289 H       1  LIG1        0.2924
     23 C          -2.4259    8.5908    0.3066 C.ar    1  LIG1        0.0360
     24 C          -3.7360    9.0986    0.2445 C.ar    1  LIG1       -0.0379
     25 C          -2.1625    7.2448   -0.0717 C.ar    1  LIG1        0.0364
     26 C          -4.8204    8.3098   -0.1462 C.ar    1  LIG1       -0.0166
     27 H          -3.9012   10.1239    0.5573 H       1  LIG1        0.0636
     28 C          -3.2699    6.4533   -0.4429 C.ar    1  LIG1       -0.0492
     29 C          -4.5559    6.9665   -0.4761 C.ar    1  LIG1       -0.0533
     30 H          -3.0942    5.4233   -0.7298 H       1  LIG1        0.0625
     31 C          -1.4142    9.4493    0.8353 C.1     1  LIG1       -0.0689
     32 C          -0.5828   10.2039    1.2964 C.1     1  LIG1       -0.1139
     33 H           0.1318   10.8536    1.7477 H       1  LIG1        0.1232
     34 H          -5.3697    6.3273   -0.8043 H       1  LIG1        0.0624
     35 C          -6.4232   10.1850   -0.6230 C.ar    1  LIG1       -0.0538
     36 C          -7.7220   10.6926   -0.6674 C.ar    1  LIG1       -0.0577
     37 C          -6.1941    8.8669   -0.1982 C.ar    1  LIG1       -0.0144
     38 C          -8.8112    9.9100   -0.2954 C.ar    1  LIG1       -0.0201
     39 H          -7.8888   11.7109   -1.0061 H       1  LIG1        0.0619
     40 C          -7.2944    8.0788    0.1773 C.ar    1  LIG1       -0.0125
     41 C          -8.5910    8.5950    0.1288 C.ar    1  LIG1        0.1174
     42 H          -7.1341    7.0659    0.5400 H       1  LIG1        0.0660
     43 H          -9.8257   10.2921   -0.3246 H       1  LIG1        0.0654
     44 H          -5.5899   10.7989   -0.9479 H       1  LIG1        0.0624
     45 O          -9.6854    7.8634    0.4954 O.3     1  LIG1       -0.5067
     46 H          -9.4006    6.9814    0.7685 H       1  LIG1        0.2921
@<TRIPOS>BOND
     1    39    36    1
     2    44    35    1
     3    34    29    1
     4    30    28    1
     5    36    35   ar
     6    36    38   ar
     7    16    12    1
     8    16    17    1
     9    35    37   ar
    10    21    13    1
    11    21    22    1
    12    10     3    1
    13    29    28   ar
    14    29    26   ar
    15    28    25   ar
    16    12    13   ar
    17    12    11   ar
    18    13    14   ar
    19    43    38    1
    20    38    41   ar
    21     3     4   ar
    22     3     2   ar
    23    18    17    1
    24    37    26    1
    25    37    40   ar
    26     9     8    1
    27    19    17    1
    28    11     4    1
    29    11    15   ar
    30    26    24   ar
    31     8     7    3
    32    14    25    1
    33    14    15   ar
    34     7     2    1
    35    25    23   ar
    36     4     5   ar
    37     2     1   ar
    38    17    20    1
    39    41    40   ar
    40    41    45    1
    41    40    42    1
    42     5     1   ar
    43    24    23   ar
    44    24    27    1
    45     1     6    1
    46    23    31    1
    47    45    46    1
    48    31    32    3
    49    32    33    1
