@<TRIPOS>MOLECULE
mol_data/opt/b3lyp/geoms/mol2/12ea12ea-12ea-12ea-.out
 38 41 0 0 0
SMALL
GASTEIGER

@<TRIPOS>ATOM
      1 C          -0.0267    1.7054   -0.0001 C.ar    1  LIG1        0.1081
      2 C           1.3460    1.6450    0.0000 C.ar    1  LIG1        0.0630
      3 C           1.7950    3.0105   -0.0000 C.ar    1  LIG1        0.0027
      4 C           0.6654    3.7867   -0.0000 C.ar    1  LIG1        0.1721
      5 O          -0.4511    2.9919   -0.0001 O.2     1  LIG1       -0.4585
      6 H          -0.7927    0.9468   -0.0001 H       1  LIG1        0.1042
      7 C           2.1442    0.4712    0.0001 C.1     1  LIG1       -0.0665
      8 C           2.8313   -0.5241    0.0001 C.1     1  LIG1       -0.1138
      9 H           3.4346   -1.4021    0.0001 H       1  LIG1        0.1232
     10 H           2.8158    3.3596    0.0000 H       1  LIG1        0.0669
     11 C           0.4751    5.2063   -0.0000 C.ar    1  LIG1        0.1860
     12 C          -0.6389    6.0359   -0.0000 C.ar    1  LIG1        0.0741
     13 C          -0.1287    7.3739   -0.0000 C.ar    1  LIG1        0.0035
     14 C           1.2398    7.2770   -0.0001 C.ar    1  LIG1        0.1732
     15 O           1.6125    5.9561   -0.0001 O.2     1  LIG1       -0.4473
     16 C          -2.0051    5.6611    0.0000 C.1     1  LIG1       -0.0657
     17 C          -3.1816    5.3793    0.0000 C.1     1  LIG1       -0.1138
     18 H          -4.2140    5.1170   -0.0002 H       1  LIG1        0.1232
     19 H          -0.7068    8.2843   -0.0000 H       1  LIG1        0.0669
     20 C           2.2846    8.2542   -0.0001 C.ar    1  LIG1        0.1860
     21 C           2.2656    9.6449   -0.0001 C.ar    1  LIG1        0.0741
     22 C           3.6356   10.0562   -0.0001 C.ar    1  LIG1        0.0035
     23 C           4.3901    8.9107   -0.0001 C.ar    1  LIG1        0.1731
     24 O           3.5710    7.8100   -0.0001 O.2     1  LIG1       -0.4473
     25 C           1.1234   10.4811   -0.0001 C.1     1  LIG1       -0.0657
     26 C           0.1513   11.2031   -0.0001 C.1     1  LIG1       -0.1138
     27 H          -0.6995   11.8445   -0.0001 H       1  LIG1        0.1232
     28 H           4.0076   11.0684   -0.0001 H       1  LIG1        0.0669
     29 C           5.8049    8.6786   -0.0001 C.ar    1  LIG1        0.1850
     30 C           6.8924    9.5402   -0.0002 C.ar    1  LIG1        0.0734
     31 C           8.0580    8.6943   -0.0002 C.ar    1  LIG1       -0.0077
     32 C           7.6043    7.4154   -0.0001 C.ar    1  LIG1        0.0939
     33 O           6.2389    7.3875   -0.0001 O.2     1  LIG1       -0.4586
     34 H           8.0908    6.4531   -0.0001 H       1  LIG1        0.1030
     35 C           6.8630   10.9548   -0.0002 C.1     1  LIG1       -0.0658
     36 C           6.8494   12.1660   -0.0002 C.1     1  LIG1       -0.1138
     37 H           6.8442   13.2314   -0.0001 H       1  LIG1        0.1232
     38 H           9.0858    9.0245   -0.0002 H       1  LIG1        0.0661
@<TRIPOS>BOND
     1    36    35    3
     2    36    37    1
     3    35    30    1
     4    18    17    1
     5    30    31   ar
     6    30    29   ar
     7    38    31    1
     8    31    32   ar
     9    28    22    1
    10    32    34    1
    11    32    33   ar
    12    29    23    1
    13    29    33   ar
    14    22    23   ar
    15    22    21   ar
    16    23    24   ar
    17    27    26    1
    18     6     1    1
    19    21    25    1
    20    21    20   ar
    21    24    20   ar
    22    25    26    3
    23    20    14    1
    24    15    14   ar
    25    15    11   ar
    26     1     5   ar
    27     1     2   ar
    28    14    13   ar
    29     5     4   ar
    30    11     4    1
    31    11    12   ar
    32    13    19    1
    33    13    12   ar
    34     4     3   ar
    35    12    16    1
    36     3    10    1
    37     3     2   ar
    38    16    17    3
    39     2     7    1
    40     7     8    3
    41     9     8    1
