@<TRIPOS>MOLECULE
mol_data/opt/b3lyp/geoms/mol2/12ea4ai-4ea-4ad.out
 47 50 0 0 0
SMALL
GASTEIGER

@<TRIPOS>ATOM
      1 C           0.4972    1.5471    0.2520 C.ar    1  LIG1        0.1079
      2 C           1.7197    1.5843   -0.3694 C.ar    1  LIG1        0.0629
      3 C           1.9791    2.9771   -0.6251 C.ar    1  LIG1       -0.0004
      4 C           0.9066    3.6787   -0.1458 C.ar    1  LIG1        0.1360
      5 O          -0.0030    2.7980    0.3927 O.2     1  LIG1       -0.4617
      6 H          -0.1075    0.7384    0.6302 H       1  LIG1        0.1042
      7 C           2.5481    0.4769   -0.6888 C.1     1  LIG1       -0.0665
      8 C           3.2620   -0.4596   -0.9655 C.1     1  LIG1       -0.1138
      9 H           3.8878   -1.2869   -1.2076 H       1  LIG1        0.1232
     10 H           2.8589    3.3776   -1.1050 H       1  LIG1        0.0668
     11 C           1.4439    6.0566   -0.6347 C.ar    1  LIG1       -0.0505
     12 C           1.1104    7.4026   -0.5861 C.ar    1  LIG1       -0.0531
     13 C           0.5686    5.0960   -0.1032 C.ar    1  LIG1        0.0176
     14 C          -0.0983    7.8410   -0.0232 C.ar    1  LIG1       -0.0138
     15 H           1.7945    8.1370   -0.9994 H       1  LIG1        0.0624
     16 C          -0.6324    5.5353    0.4743 C.ar    1  LIG1       -0.0476
     17 C          -0.9847    6.8867    0.5231 C.ar    1  LIG1       -0.0420
     18 H          -1.3058    4.8004    0.9028 H       1  LIG1        0.0627
     19 H           2.3834    5.7525   -1.0850 H       1  LIG1        0.0625
     20 C          -2.2881    7.2848    1.1803 C.3     1  LIG1       -0.0391
     21 H          -2.6701    6.4696    1.8002 H       1  LIG1        0.0278
     22 H          -3.0629    7.5246    0.4430 H       1  LIG1        0.0278
     23 H          -2.1673    8.1682    1.8135 H       1  LIG1        0.0278
     24 C           0.3695   10.2472    0.6570 C.ar    1  LIG1        0.0330
     25 C           0.0471   11.6137    0.5816 C.ar    1  LIG1       -0.0380
     26 C          -0.4194    9.2975   -0.0401 C.ar    1  LIG1       -0.0022
     27 C          -1.0394   12.0742   -0.1691 C.ar    1  LIG1       -0.0167
     28 H           0.6490   12.3143    1.1504 H       1  LIG1        0.0636
     29 C          -1.5068    9.7717   -0.7859 C.ar    1  LIG1       -0.0523
     30 C          -1.8158   11.1260   -0.8550 C.ar    1  LIG1       -0.0534
     31 H          -2.1051    9.0601   -1.3464 H       1  LIG1        0.0624
     32 C           1.4795    9.8522    1.4694 C.1     1  LIG1       -0.0690
     33 C           2.4213    9.5621    2.1714 C.1     1  LIG1       -0.1139
     34 H           3.2459    9.2873    2.7876 H       1  LIG1        0.1232
     35 H          -2.6458   11.4534   -1.4735 H       1  LIG1        0.0624
     36 C          -0.3396   14.4896   -0.2931 C.ar    1  LIG1       -0.0540
     37 C          -0.6388   15.8497   -0.3573 C.ar    1  LIG1       -0.0600
     38 C          -1.3588   13.5231   -0.2374 C.ar    1  LIG1       -0.0166
     39 C          -1.9619   16.2816   -0.3718 C.ar    1  LIG1       -0.0443
     40 H           0.1656   16.5769   -0.4064 H       1  LIG1        0.0618
     41 C          -2.6896   13.9613   -0.2495 C.ar    1  LIG1       -0.0366
     42 C          -2.9922   15.3292   -0.3183 C.ar    1  LIG1        0.0523
     43 H          -3.4998   13.2437   -0.1820 H       1  LIG1        0.0636
     44 H          -2.2049   17.3370   -0.4239 H       1  LIG1        0.0630
     45 H           0.6970   14.1683   -0.3100 H       1  LIG1        0.0624
     46 N          -5.4740   16.0986   -0.3318 N.1     1  LIG1       -0.1909
     47 C          -4.3630   15.7541   -0.3247 C.1     1  LIG1        0.0992
@<TRIPOS>BOND
     1    35    30    1
     2    31    29    1
     3     9     8    1
     4    10     3    1
     5    19    11    1
     6    15    12    1
     7     8     7    3
     8    30    29   ar
     9    30    27   ar
    10    29    26   ar
    11     7     2    1
    12    11    12   ar
    13    11    13   ar
    14     3     2   ar
    15     3     4   ar
    16    12    14   ar
    17    44    39    1
    18    40    37    1
    19    39    37   ar
    20    39    42   ar
    21     2     1   ar
    22    37    36   ar
    23    46    47    3
    24    47    42    1
    25    42    41   ar
    26    45    36    1
    27    36    38   ar
    28    41    38   ar
    29    41    43    1
    30    38    27    1
    31    27    25   ar
    32     4    13    1
    33     4     5   ar
    34    13    16   ar
    35    26    14    1
    36    26    24   ar
    37    14    17   ar
    38     1     5   ar
    39     1     6    1
    40    22    20    1
    41    16    17   ar
    42    16    18    1
    43    17    20    1
    44    25    24   ar
    45    25    28    1
    46    24    32    1
    47    20    21    1
    48    20    23    1
    49    32    33    3
    50    33    34    1
