@<TRIPOS>MOLECULE
mol_data/opt/b3lyp/geoms/mol2/12ea12ea12ea12ea-.out
 38 41 0 0 0
SMALL
GASTEIGER

@<TRIPOS>ATOM
      1 C           0.5713    1.6462   -0.0002 C.ar    1  LIG1        0.1081
      2 C           1.9364    1.7983   -0.0000 C.ar    1  LIG1        0.0630
      3 C           2.1696    3.2161   -0.0000 C.ar    1  LIG1        0.0027
      4 C           0.9342    3.8115   -0.0001 C.ar    1  LIG1        0.1721
      5 O          -0.0478    2.8510   -0.0002 O.2     1  LIG1       -0.4585
      6 H          -0.0663    0.7767   -0.0003 H       1  LIG1        0.1042
      7 C           2.9066    0.7621    0.0000 C.1     1  LIG1       -0.0665
      8 C           3.7395   -0.1149    0.0001 C.1     1  LIG1       -0.1138
      9 H           4.4711   -0.8892    0.0006 H       1  LIG1        0.1232
     10 H           3.1237    3.7185    0.0000 H       1  LIG1        0.0669
     11 C           0.5199    5.1842   -0.0001 C.ar    1  LIG1        0.1860
     12 C           1.2379    6.3749   -0.0000 C.ar    1  LIG1        0.0741
     13 C           0.2635    7.4215   -0.0000 C.ar    1  LIG1        0.0035
     14 C          -0.9667    6.8124   -0.0001 C.ar    1  LIG1        0.1732
     15 O          -0.8135    5.4486   -0.0001 O.2     1  LIG1       -0.4473
     16 C           2.6463    6.5220    0.0001 C.1     1  LIG1       -0.0657
     17 C           3.8495    6.6578    0.0001 C.1     1  LIG1       -0.1138
     18 H           4.9073    6.7849    0.0001 H       1  LIG1        0.1232
     19 H           0.4528    8.4831   -0.0000 H       1  LIG1        0.0669
     20 C          -2.3026    7.3245   -0.0002 C.ar    1  LIG1        0.1860
     21 C          -2.8117    8.6190   -0.0002 C.ar    1  LIG1        0.0741
     22 C          -4.2360    8.4797   -0.0002 C.ar    1  LIG1        0.0035
     23 C          -4.4983    7.1339   -0.0003 C.ar    1  LIG1        0.1731
     24 O          -3.3256    6.4274   -0.0002 O.2     1  LIG1       -0.4473
     25 C          -2.0708    9.8252   -0.0001 C.1     1  LIG1       -0.0657
     26 C          -1.4439   10.8613   -0.0001 C.1     1  LIG1       -0.1138
     27 H          -0.8997   11.7773   -0.0001 H       1  LIG1        0.1232
     28 H          -4.9619    9.2778   -0.0003 H       1  LIG1        0.0669
     29 C          -5.7186    6.3840   -0.0003 C.ar    1  LIG1        0.1850
     30 C          -6.0121    5.0295   -0.0003 C.ar    1  LIG1        0.0734
     31 C          -7.4514    4.9476   -0.0004 C.ar    1  LIG1       -0.0077
     32 C          -7.9127    6.2232   -0.0004 C.ar    1  LIG1        0.0939
     33 O          -6.8741    7.1112   -0.0004 O.2     1  LIG1       -0.4586
     34 H          -8.8993    6.6584   -0.0005 H       1  LIG1        0.1030
     35 C          -5.0978    3.9492   -0.0002 C.1     1  LIG1       -0.0658
     36 C          -4.3275    3.0164   -0.0002 C.1     1  LIG1       -0.1138
     37 H          -3.6155    2.2244   -0.0001 H       1  LIG1        0.1232
     38 H          -8.0367    4.0405   -0.0004 H       1  LIG1        0.0661
@<TRIPOS>BOND
     1    34    32    1
     2    32    33   ar
     3    32    31   ar
     4    33    29   ar
     5    38    31    1
     6    31    30   ar
     7    29    30   ar
     8    29    23    1
     9    30    35    1
    10    23    22   ar
    11    23    24   ar
    12    28    22    1
    13     6     1    1
    14    22    21   ar
    15    24    20   ar
    16    35    36    3
    17    21    20   ar
    18    21    25    1
    19     1     5   ar
    20     1     2   ar
    21    20    14    1
    22     5     4   ar
    23    36    37    1
    24    15    14   ar
    25    15    11   ar
    26    25    26    3
    27    14    13   ar
    28    26    27    1
    29     4    11    1
    30     4     3   ar
    31    11    12   ar
    32     2     3   ar
    33     2     7    1
    34    13    12   ar
    35    13    19    1
    36     3    10    1
    37    12    16    1
    38     7     8    3
    39    16    17    3
    40     8     9    1
    41    17    18    1
