@<TRIPOS>MOLECULE
mol_data/opt/b3lyp/geoms/mol2/12ed4ha-6ai-4ii.out
 52 55 0 0 0
SMALL
GASTEIGER

@<TRIPOS>ATOM
      1 C           0.2220    1.6467   -0.1607 C.ar    1  LIG1        0.1092
      2 C           1.5682    1.5132   -0.3350 C.ar    1  LIG1        0.0804
      3 C           2.0805    2.8737   -0.3679 C.ar    1  LIG1        0.1128
      4 C           1.0023    3.7257   -0.1953 C.ar    1  LIG1        0.1551
      5 O          -0.1245    2.9580   -0.0747 O.2     1  LIG1       -0.4603
      6 H          -0.5786    0.9298   -0.0770 H       1  LIG1        0.1042
      7 C           2.3127    0.3160   -0.4710 C.1     1  LIG1       -0.0652
      8 C           2.9591   -0.6989   -0.5884 C.1     1  LIG1       -0.1138
      9 H           3.5326   -1.5908   -0.6933 H       1  LIG1        0.1232
     10 N           4.5348    3.5484   -0.7881 N.1     1  LIG1       -0.1907
     11 C           3.4269    3.2320   -0.6112 C.1     1  LIG1        0.1042
     12 C           1.6662    6.1028    0.4490 C.ar    1  LIG1        0.0359
     13 C           1.3020    7.4630    0.4410 C.ar    1  LIG1       -0.0326
     14 C           0.7848    5.1689   -0.1657 C.ar    1  LIG1        0.0392
     15 C           0.1142    7.9259   -0.1251 C.ar    1  LIG1       -0.0147
     16 H           1.9929    8.1758    0.8831 H       1  LIG1        0.0642
     17 C          -0.4137    5.6499   -0.7329 C.ar    1  LIG1       -0.0487
     18 C          -0.7525    6.9907   -0.7232 C.ar    1  LIG1       -0.0532
     19 H          -1.0880    4.9326   -1.1878 H       1  LIG1        0.0625
     20 N           2.8133    5.7314    1.1295 N.pl3   1  LIG1       -0.3574
     21 H           3.3487    4.9486    0.7835 H       1  LIG1        0.1423
     22 H           3.4122    6.5022    1.3902 H       1  LIG1        0.1423
     23 H          -1.6938    7.3149   -1.1527 H       1  LIG1        0.0624
     24 C          -0.8587    9.9840   -1.1945 C.ar    1  LIG1        0.0360
     25 C          -0.2251    9.3673   -0.1046 C.ar    1  LIG1        0.0006
     26 C           0.0779   10.1953    0.9825 C.ar    1  LIG1       -0.0476
     27 C          -0.2605   11.5499    0.9799 C.ar    1  LIG1       -0.0239
     28 C          -0.9274   12.0485   -0.1628 C.ar    1  LIG1        0.0742
     29 N          -1.1960   11.2718   -1.2279 N.ar    1  LIG1       -0.2541
     30 H           0.5719    9.7756    1.8553 H       1  LIG1        0.0627
     31 H          -1.0806    9.4086   -2.0913 H       1  LIG1        0.0836
     32 C           0.0980   12.4183    2.1635 C.3     1  LIG1       -0.0377
     33 H          -0.7471   12.5407    2.8503 H       1  LIG1        0.0278
     34 H           0.3988   13.4208    1.8496 H       1  LIG1        0.0278
     35 H           0.9187   11.9722    2.7326 H       1  LIG1        0.0278
     36 C          -0.9291   14.3266   -1.2819 C.ar    1  LIG1       -0.0413
     37 C          -1.4291   15.6328   -1.3132 C.ar    1  LIG1       -0.0580
     38 C          -1.3904   13.4689   -0.2595 C.ar    1  LIG1        0.0038
     39 C          -2.3617   16.0879   -0.3825 C.ar    1  LIG1       -0.0586
     40 H          -1.0747   16.3108   -2.0857 H       1  LIG1        0.0620
     41 C          -2.3257   13.9406    0.6705 C.ar    1  LIG1       -0.0494
     42 C          -2.8332   15.2433    0.6267 C.ar    1  LIG1       -0.0498
     43 H          -2.6837   13.2626    1.4416 H       1  LIG1        0.0627
     44 H          -2.7251   17.1110   -0.4426 H       1  LIG1        0.0620
     45 C           0.0820   13.8775   -2.3105 C.3     1  LIG1       -0.0391
     46 H           0.3772   14.7116   -2.9528 H       1  LIG1        0.0278
     47 H          -0.3248   13.0793   -2.9373 H       1  LIG1        0.0278
     48 H           0.9874   13.4779   -1.8398 H       1  LIG1        0.0278
     49 C          -3.8750   15.7075    1.6171 C.3     1  LIG1       -0.0397
     50 H          -3.7972   15.1665    2.5650 H       1  LIG1        0.0278
     51 H          -4.8900   15.5453    1.2332 H       1  LIG1        0.0278
     52 H          -3.7768   16.7766    1.8293 H       1  LIG1        0.0278
@<TRIPOS>BOND
     1    46    45    1
     2    47    45    1
     3    45    48    1
     4    45    36    1
     5    31    24    1
     6    40    37    1
     7    37    36   ar
     8    37    39   ar
     9    36    38   ar
    10    29    24   ar
    11    29    28   ar
    12    24    25   ar
    13    19    17    1
    14    23    18    1
    15    10    11    3
    16    17    18   ar
    17    17    14   ar
    18    18    15   ar
    19     9     8    1
    20    11     3    1
    21     8     7    3
    22     7     2    1
    23    44    39    1
    24    39    42   ar
    25     3     2   ar
    26     3     4   ar
    27     2     1   ar
    28    38    28    1
    29    38    41   ar
    30     4    14    1
    31     4     5   ar
    32    14    12   ar
    33    28    27   ar
    34     1     6    1
    35     1     5   ar
    36    15    25    1
    37    15    13   ar
    38    25    26   ar
    39    13    12   ar
    40    13    16    1
    41    12    20    1
    42    42    41   ar
    43    42    49    1
    44    41    43    1
    45    21    20    1
    46    27    26   ar
    47    27    32    1
    48    26    30    1
    49    20    22    1
    50    51    49    1
    51    49    52    1
    52    49    50    1
    53    34    32    1
    54    32    35    1
    55    32    33    1
