@<TRIPOS>MOLECULE
mol_data/opt/b3lyp/geoms/mol2/12ed4hh13ll4hf.out
 55 58 0 0 0
SMALL
GASTEIGER

@<TRIPOS>ATOM
      1 C          -0.0293    1.5771    0.8170 C.ar    1  LIG1        0.1092
      2 C           1.2656    1.3424    0.4595 C.ar    1  LIG1        0.0804
      3 C           1.8038    2.6475    0.1102 C.ar    1  LIG1        0.1128
      4 C           0.7931    3.5770    0.3016 C.ar    1  LIG1        0.1551
      5 O          -0.3214    2.9019    0.7275 O.2     1  LIG1       -0.4603
      6 H          -0.8241    0.9291    1.1492 H       1  LIG1        0.1042
      7 C           1.9426    0.0990    0.4168 C.1     1  LIG1       -0.0652
      8 C           2.5311   -0.9563    0.3753 C.1     1  LIG1       -0.1138
      9 H           3.0543   -1.8839    0.3379 H       1  LIG1        0.1232
     10 N           4.1560    3.0943   -0.8491 N.1     1  LIG1       -0.1907
     11 C           3.0931    2.8792   -0.4206 C.1     1  LIG1        0.1042
     12 C           1.6324    5.9822    0.3917 C.ar    1  LIG1        0.0361
     13 C           1.2934    7.3361    0.2458 C.ar    1  LIG1       -0.0294
     14 C           0.6283    5.0122    0.1245 C.ar    1  LIG1        0.0409
     15 C           0.0233    7.7847   -0.1366 C.ar    1  LIG1        0.0244
     16 H           2.0481    8.0811    0.4716 H       1  LIG1        0.0643
     17 C          -0.6413    5.4651   -0.2938 C.ar    1  LIG1       -0.0279
     18 C          -0.9645    6.8039   -0.4364 C.ar    1  LIG1        0.0347
     19 H          -1.3961    4.7193   -0.5246 H       1  LIG1        0.0644
     20 N           2.8833    5.6640    0.9096 N.pl3   1  LIG1       -0.3574
     21 H           3.3587    4.8553    0.5339 H       1  LIG1        0.1423
     22 H           3.5085    6.4563    0.9664 H       1  LIG1        0.1423
     23 N          -2.2757    7.1956   -0.8519 N.pl3   1  LIG1       -0.3574
     24 H          -2.2448    7.7112   -1.7295 H       1  LIG1        0.1423
     25 H          -2.8673    6.3820   -0.9874 H       1  LIG1        0.1423
     26 C          -0.2443    9.2178   -0.1942 C.ar    1  LIG1        0.0947
     27 C           0.6195   10.3149   -0.2154 C.ar    1  LIG1        0.1875
     28 C          -0.1616   11.4981   -0.1529 C.ar    1  LIG1        0.1875
     29 C          -1.5124   11.1303   -0.1101 C.ar    1  LIG1        0.0948
     30 N          -1.5167    9.7508   -0.1556 N.ar    1  LIG1       -0.3482
     31 H          -2.3265    9.1657    0.0060 H       1  LIG1        0.1661
     32 O           1.9913   10.2687   -0.2925 O.3     1  LIG1       -0.4895
     33 C           2.5052   10.5956   -1.5915 C.3     1  LIG1        0.0791
     34 H           3.5934   10.5427   -1.5172 H       1  LIG1        0.0660
     35 H           2.1536    9.8767   -2.3407 H       1  LIG1        0.0660
     36 H           2.2046   11.6057   -1.8902 H       1  LIG1        0.0660
     37 O           0.3426   12.7785   -0.2340 O.3     1  LIG1       -0.4895
     38 C           1.3032   13.0957    0.7952 C.3     1  LIG1        0.0791
     39 H           1.6647   14.1012    0.5704 H       1  LIG1        0.0660
     40 H           0.8199   13.0838    1.7787 H       1  LIG1        0.0660
     41 H           2.1348   12.3883    0.7845 H       1  LIG1        0.0660
     42 C          -2.9971   13.1100    0.5076 C.ar    1  LIG1        0.0341
     43 C          -4.2983   13.6410    0.5371 C.ar    1  LIG1       -0.0370
     44 C          -2.7963   11.8467   -0.1059 C.ar    1  LIG1        0.0261
     45 C          -5.3866   12.9797   -0.0143 C.ar    1  LIG1       -0.0184
     46 H          -4.4520   14.6043    1.0176 H       1  LIG1        0.0637
     47 C          -3.9105   11.2050   -0.6908 C.ar    1  LIG1       -0.0092
     48 C          -5.1892   11.7495   -0.6458 C.ar    1  LIG1        0.1176
     49 H          -3.7597   10.2644   -1.2155 H       1  LIG1        0.0661
     50 H          -6.3822   13.4088    0.0196 H       1  LIG1        0.0655
     51 N          -1.9504   13.7950    1.1351 N.pl3   1  LIG1       -0.3575
     52 H          -1.0850   13.7588    0.6064 H       1  LIG1        0.1423
     53 H          -2.1965   14.7471    1.3745 H       1  LIG1        0.1423
     54 O          -6.2821   11.1392   -1.2121 O.3     1  LIG1       -0.5067
     55 H          -6.0041   10.2996   -1.5997 H       1  LIG1        0.2921
@<TRIPOS>BOND
     1    35    33    1
     2    36    33    1
     3    24    23    1
     4    55    54    1
     5    33    34    1
     6    33    32    1
     7    49    47    1
     8    54    48    1
     9    25    23    1
    10    23    18    1
    11    10    11    3
    12    47    48   ar
    13    47    44   ar
    14    48    45   ar
    15    19    17    1
    16    18    17   ar
    17    18    15   ar
    18    11     3    1
    19    17    14   ar
    20    32    27    1
    21    37    28    1
    22    37    38    1
    23    27    26   ar
    24    27    28   ar
    25    26    30   ar
    26    26    15    1
    27    30    29   ar
    28    30    31    1
    29    28    29   ar
    30    15    13   ar
    31    29    44    1
    32    44    42   ar
    33    45    50    1
    34    45    43   ar
    35     3     4   ar
    36     3     2   ar
    37    14     4    1
    38    14    12   ar
    39    13    12   ar
    40    13    16    1
    41     4     5   ar
    42     9     8    1
    43     8     7    3
    44    12    20    1
    45     7     2    1
    46     2     1   ar
    47    42    43   ar
    48    42    51    1
    49    21    20    1
    50    43    46    1
    51    39    38    1
    52    52    51    1
    53     5     1   ar
    54    41    38    1
    55    38    40    1
    56     1     6    1
    57    20    22    1
    58    51    53    1
