@<TRIPOS>MOLECULE
mol_data/opt/b3lyp/geoms/mol2/12ee12ee-12ee.out
 35 37 0 0 0
SMALL
GASTEIGER

@<TRIPOS>ATOM
      1 C           0.1972    1.7805    0.4344 C.ar    1  LIG1        0.1093
      2 C           1.5165    1.7187    0.0780 C.ar    1  LIG1        0.0785
      3 C           1.9305    3.0940   -0.1487 C.ar    1  LIG1        0.0888
      4 C           0.8081    3.8662    0.1043 C.ar    1  LIG1        0.1875
      5 O          -0.2409    3.0627    0.4546 O.2     1  LIG1       -0.4573
      6 H          -0.5251    1.0226    0.6916 H       1  LIG1        0.1042
      7 C           2.3136    0.5546   -0.0526 C.1     1  LIG1       -0.0653
      8 C           2.9962   -0.4371   -0.1646 C.1     1  LIG1       -0.1138
      9 H           3.5997   -1.3094   -0.2642 H       1  LIG1        0.1232
     10 C           3.2015    3.5187   -0.5926 C.1     1  LIG1       -0.0645
     11 C           4.2921    3.8575   -0.9925 C.1     1  LIG1       -0.1138
     12 H           5.2389    4.1797   -1.3585 H       1  LIG1        0.1232
     13 C           0.5525    5.2736    0.0573 C.ar    1  LIG1        0.1885
     14 C          -0.6155    6.0193    0.0390 C.ar    1  LIG1        0.0896
     15 C          -0.2020    7.4037   -0.0386 C.ar    1  LIG1        0.0896
     16 C           1.1836    7.3867   -0.0577 C.ar    1  LIG1        0.1885
     17 O           1.6345    6.1012   -0.0004 O.2     1  LIG1       -0.4460
     18 C          -1.9508    5.5563    0.0693 C.1     1  LIG1       -0.0645
     19 C          -3.1045    5.1937    0.0909 C.1     1  LIG1       -0.1138
     20 H          -4.1183    4.8674    0.1107 H       1  LIG1        0.1232
     21 C          -1.0646    8.5233   -0.0682 C.1     1  LIG1       -0.0645
     22 C          -1.8304    9.4592   -0.0892 C.1     1  LIG1       -0.1138
     23 H          -2.4994   10.2880   -0.1084 H       1  LIG1        0.1232
     24 C           2.1692    8.4233   -0.1050 C.ar    1  LIG1        0.1875
     25 C           3.5312    8.4536    0.1482 C.ar    1  LIG1        0.0888
     26 C           3.9393    9.8306   -0.0789 C.ar    1  LIG1        0.0785
     27 C           2.8023   10.5022   -0.4358 C.ar    1  LIG1        0.1093
     28 O           1.7328    9.6703   -0.4560 O.2     1  LIG1       -0.4573
     29 H           2.6140   11.5321   -0.6935 H       1  LIG1        0.1042
     30 C           4.3610    7.4015    0.5927 C.1     1  LIG1       -0.0645
     31 C           5.0871    6.5203    0.9932 C.1     1  LIG1       -0.1138
     32 H           5.7021    5.7318    1.3596 H       1  LIG1        0.1232
     33 C           5.2443   10.3669    0.0518 C.1     1  LIG1       -0.0653
     34 C           6.3589   10.8219    0.1639 C.1     1  LIG1       -0.1138
     35 H           7.3418   11.2205    0.2638 H       1  LIG1        0.1232
@<TRIPOS>BOND
     1    12    11    1
     2    11    10    3
     3    29    27    1
     4    10     3    1
     5    28    27   ar
     6    28    24   ar
     7    27    26   ar
     8     9     8    1
     9     8     7    3
    10     3     2   ar
    11     3     4   ar
    12    23    22    1
    13    24    16    1
    14    24    25   ar
    15    22    21    3
    16    26    33    1
    17    26    25   ar
    18    21    15    1
    19    16    15   ar
    20    16    17   ar
    21     7     2    1
    22    15    14   ar
    23    17    13   ar
    24    14    13   ar
    25    14    18    1
    26    33    34    3
    27    13     4    1
    28    18    19    3
    29     2     1   ar
    30    19    20    1
    31     4     5   ar
    32    25    30    1
    33    34    35    1
    34     1     5   ar
    35     1     6    1
    36    30    31    3
    37    31    32    1
