@<TRIPOS>MOLECULE
mol_data/opt/b3lyp/geoms/mol2/12ee6eh13ih12lf.out
 51 54 0 0 0
SMALL
GASTEIGER

@<TRIPOS>ATOM
      1 C           0.6156    1.6769    1.4050 C.ar    1  LIG1        0.1092
      2 C           1.6100    1.4855    0.4866 C.ar    1  LIG1        0.0783
      3 C           1.8247    2.7846   -0.1307 C.ar    1  LIG1        0.0858
      4 C           0.9310    3.6523    0.4748 C.ar    1  LIG1        0.1540
      5 O           0.2053    2.9667    1.4075 O.2     1  LIG1       -0.4603
      6 H           0.1242    1.0132    2.0981 H       1  LIG1        0.1042
      7 C           2.2862    0.2751    0.1940 C.1     1  LIG1       -0.0653
      8 C           2.8655   -0.7561   -0.0580 C.1     1  LIG1       -0.1138
      9 H           3.3765   -1.6638   -0.2809 H       1  LIG1        0.1232
     10 C           2.7508    3.0540   -1.1665 C.1     1  LIG1       -0.0646
     11 C           3.5545    3.2524   -2.0500 C.1     1  LIG1       -0.1138
     12 H           4.2534    3.4129   -2.8378 H       1  LIG1        0.1232
     13 C          -0.6054    5.6710    0.5236 C.ar    1  LIG1        0.1247
     14 C           0.6691    5.0768    0.3155 C.ar    1  LIG1        0.0541
     15 C           1.7060    5.9228   -0.0948 C.ar    1  LIG1       -0.0255
     16 C           1.5051    7.2936   -0.2575 C.ar    1  LIG1        0.0531
     17 C           0.2269    7.8147    0.0928 C.ar    1  LIG1        0.1094
     18 N          -0.7841    6.9965    0.4216 N.ar    1  LIG1       -0.2344
     19 H           2.6814    5.5012   -0.3127 H       1  LIG1        0.0644
     20 C          -1.7879    4.9119    0.8090 C.1     1  LIG1       -0.0491
     21 C          -2.8155    4.3109    1.0221 C.1     1  LIG1       -0.1124
     22 H          -3.7145    3.7750    1.2197 H       1  LIG1        0.1232
     23 N           2.5248    8.1090   -0.7269 N.pl3   1  LIG1       -0.3563
     24 H           3.2280    7.6374   -1.2793 H       1  LIG1        0.1424
     25 H           2.2101    8.9749   -1.1448 H       1  LIG1        0.1424
     26 C          -0.1226    9.2345    0.0175 C.ar    1  LIG1        0.0721
     27 C           0.5571   10.4386    0.2669 C.ar    1  LIG1       -0.0023
     28 C          -0.3763   11.4918    0.0531 C.ar    1  LIG1        0.0570
     29 C          -1.6050   10.9148   -0.2994 C.ar    1  LIG1        0.1075
     30 N          -1.4161    9.5505   -0.3062 N.ar    1  LIG1       -0.3487
     31 H          -2.1348    8.8522   -0.4222 H       1  LIG1        0.1661
     32 C           1.9284   10.6747    0.8356 C.3     1  LIG1       -0.0359
     33 H           1.8722   11.4721    1.5854 H       1  LIG1        0.0279
     34 H           2.6647   10.9980    0.0854 H       1  LIG1        0.0279
     35 H           2.3341    9.7827    1.3139 H       1  LIG1        0.0279
     36 N          -0.0978   12.8454    0.2649 N.pl3   1  LIG1       -0.3560
     37 H           0.8057   13.1284   -0.0941 H       1  LIG1        0.1424
     38 H          -0.8352   13.4598   -0.0657 H       1  LIG1        0.1424
     39 C          -2.8885   11.4734   -0.6265 C.ar    1  LIG1        0.1979
     40 C          -3.4294   12.7412   -0.6581 C.ar    1  LIG1        0.2092
     41 C          -4.7894   12.6018   -1.0946 C.ar    1  LIG1        0.1979
     42 C          -5.0024   11.2714   -1.2990 C.ar    1  LIG1        0.1378
     43 O          -3.8474   10.5763   -1.0256 O.2     1  LIG1       -0.4538
     44 H          -5.8502   10.6896   -1.6222 H       1  LIG1        0.1069
     45 O          -2.7831   13.9184   -0.3800 O.3     1  LIG1       -0.4884
     46 C          -3.3133   14.6323    0.7505 C.3     1  LIG1        0.0791
     47 H          -2.7155   15.5406    0.8447 H       1  LIG1        0.0660
     48 H          -4.3612   14.8966    0.5831 H       1  LIG1        0.0660
     49 H          -3.2211   14.0339    1.6638 H       1  LIG1        0.0660
     50 O          -5.6263   13.6691   -1.2382 O.3     1  LIG1       -0.5012
     51 H          -6.4931   13.3552   -1.5264 H       1  LIG1        0.2924
@<TRIPOS>BOND
     1    12    11    1
     2    11    10    3
     3    44    42    1
     4    51    50    1
     5    42    41   ar
     6    42    43   ar
     7    24    23    1
     8    50    41    1
     9    10     3    1
    10    25    23    1
    11    41    40   ar
    12    43    39   ar
    13    23    16    1
    14    40    39   ar
    15    40    45    1
    16    39    29    1
    17    31    30    1
    18    45    46    1
    19    19    15    1
    20    30    29   ar
    21    30    26   ar
    22    29    28   ar
    23     9     8    1
    24    16    15   ar
    25    16    17   ar
    26     3     4   ar
    27     3     2   ar
    28    15    14   ar
    29    37    36    1
    30    38    36    1
    31     8     7    3
    32    26    17    1
    33    26    27   ar
    34    28    36    1
    35    28    27   ar
    36    34    32    1
    37    17    18   ar
    38     7     2    1
    39    27    32    1
    40    14     4    1
    41    14    13   ar
    42    18    13   ar
    43     4     5   ar
    44     2     1   ar
    45    13    20    1
    46    48    46    1
    47    46    47    1
    48    46    49    1
    49    20    21    3
    50    32    35    1
    51    32    33    1
    52    21    22    1
    53     1     5   ar
    54     1     6    1
