@<TRIPOS>MOLECULE
mol_data/opt/b3lyp/geoms/mol2/12ee4ih4ef-6fl-.out
 55 58 0 0 0
SMALL
GASTEIGER

@<TRIPOS>ATOM
      1 C           0.3740    1.6004    0.6194 C.ar    1  LIG1        0.1092
      2 C           1.6579    1.5249    0.1599 C.ar    1  LIG1        0.0783
      3 C           2.0618    2.9007   -0.1003 C.ar    1  LIG1        0.0857
      4 C           0.9843    3.6933    0.2414 C.ar    1  LIG1        0.1516
      5 O          -0.0442    2.8893    0.6686 O.2     1  LIG1       -0.4604
      6 H          -0.3306    0.8506    0.9421 H       1  LIG1        0.1042
      7 C           2.4314    0.3539   -0.0363 C.1     1  LIG1       -0.0653
      8 C           3.0945   -0.6432   -0.2052 C.1     1  LIG1       -0.1138
      9 H           3.6806   -1.5203   -0.3538 H       1  LIG1        0.1232
     10 C           3.2909    3.2904   -0.6846 C.1     1  LIG1       -0.0646
     11 C           4.3455    3.5847   -1.2000 C.1     1  LIG1       -0.1138
     12 H           5.2692    3.8421   -1.6639 H       1  LIG1        0.1232
     13 C           1.5603    6.1213    0.6722 C.ar    1  LIG1       -0.0391
     14 C           1.1528    7.4512    0.5422 C.ar    1  LIG1       -0.0486
     15 C           0.6865    5.1288    0.1734 C.ar    1  LIG1        0.0232
     16 C          -0.0636    7.8412   -0.0291 C.ar    1  LIG1        0.0043
     17 H           1.8040    8.2288    0.9294 H       1  LIG1        0.0627
     18 C          -0.5411    5.4999   -0.3938 C.ar    1  LIG1       -0.0295
     19 C          -0.9370    6.8355   -0.5087 C.ar    1  LIG1        0.0331
     20 H          -1.2004    4.7221   -0.7681 H       1  LIG1        0.0643
     21 C           2.8602    5.8079    1.3730 C.3     1  LIG1       -0.0390
     22 H           3.1681    6.6518    1.9966 H       1  LIG1        0.0278
     23 H           3.6686    5.5998    0.6652 H       1  LIG1        0.0278
     24 H           2.7702    4.9270    2.0156 H       1  LIG1        0.0278
     25 N          -2.1882    7.1470   -1.0560 N.pl3   1  LIG1       -0.3575
     26 H          -2.2343    8.0504   -1.5100 H       1  LIG1        0.1423
     27 H          -2.5670    6.4190   -1.6475 H       1  LIG1        0.1423
     28 C           0.3975   10.2674   -0.6697 C.ar    1  LIG1        0.0332
     29 C          -0.0076   11.6130   -0.6431 C.ar    1  LIG1       -0.0344
     30 C          -0.4340    9.2819   -0.0789 C.ar    1  LIG1        0.0027
     31 C          -1.2023   12.0494   -0.0577 C.ar    1  LIG1        0.0299
     32 H           0.6287   12.3460   -1.1264 H       1  LIG1        0.0637
     33 C          -1.6370    9.7081    0.4977 C.ar    1  LIG1       -0.0106
     34 C          -2.0111   11.0490    0.5151 C.ar    1  LIG1        0.1254
     35 H          -2.2877    8.9681    0.9568 H       1  LIG1        0.0661
     36 C           1.6209    9.9393   -1.3335 C.1     1  LIG1       -0.0690
     37 C           2.6586    9.7127   -1.9136 C.1     1  LIG1       -0.1139
     38 H           3.5673    9.4924   -2.4241 H       1  LIG1        0.1232
     39 O          -3.1887   11.4421    1.1137 O.3     1  LIG1       -0.5061
     40 H          -3.6453   10.6690    1.4729 H       1  LIG1        0.2922
     41 C          -2.7752   14.0473   -0.4377 C.ar    1  LIG1        0.2205
     42 C          -1.5257   13.5022   -0.0522 C.ar    1  LIG1        0.0505
     43 C          -0.5014   14.4133    0.2605 C.ar    1  LIG1       -0.0055
     44 C          -0.7249   15.7836    0.1511 C.ar    1  LIG1        0.1389
     45 C          -1.9890   16.2013   -0.2849 C.ar    1  LIG1        0.0730
     46 N          -2.9794   15.3596   -0.5594 N.ar    1  LIG1       -0.2173
     47 H           0.4562   14.0270    0.5890 H       1  LIG1        0.0662
     48 H          -2.1857   17.2654   -0.3989 H       1  LIG1        0.0868
     49 O          -3.8441   13.2809   -0.7706 O.3     1  LIG1       -0.4920
     50 H          -3.8499   12.4948   -0.1979 H       1  LIG1        0.2937
     51 O           0.1813   16.7671    0.4304 O.3     1  LIG1       -0.4936
     52 C           1.4775   16.3735    0.8495 C.3     1  LIG1        0.0789
     53 H           2.0374   17.2960    1.0089 H       1  LIG1        0.0660
     54 H           1.4461   15.8052    1.7886 H       1  LIG1        0.0660
     55 H           1.9860   15.7714    0.0848 H       1  LIG1        0.0660
@<TRIPOS>BOND
     1    38    37    1
     2    37    36    3
     3    12    11    1
     4    27    25    1
     5    26    25    1
     6    36    28    1
     7    11    10    3
     8    32    29    1
     9    25    19    1
    10    49    41    1
    11    49    50    1
    12    20    18    1
    13    10     3    1
    14    28    29   ar
    15    28    30   ar
    16    29    31   ar
    17    46    41   ar
    18    46    45   ar
    19    19    18   ar
    20    19    16   ar
    21    41    42   ar
    22    48    45    1
    23    18    15   ar
    24     9     8    1
    25    45    44   ar
    26     8     7    3
    27     3     2   ar
    28     3     4   ar
    29    30    16    1
    30    30    33   ar
    31    31    42    1
    32    31    34   ar
    33    42    43   ar
    34     7     2    1
    35    16    14   ar
    36    55    52    1
    37    44    43   ar
    38    44    51    1
    39     2     1   ar
    40    15     4    1
    41    15    13   ar
    42     4     5   ar
    43    43    47    1
    44    51    52    1
    45    33    34   ar
    46    33    35    1
    47    34    39    1
    48    14    13   ar
    49    14    17    1
    50     1     5   ar
    51     1     6    1
    52    23    21    1
    53    13    21    1
    54    52    53    1
    55    52    54    1
    56    39    40    1
    57    21    22    1
    58    21    24    1
