@<TRIPOS>MOLECULE
mol_data/opt/b3lyp/geoms/mol2/12ee12ee-.out
 24 25 0 0 0
SMALL
GASTEIGER

@<TRIPOS>ATOM
      1 C           0.2075    1.8103    0.0000 C.ar    1  LIG1        0.1093
      2 C           1.5749    1.7918   -0.0000 C.ar    1  LIG1        0.0785
      3 C           1.9903    3.1858   -0.0000 C.ar    1  LIG1        0.0888
      4 C           0.8176    3.9221   -0.0001 C.ar    1  LIG1        0.1874
      5 O          -0.2597    3.0832   -0.0001 O.2     1  LIG1       -0.4573
      6 H          -0.5335    1.0273    0.0000 H       1  LIG1        0.1042
      7 C           2.4149    0.6507    0.0000 C.1     1  LIG1       -0.0653
      8 C           3.1342   -0.3212    0.0000 C.1     1  LIG1       -0.1138
      9 H           3.7702   -1.1759    0.0002 H       1  LIG1        0.1232
     10 C           3.3241    3.6523    0.0000 C.1     1  LIG1       -0.0645
     11 C           4.4782    4.0149    0.0000 C.1     1  LIG1       -0.1138
     12 H           5.4923    4.3410    0.0001 H       1  LIG1        0.1232
     13 C           0.5407    5.3279   -0.0001 C.ar    1  LIG1        0.1874
     14 C          -0.6320    6.0642   -0.0001 C.ar    1  LIG1        0.0888
     15 C          -0.2166    7.4582   -0.0001 C.ar    1  LIG1        0.0785
     16 C           1.1508    7.4397   -0.0002 C.ar    1  LIG1        0.1093
     17 O           1.6180    6.1668   -0.0002 O.2     1  LIG1       -0.4573
     18 H           1.8918    8.2227   -0.0002 H       1  LIG1        0.1042
     19 C          -1.9658    5.5977    0.0000 C.1     1  LIG1       -0.0645
     20 C          -3.1200    5.2351    0.0001 C.1     1  LIG1       -0.1138
     21 H          -4.1341    4.9091    0.0001 H       1  LIG1        0.1232
     22 C          -1.0566    8.5993   -0.0001 C.1     1  LIG1       -0.0653
     23 C          -1.7760    9.5712   -0.0001 C.1     1  LIG1       -0.1138
     24 H          -2.4120   10.4258   -0.0004 H       1  LIG1        0.1232
@<TRIPOS>BOND
     1    24    23    1
     2    18    16    1
     3    16    17   ar
     4    16    15   ar
     5    17    13   ar
     6    23    22    3
     7    15    22    1
     8    15    14   ar
     9    13    14   ar
    10    13     4    1
    11    14    19    1
    12     5     4   ar
    13     5     1   ar
    14     4     3   ar
    15     2     3   ar
    16     2     7    1
    17     2     1   ar
    18     3    10    1
    19     7     8    3
    20    19    20    3
    21    10    11    3
    22     1     6    1
    23    11    12    1
    24     8     9    1
    25    20    21    1
