@<TRIPOS>MOLECULE
mol_data/opt/b3lyp/geoms/mol2/12ee12ee12ee-12ee-.out
 46 49 0 0 0
SMALL
GASTEIGER

@<TRIPOS>ATOM
      1 C           0.2345    1.7986    0.0002 C.ar    1  LIG1        0.1093
      2 C           1.5984    1.7206    0.0001 C.ar    1  LIG1        0.0785
      3 C           2.0767    3.0952   -0.0001 C.ar    1  LIG1        0.0888
      4 C           0.9383    3.8901    0.0000 C.ar    1  LIG1        0.1875
      5 O          -0.1741    3.0860    0.0002 O.2     1  LIG1       -0.4573
      6 H          -0.5391    1.0475    0.0002 H       1  LIG1        0.1042
      7 C           2.3880    0.5444    0.0001 C.1     1  LIG1       -0.0653
      8 C           3.0616   -0.4596    0.0000 C.1     1  LIG1       -0.1138
      9 H           3.6573   -1.3429   -0.0001 H       1  LIG1        0.1232
     10 C           3.4477    3.4345   -0.0003 C.1     1  LIG1       -0.0645
     11 C           4.6441    3.6116   -0.0006 C.1     1  LIG1       -0.1138
     12 H           5.6925    3.7996   -0.0006 H       1  LIG1        0.1232
     13 C           0.6376    5.2977    0.0000 C.ar    1  LIG1        0.1885
     14 C           1.3537    6.4874    0.0001 C.ar    1  LIG1        0.0896
     15 C           0.3691    7.5503    0.0000 C.ar    1  LIG1        0.0896
     16 C          -0.8671    6.9262   -0.0000 C.ar    1  LIG1        0.1885
     17 O          -0.7028    5.5770   -0.0000 O.2     1  LIG1       -0.4460
     18 C           2.7462    6.7275    0.0003 C.1     1  LIG1       -0.0645
     19 C           3.9136    7.0425    0.0004 C.1     1  LIG1       -0.1138
     20 H           4.9499    7.2883    0.0006 H       1  LIG1        0.1232
     21 C           0.6512    8.9344    0.0001 C.1     1  LIG1       -0.0645
     22 C           0.9213   10.1133    0.0001 C.1     1  LIG1       -0.1138
     23 H           1.1506   11.1534   -0.0002 H       1  LIG1        0.1232
     24 C          -2.2084    7.4158   -0.0001 C.ar    1  LIG1        0.1885
     25 C          -3.4446    6.7917   -0.0001 C.ar    1  LIG1        0.0896
     26 C          -4.4292    7.8546   -0.0002 C.ar    1  LIG1        0.0896
     27 C          -3.7131    9.0443   -0.0002 C.ar    1  LIG1        0.1885
     28 O          -2.3727    8.7650   -0.0002 O.2     1  LIG1       -0.4460
     29 C          -3.7267    5.4076   -0.0001 C.1     1  LIG1       -0.0645
     30 C          -3.9968    4.2287   -0.0001 C.1     1  LIG1       -0.1138
     31 H          -4.2261    3.1886   -0.0001 H       1  LIG1        0.1232
     32 C          -5.8217    7.6145   -0.0003 C.1     1  LIG1       -0.0645
     33 C          -6.9891    7.2995   -0.0004 C.1     1  LIG1       -0.1138
     34 H          -8.0254    7.0537   -0.0004 H       1  LIG1        0.1232
     35 C          -4.0139   10.4519   -0.0003 C.ar    1  LIG1        0.1875
     36 C          -5.1522   11.2467   -0.0003 C.ar    1  LIG1        0.0888
     37 C          -4.6740   12.6213   -0.0004 C.ar    1  LIG1        0.0785
     38 C          -3.3101   12.5434   -0.0004 C.ar    1  LIG1        0.1093
     39 O          -2.9015   11.2560   -0.0004 O.2     1  LIG1       -0.4573
     40 H          -2.5365   13.2946   -0.0005 H       1  LIG1        0.1042
     41 C          -6.5232   10.9074   -0.0002 C.1     1  LIG1       -0.0645
     42 C          -7.7197   10.7302   -0.0001 C.1     1  LIG1       -0.1138
     43 H          -8.7680   10.5423    0.0000 H       1  LIG1        0.1232
     44 C          -5.4636   13.7976   -0.0004 C.1     1  LIG1       -0.0653
     45 C          -6.1373   14.8016   -0.0004 C.1     1  LIG1       -0.1138
     46 H          -6.7330   15.6848   -0.0003 H       1  LIG1        0.1232
@<TRIPOS>BOND
     1    12    11    1
     2    11    10    3
     3    40    38    1
     4    38    39   ar
     5    38    37   ar
     6    33    34    1
     7    33    32    3
     8    45    44    3
     9    45    46    1
    10    44    37    1
    11    39    35   ar
    12    37    36   ar
    13    10     3    1
    14    32    26    1
    15    35    36   ar
    16    35    27    1
    17    36    41    1
    18    27    26   ar
    19    27    28   ar
    20    26    25   ar
    21    23    22    1
    22    28    24   ar
    23    41    42    3
    24    25    24   ar
    25    25    29    1
    26    24    16    1
    27    29    30    3
    28     3     4   ar
    29     3     2   ar
    30    30    31    1
    31     9     8    1
    32    42    43    1
    33    16    17   ar
    34    16    15   ar
    35    17    13   ar
    36     8     7    3
    37     4    13    1
    38     4     5   ar
    39    13    14   ar
    40    15    21    1
    41    15    14   ar
    42     7     2    1
    43     2     1   ar
    44    21    22    3
    45    14    18    1
    46     1     5   ar
    47     1     6    1
    48    18    19    3
    49    19    20    1
