@<TRIPOS>MOLECULE
mol_data/opt/b3lyp/geoms/mol2/12ee12ee12ee-12ee.out
 46 49 0 0 0
SMALL
GASTEIGER

@<TRIPOS>ATOM
      1 C           0.4173    1.6828   -0.3243 C.ar    1  LIG1        0.1093
      2 C           1.6749    1.7372    0.2110 C.ar    1  LIG1        0.0785
      3 C           1.9898    3.1517    0.3348 C.ar    1  LIG1        0.0888
      4 C           0.8884    3.8255   -0.1617 C.ar    1  LIG1        0.1875
      5 O          -0.0688    2.9252   -0.5523 O.2     1  LIG1       -0.4573
      6 H          -0.2275    0.8583   -0.5837 H       1  LIG1        0.1042
      7 C           2.4938    0.6437    0.5871 C.1     1  LIG1       -0.0653
      8 C           3.1951   -0.2873    0.9086 C.1     1  LIG1       -0.1138
      9 H           3.8149   -1.1060    1.1924 H       1  LIG1        0.1232
     10 C           3.1519    3.6896    0.9314 C.1     1  LIG1       -0.0645
     11 C           4.1453    4.1220    1.4690 C.1     1  LIG1       -0.1138
     12 H           5.0129    4.5163    1.9449 H       1  LIG1        0.1232
     13 C           0.5610    5.2150   -0.3263 C.ar    1  LIG1        0.1885
     14 C           1.2999    6.3448   -0.6286 C.ar    1  LIG1        0.0896
     15 C           0.3603    7.4469   -0.6461 C.ar    1  LIG1        0.0896
     16 C          -0.8790    6.8921   -0.3650 C.ar    1  LIG1        0.1885
     17 O          -0.7566    5.5482   -0.1755 O.2     1  LIG1       -0.4460
     18 C           2.6710    6.4288   -0.9610 C.1     1  LIG1       -0.0645
     19 C           3.8354    6.5243   -1.2729 C.1     1  LIG1       -0.1138
     20 H           4.8615    6.5925   -1.5507 H       1  LIG1        0.1232
     21 C           0.6621    8.7874   -0.9713 C.1     1  LIG1       -0.0645
     22 C           0.9408    9.9255   -1.2722 C.1     1  LIG1       -0.1138
     23 H           1.1571   10.9314   -1.5475 H       1  LIG1        0.1232
     24 C          -2.1939    7.4413   -0.2559 C.ar    1  LIG1        0.1885
     25 C          -3.4566    6.8681   -0.2421 C.ar    1  LIG1        0.0896
     26 C          -4.3904    7.9669   -0.1337 C.ar    1  LIG1        0.0896
     27 C          -3.6200    9.1185   -0.0855 C.ar    1  LIG1        0.1885
     28 O          -2.2973    8.7982   -0.1605 O.2     1  LIG1       -0.4460
     29 C          -3.7966    5.4995   -0.3323 C.1     1  LIG1       -0.0645
     30 C          -4.1194    4.3367   -0.4104 C.1     1  LIG1       -0.1138
     31 H          -4.3932    3.3096   -0.4793 H       1  LIG1        0.1232
     32 C          -5.7980    7.8518   -0.0718 C.1     1  LIG1       -0.0645
     33 C          -6.9987    7.7172   -0.0184 C.1     1  LIG1       -0.1138
     34 H          -8.0571    7.6057    0.0288 H       1  LIG1        0.1232
     35 C          -3.9509   10.5050    0.0405 C.ar    1  LIG1        0.1875
     36 C          -3.2149   11.6332    0.3656 C.ar    1  LIG1        0.0888
     37 C          -4.1576   12.7393    0.3223 C.ar    1  LIG1        0.0785
     38 C          -5.3640   12.1879   -0.0121 C.ar    1  LIG1        0.1093
     39 O          -5.2549   10.8483   -0.1843 O.2     1  LIG1       -0.4573
     40 H          -6.3446   12.6119   -0.1570 H       1  LIG1        0.1042
     41 C          -1.8527   11.7141    0.7272 C.1     1  LIG1       -0.0645
     42 C          -0.6930   11.8059    1.0602 C.1     1  LIG1       -0.1138
     43 H           0.3261   11.8582    1.3649 H       1  LIG1        0.1232
     44 C          -3.8840   14.1050    0.5823 C.1     1  LIG1       -0.0653
     45 C          -3.6477   15.2697    0.8047 C.1     1  LIG1       -0.1138
     46 H          -3.4370   16.2954    1.0015 H       1  LIG1        0.1232
@<TRIPOS>BOND
     1    20    19    1
     2    23    22    1
     3    19    18    3
     4    22    21    3
     5    21    15    1
     6    18    14    1
     7    15    14   ar
     8    15    16   ar
     9    14    13   ar
    10     6     1    1
    11     5     1   ar
    12     5     4   ar
    13    31    30    1
    14    30    29    3
    15    16    24    1
    16    16    17   ar
    17    29    25    1
    18    13    17   ar
    19    13     4    1
    20     1     2   ar
    21    24    25   ar
    22    24    28   ar
    23    25    26   ar
    24    39    38   ar
    25    39    35   ar
    26     4     3   ar
    27    28    27   ar
    28    40    38    1
    29    26    27   ar
    30    26    32    1
    31    27    35    1
    32    32    33    3
    33    33    34    1
    34    38    37   ar
    35    35    36   ar
    36     2     3   ar
    37     2     7    1
    38    37    36   ar
    39    37    44    1
    40     3    10    1
    41    36    41    1
    42    44    45    3
    43     7     8    3
    44    41    42    3
    45    45    46    1
    46     8     9    1
    47    10    11    3
    48    42    43    1
    49    11    12    1
