@<TRIPOS>MOLECULE
mol_data/opt/b3lyp/geoms/mol2/12ee12ee12ee12ee.out
 46 49 0 0 0
SMALL
GASTEIGER

@<TRIPOS>ATOM
      1 C          -0.0113    1.9339    0.0002 C.ar    1  LIG1        0.1093
      2 C           1.3447    1.7673    0.0001 C.ar    1  LIG1        0.0785
      3 C           1.9115    3.1080    0.0000 C.ar    1  LIG1        0.0888
      4 C           0.8273    3.9751    0.0000 C.ar    1  LIG1        0.1875
      5 O          -0.3348    3.2449    0.0002 O.2     1  LIG1       -0.4573
      6 H          -0.8324    1.2350    0.0003 H       1  LIG1        0.1042
      7 C           2.0562    0.5422    0.0002 C.1     1  LIG1       -0.0653
      8 C           2.6630   -0.5036    0.0002 C.1     1  LIG1       -0.1138
      9 H           3.2000   -1.4237    0.0003 H       1  LIG1        0.1232
     10 C           3.3018    3.3567   -0.0001 C.1     1  LIG1       -0.0645
     11 C           4.5074    3.4541   -0.0003 C.1     1  LIG1       -0.1138
     12 H           5.5659    3.5719   -0.0005 H       1  LIG1        0.1232
     13 C           0.6165    5.3997   -0.0000 C.ar    1  LIG1        0.1885
     14 C           1.4050    6.5400   -0.0001 C.ar    1  LIG1        0.0896
     15 C           0.4898    7.6662   -0.0002 C.ar    1  LIG1        0.0896
     16 C          -0.7883    7.1268   -0.0001 C.ar    1  LIG1        0.1885
     17 O          -0.6979    5.7644   -0.0001 O.2     1  LIG1       -0.4460
     18 C           2.8101    6.6885   -0.0000 C.1     1  LIG1       -0.0645
     19 C           3.9966    6.9213    0.0000 C.1     1  LIG1       -0.1138
     20 H           5.0475    7.0941    0.0005 H       1  LIG1        0.1232
     21 C           0.9254    9.0100   -0.0003 C.1     1  LIG1       -0.0645
     22 C           1.4029   10.1209   -0.0003 C.1     1  LIG1       -0.1138
     23 H           1.7919   11.1124   -0.0004 H       1  LIG1        0.1232
     24 C          -2.1386    7.6213   -0.0002 C.ar    1  LIG1        0.1885
     25 C          -2.7660    8.8586   -0.0002 C.ar    1  LIG1        0.0896
     26 C          -4.1921    8.5898   -0.0002 C.ar    1  LIG1        0.0896
     27 C          -4.3266    7.2100   -0.0003 C.ar    1  LIG1        0.1885
     28 O          -3.0875    6.6396   -0.0002 O.2     1  LIG1       -0.4460
     29 C          -2.2307   10.1659   -0.0001 C.1     1  LIG1       -0.0645
     30 C          -1.8778   11.3224    0.0000 C.1     1  LIG1       -0.1138
     31 H          -1.5344   12.3306    0.0005 H       1  LIG1        0.1232
     32 C          -5.1689    9.6107   -0.0003 C.1     1  LIG1       -0.0645
     33 C          -5.9244   10.5547   -0.0004 C.1     1  LIG1       -0.1138
     34 H          -6.6152   11.3654   -0.0004 H       1  LIG1        0.1232
     35 C          -5.4075    6.2585   -0.0003 C.ar    1  LIG1        0.1875
     36 C          -6.7953    6.2967   -0.0003 C.ar    1  LIG1        0.0888
     37 C          -7.2285    4.9071   -0.0004 C.ar    1  LIG1        0.0785
     38 C          -6.0856    4.1585   -0.0005 C.ar    1  LIG1        0.1093
     39 O          -4.9919    4.9505   -0.0005 O.2     1  LIG1       -0.4573
     40 H          -5.9101    3.0946   -0.0006 H       1  LIG1        0.1042
     41 C          -7.6962    7.3845   -0.0002 C.1     1  LIG1       -0.0645
     42 C          -8.5537    8.2375   -0.0000 C.1     1  LIG1       -0.1138
     43 H          -9.2857    9.0111    0.0005 H       1  LIG1        0.1232
     44 C          -8.5629    4.4313   -0.0005 C.1     1  LIG1       -0.0653
     45 C          -9.7016    4.0248   -0.0005 C.1     1  LIG1       -0.1138
     46 H         -10.7058    3.6691   -0.0005 H       1  LIG1        0.1232
@<TRIPOS>BOND
     1    40    38    1
     2    46    45    1
     3    12    11    1
     4    38    39   ar
     5    38    37   ar
     6    45    44    3
     7    44    37    1
     8    39    35   ar
     9    37    36   ar
    10    23    22    1
    11    33    34    1
    12    33    32    3
    13    22    21    3
    14    35    36   ar
    15    35    27    1
    16    36    41    1
    17    32    26    1
    18    11    10    3
    19    27    26   ar
    20    27    28   ar
    21    21    15    1
    22    26    25   ar
    23    28    24   ar
    24    24    25   ar
    25    24    16    1
    26    41    42    3
    27    25    29    1
    28    15    16   ar
    29    15    14   ar
    30    10     3    1
    31    16    17   ar
    32    29    30    3
    33    14    18    1
    34    14    13   ar
    35    17    13   ar
    36    18    19    3
    37    13     4    1
    38    42    43    1
    39    30    31    1
    40     3     4   ar
    41     3     2   ar
    42     4     5   ar
    43    19    20    1
    44     2     7    1
    45     2     1   ar
    46     7     8    3
    47     5     1   ar
    48     8     9    1
    49     1     6    1
