@<TRIPOS>MOLECULE
mol_data/opt/b3lyp/geoms/mol2/12ee12ee-12ee-12ee-.out
 46 49 0 0 0
SMALL
GASTEIGER

@<TRIPOS>ATOM
      1 C           0.0694    1.7518    0.4248 C.ar    1  LIG1        0.1093
      2 C           1.4121    1.7329    0.6868 C.ar    1  LIG1        0.0785
      3 C           1.8581    3.1116    0.5705 C.ar    1  LIG1        0.0888
      4 C           0.7262    3.8409    0.2441 C.ar    1  LIG1        0.1875
      5 O          -0.3552    3.0106    0.1576 O.2     1  LIG1       -0.4573
      6 H          -0.6790    0.9764    0.3945 H       1  LIG1        0.1042
      7 C           2.2051    0.6029    1.0062 C.1     1  LIG1       -0.0653
      8 C           2.8841   -0.3596    1.2790 C.1     1  LIG1       -0.1138
      9 H           3.4850   -1.2057    1.5197 H       1  LIG1        0.1232
     10 C           3.1785    3.5763    0.7597 C.1     1  LIG1       -0.0645
     11 C           4.3183    3.9439    0.9292 C.1     1  LIG1       -0.1138
     12 H           5.3180    4.2820    1.0751 H       1  LIG1        0.1232
     13 C           0.4946    5.2313   -0.0028 C.ar    1  LIG1        0.1885
     14 C          -0.6400    5.9590   -0.3252 C.ar    1  LIG1        0.0896
     15 C          -0.2039    7.3346   -0.4520 C.ar    1  LIG1        0.0896
     16 C           1.1519    7.3346   -0.1758 C.ar    1  LIG1        0.1885
     17 O           1.5707    6.0585    0.0861 O.2     1  LIG1       -0.4460
     18 C          -1.9589    5.4912   -0.5226 C.1     1  LIG1       -0.0645
     19 C          -3.0989    5.1269   -0.6982 C.1     1  LIG1       -0.1138
     20 H          -4.1007    4.7986   -0.8513 H       1  LIG1        0.1232
     21 C          -1.0114    8.4163   -0.8701 C.1     1  LIG1       -0.0645
     22 C          -1.7190    9.3183   -1.2548 C.1     1  LIG1       -0.1138
     23 H          -2.3286   10.1218   -1.5977 H       1  LIG1        0.1232
     24 C           2.1612    8.3551   -0.1301 C.ar    1  LIG1        0.1885
     25 C           2.1594    9.6894    0.2366 C.ar    1  LIG1        0.0896
     26 C           3.5159   10.1602    0.0361 C.ar    1  LIG1        0.0896
     27 C           4.2406    9.0637   -0.3934 C.ar    1  LIG1        0.1885
     28 O           3.4208    7.9770   -0.5005 O.2     1  LIG1       -0.4460
     29 C           1.0958   10.4513    0.7699 C.1     1  LIG1       -0.0645
     30 C           0.2111   11.1191    1.2537 C.1     1  LIG1       -0.1138
     31 H          -0.5764   11.6934    1.6835 H       1  LIG1        0.1232
     32 C           3.9560   11.4939    0.1935 C.1     1  LIG1       -0.0645
     33 C           4.3008   12.6470    0.3112 C.1     1  LIG1       -0.1138
     34 H           4.6173   13.6596    0.4066 H       1  LIG1        0.1232
     35 C           5.6189    8.8594   -0.7503 C.ar    1  LIG1        0.1875
     36 C           6.8166    9.3770   -0.2927 C.ar    1  LIG1        0.0888
     37 C           7.8518    8.7456   -1.0963 C.ar    1  LIG1        0.0785
     38 C           7.1958    7.8973   -1.9457 C.ar    1  LIG1        0.1093
     39 O           5.8579    7.9526   -1.7503 O.2     1  LIG1       -0.4573
     40 H           7.5429    7.2199   -2.7096 H       1  LIG1        0.1042
     41 C           7.0341   10.2617    0.7873 C.1     1  LIG1       -0.0645
     42 C           7.2508   10.9975    1.7224 C.1     1  LIG1       -0.1138
     43 H           7.4267   11.6427    2.5514 H       1  LIG1        0.1232
     44 C           9.2505    8.9519   -1.0026 C.1     1  LIG1       -0.0653
     45 C          10.4435    9.1301   -0.9202 C.1     1  LIG1       -0.1138
     46 H          11.4944    9.2895   -0.8467 H       1  LIG1        0.1232
@<TRIPOS>BOND
     1    40    38    1
     2    38    39   ar
     3    38    37   ar
     4    39    35   ar
     5    23    22    1
     6    22    21    3
     7    37    44    1
     8    37    36   ar
     9    44    45    3
    10    45    46    1
    11    21    15    1
    12    20    19    1
    13    35    27    1
    14    35    36   ar
    15    19    18    3
    16    18    14    1
    17    28    27   ar
    18    28    24   ar
    19    15    14   ar
    20    15    16   ar
    21    27    26   ar
    22    14    13   ar
    23    36    41    1
    24    16    24    1
    25    16    17   ar
    26    24    25   ar
    27    13    17   ar
    28    13     4    1
    29    26    32    1
    30    26    25   ar
    31     5     4   ar
    32     5     1   ar
    33    32    33    3
    34    25    29    1
    35     4     3   ar
    36    33    34    1
    37     6     1    1
    38     1     2   ar
    39     3     2   ar
    40     3    10    1
    41     2     7    1
    42    10    11    3
    43    29    30    3
    44    41    42    3
    45    11    12    1
    46     7     8    3
    47    30    31    1
    48     8     9    1
    49    42    43    1
