@<TRIPOS>MOLECULE
mol_data/opt/b3lyp/geoms/mol2/12ee12ee.out
 24 25 0 0 0
SMALL
GASTEIGER

@<TRIPOS>ATOM
      1 C           0.1483    1.8293    0.0001 C.ar    1  LIG1        0.1093
      2 C           1.5120    1.7557    0.0001 C.ar    1  LIG1        0.0785
      3 C           1.9862    3.1327   -0.0000 C.ar    1  LIG1        0.0888
      4 C           0.8471    3.9234   -0.0000 C.ar    1  LIG1        0.1874
      5 O          -0.2632    3.1168    0.0001 O.2     1  LIG1       -0.4573
      6 H          -0.6241    1.0769    0.0002 H       1  LIG1        0.1042
      7 C           2.3060    0.5824    0.0001 C.1     1  LIG1       -0.0653
      8 C           2.9840   -0.4188    0.0001 C.1     1  LIG1       -0.1138
      9 H           3.5833   -1.2995    0.0002 H       1  LIG1        0.1232
     10 C           3.3560    3.4785   -0.0002 C.1     1  LIG1       -0.0645
     11 C           4.5512    3.6636   -0.0003 C.1     1  LIG1       -0.1138
     12 H           5.5982    3.8586   -0.0001 H       1  LIG1        0.1232
     13 C           0.5420    5.3332   -0.0001 C.ar    1  LIG1        0.1874
     14 C           1.2524    6.5241   -0.0000 C.ar    1  LIG1        0.0888
     15 C           0.2513    7.5819   -0.0002 C.ar    1  LIG1        0.0785
     16 C          -0.9599    6.9512   -0.0003 C.ar    1  LIG1        0.1093
     17 O          -0.8024    5.6087   -0.0003 O.2     1  LIG1       -0.4573
     18 H          -1.9743    7.3170   -0.0005 H       1  LIG1        0.1042
     19 C           2.6426    6.7755    0.0002 C.1     1  LIG1       -0.0645
     20 C           3.8073    7.1011    0.0004 C.1     1  LIG1       -0.1138
     21 H           4.8413    7.3562    0.0004 H       1  LIG1        0.1232
     22 C           0.4893    8.9785   -0.0002 C.1     1  LIG1       -0.0653
     23 C           0.6927   10.1704   -0.0002 C.1     1  LIG1       -0.1138
     24 H           0.8743   11.2201   -0.0001 H       1  LIG1        0.1232
@<TRIPOS>BOND
     1    18    16    1
     2    11    10    3
     3    11    12    1
     4    16    17   ar
     5    16    15   ar
     6    17    13   ar
     7    22    15    1
     8    22    23    3
     9    10     3    1
    10    15    14   ar
    11    23    24    1
    12    13    14   ar
    13    13     4    1
    14     3     4   ar
    15     3     2   ar
    16    14    19    1
    17     4     5   ar
    18     5     1   ar
    19     2     7    1
    20     2     1   ar
    21     7     8    3
    22     8     9    1
    23     1     6    1
    24    19    20    3
    25    21    20    1
