@<TRIPOS>MOLECULE
mol_data/opt/b3lyp/geoms/mol2/12ee6de-4ae-12id4fh-12el12df-6la.out
 96 103 0 0 0
SMALL
GASTEIGER

@<TRIPOS>ATOM
      1 C           1.4330    1.6566    1.7121 C.ar    1  LIG1        0.1092
      2 C           2.5088    1.5628    0.8717 C.ar    1  LIG1        0.0783
      3 C           2.6554    2.8798    0.2763 C.ar    1  LIG1        0.0858
      4 C           1.6444    3.6592    0.8155 C.ar    1  LIG1        0.1541
      5 O           0.9124    2.9042    1.6862 O.2     1  LIG1       -0.4603
      6 H           0.9487    0.9468    2.3633 H       1  LIG1        0.1042
      7 C           3.3114    0.4212    0.6277 C.1     1  LIG1       -0.0653
      8 C           3.9989   -0.5506    0.4171 C.1     1  LIG1       -0.1138
      9 H           4.6041   -1.4077    0.2314 H       1  LIG1        0.1232
     10 C           3.6341    3.2373   -0.6805 C.1     1  LIG1       -0.0646
     11 C           4.4838    3.5126   -1.4972 C.1     1  LIG1       -0.1138
     12 H           5.2279    3.7484   -2.2228 H       1  LIG1        0.1232
     13 C          -0.0243    5.5676    0.9685 C.ar    1  LIG1        0.1514
     14 C           1.2519    5.0467    0.6330 C.ar    1  LIG1        0.0555
     15 C           2.1637    5.9733    0.1099 C.ar    1  LIG1       -0.0308
     16 C           1.8184    7.3144   -0.0855 C.ar    1  LIG1        0.0514
     17 C           0.4943    7.7234    0.2509 C.ar    1  LIG1        0.0878
     18 N          -0.3666    6.8460    0.7790 N.ar    1  LIG1       -0.2344
     19 H           3.1689    5.6547   -0.1351 H       1  LIG1        0.0638
     20 N          -1.9849    4.1549    1.9415 N.1     1  LIG1       -0.1893
     21 C          -1.0891    4.7603    1.5153 C.1     1  LIG1        0.1198
     22 C           2.8379    8.2010   -0.5474 C.1     1  LIG1       -0.0675
     23 C           3.7567    8.8925   -0.9245 C.1     1  LIG1       -0.1138
     24 H           4.5523    9.5229   -1.2499 H       1  LIG1        0.1232
     25 C           0.3697    9.9460   -0.9670 C.ar    1  LIG1       -0.0518
     26 C          -0.1870   11.2120   -1.0987 C.ar    1  LIG1       -0.0493
     27 C          -0.0291    9.1013    0.0806 C.ar    1  LIG1        0.0028
     28 C          -1.1401   11.7032   -0.1915 C.ar    1  LIG1        0.0330
     29 H           0.0955   11.8262   -1.9461 H       1  LIG1        0.0625
     30 C          -1.0019    9.5673    0.9747 C.ar    1  LIG1       -0.0364
     31 C          -1.5543   10.8519    0.8717 C.ar    1  LIG1        0.0360
     32 H          -1.3313    8.9197    1.7779 H       1  LIG1        0.0636
     33 H           1.0861    9.6054   -1.7035 H       1  LIG1        0.0624
     34 C          -2.4856   11.2601    1.8769 C.1     1  LIG1       -0.0689
     35 C          -3.2516   11.5516    2.7665 C.1     1  LIG1       -0.1139
     36 H          -3.9335   11.8292    3.5368 H       1  LIG1        0.1232
     37 C          -1.6608   13.0550   -0.3760 C.ar    1  LIG1        0.1410
     38 C          -1.0827   14.2285   -0.7930 C.ar    1  LIG1        0.0134
     39 C          -2.1356   15.2132   -0.7654 C.ar    1  LIG1        0.1010
     40 C          -3.2878   14.5755   -0.3269 C.ar    1  LIG1        0.1568
     41 O          -2.9886   13.2703   -0.0985 O.2     1  LIG1       -0.4531
     42 C           0.3404   14.5022   -1.1720 C.3     1  LIG1       -0.0349
     43 H           0.6485   15.4885   -0.8136 H       1  LIG1        0.0279
     44 H           0.4756   14.5030   -2.2603 H       1  LIG1        0.0279
     45 H           1.0147   13.7541   -0.7491 H       1  LIG1        0.0279
     46 N          -1.6970   17.6014   -1.6405 N.1     1  LIG1       -0.1907
     47 C          -1.9487   16.5462   -1.2176 C.1     1  LIG1        0.1032
     48 C          -5.0867   16.2599    0.1856 C.ar    1  LIG1        0.1283
     49 C          -6.4330   16.5476    0.3257 C.ar    1  LIG1       -0.0070
     50 C          -4.6836   14.9431   -0.1304 C.ar    1  LIG1        0.0617
     51 C          -7.4376   15.5656    0.1907 C.ar    1  LIG1        0.0427
     52 H          -6.7271   17.5648    0.5593 H       1  LIG1        0.0662
     53 C          -5.6730   13.9595   -0.2394 C.ar    1  LIG1       -0.0261
     54 C          -7.0427   14.2207   -0.0884 C.ar    1  LIG1        0.0363
     55 H          -5.3629   12.9432   -0.4576 H       1  LIG1        0.0644
     56 O          -4.1091   17.1932    0.3749 O.3     1  LIG1       -0.5060
     57 H          -4.4937   18.0788    0.3942 H       1  LIG1        0.2922
     58 N          -7.9254   13.1522   -0.1571 N.pl3   1  LIG1       -0.3574
     59 H          -8.8910   13.3411   -0.3770 H       1  LIG1        0.1423
     60 H          -7.5572   12.3241   -0.6007 H       1  LIG1        0.1423
     61 C          -8.8211   15.9697    0.3524 C.ar    1  LIG1        0.1567
     62 C          -9.4498   17.0906    0.8984 C.ar    1  LIG1        0.1128
     63 C         -10.8658   16.8662    0.7490 C.ar    1  LIG1        0.1848
     64 C         -11.0197   15.6517    0.1184 C.ar    1  LIG1        0.2146
     65 O          -9.7760   15.1159   -0.1123 O.2     1  LIG1       -0.4465
     66 C          -8.8699   18.1916    1.5735 C.1     1  LIG1       -0.0621
     67 C          -8.4093   19.1483    2.1568 C.1     1  LIG1       -0.1137
     68 H          -8.0066   19.9734    2.6979 H       1  LIG1        0.1232
     69 O         -11.8860   17.6042    1.2265 O.3     1  LIG1       -0.4901
     70 C         -12.0110   18.9510    0.7342 C.3     1  LIG1        0.0790
     71 H         -12.9049   19.3526    1.2096 H       1  LIG1        0.0660
     72 H         -11.1361   19.5493    1.0012 H       1  LIG1        0.0660
     73 H         -12.1512   18.9478   -0.3514 H       1  LIG1        0.0660
     74 C         -12.1325   14.8452   -0.2709 C.ar    1  LIG1        0.1953
     75 C         -13.5055   15.0461   -0.3670 C.ar    1  LIG1        0.1426
     76 C         -14.0464   13.7899   -0.8007 C.ar    1  LIG1        0.1813
     77 C         -12.9973   12.9148   -0.9637 C.ar    1  LIG1        0.1834
     78 O         -11.8322   13.5745   -0.6281 O.2     1  LIG1       -0.4463
     79 N         -14.8964   17.1878   -0.0025 N.1     1  LIG1       -0.1906
     80 C         -14.2522   16.2286   -0.1468 C.1     1  LIG1        0.1068
     81 O         -15.3736   13.5917   -0.9813 O.3     1  LIG1       -0.5023
     82 H         -15.5530   12.6408   -0.9935 H       1  LIG1        0.2923
     83 C         -11.9844   10.5869   -0.9373 C.ar    1  LIG1        0.2255
     84 C         -12.9512   11.5300   -1.3996 C.ar    1  LIG1        0.0824
     85 C         -13.9082   11.0342   -2.2944 C.ar    1  LIG1       -0.0444
     86 C         -13.9101    9.6862   -2.6605 C.ar    1  LIG1       -0.0427
     87 C         -12.9257    8.8656   -2.1282 C.ar    1  LIG1        0.0314
     88 N         -11.9765    9.3098   -1.2882 N.ar    1  LIG1       -0.2207
     89 H         -14.6330   11.7160   -2.7303 H       1  LIG1        0.0627
     90 H         -12.8806    7.8084   -2.3796 H       1  LIG1        0.0831
     91 O         -11.0329   11.0423   -0.0977 O.3     1  LIG1       -0.4792
     92 C         -10.0851   10.0923    0.4066 C.3     1  LIG1        0.0804
     93 H          -9.3943   10.6798    1.0121 H       1  LIG1        0.0660
     94 H         -10.5801    9.3305    1.0150 H       1  LIG1        0.0660
     95 H          -9.5565    9.5929   -0.4097 H       1  LIG1        0.0660
     96 H         -14.6473    9.2949   -3.3526 H       1  LIG1        0.0633
@<TRIPOS>BOND
     1    96    86    1
     2    89    85    1
     3    86    85   ar
     4    86    87   ar
     5    90    87    1
     6    85    84   ar
     7    44    42    1
     8    12    11    1
     9    87    88   ar
    10    29    26    1
    11    33    25    1
    12    46    47    3
    13    11    10    3
    14    84    77    1
    15    84    83   ar
    16    88    83   ar
    17    24    23    1
    18    47    39    1
    19    42    43    1
    20    42    38    1
    21    42    45    1
    22    26    25   ar
    23    26    28   ar
    24    82    81    1
    25    81    76    1
    26    25    27   ar
    27    77    76   ar
    28    77    78   ar
    29    83    91    1
    30    23    22    3
    31    76    75   ar
    32    38    39   ar
    33    38    37   ar
    34    39    40   ar
    35    10     3    1
    36    78    74   ar
    37    60    58    1
    38    22    16    1
    39    55    53    1
    40    95    92    1
    41    59    58    1
    42    37    28    1
    43    37    41   ar
    44    75    74   ar
    45    75    80    1
    46    73    70    1
    47    40    50    1
    48    40    41   ar
    49    74    64    1
    50    53    50   ar
    51    53    54   ar
    52    28    31   ar
    53    58    54    1
    54    80    79    3
    55    19    15    1
    56    50    48   ar
    57    65    64   ar
    58    65    61   ar
    59    91    92    1
    60    54    51   ar
    61    16    15   ar
    62    16    17   ar
    63    27    17    1
    64    27    30   ar
    65    15    14   ar
    66    64    63   ar
    67    48    49   ar
    68    48    56    1
    69    51    49   ar
    70    51    61    1
    71     9     8    1
    72    17    18   ar
    73     3     4   ar
    74     3     2   ar
    75    49    52    1
    76    61    62   ar
    77    56    57    1
    78    92    93    1
    79    92    94    1
    80     8     7    3
    81     7     2    1
    82    14     4    1
    83    14    13   ar
    84    70    72    1
    85    70    71    1
    86    70    69    1
    87    63    62   ar
    88    63    69    1
    89    18    13   ar
    90     4     5   ar
    91     2     1   ar
    92    31    30   ar
    93    31    34    1
    94    62    66    1
    95    13    21    1
    96    30    32    1
    97    21    20    3
    98    66    67    3
    99     5     1   ar
   100     1     6    1
   101    34    35    3
   102    67    68    1
   103    35    36    1
