@<TRIPOS>MOLECULE
mol_data/opt/b3lyp/geoms/mol2/12ee12ee12ee.out
 35 37 0 0 0
SMALL
GASTEIGER

@<TRIPOS>ATOM
      1 C           0.1270    1.8697    0.0002 C.ar    1  LIG1        0.1093
      2 C           1.4876    1.7477    0.0001 C.ar    1  LIG1        0.0785
      3 C           2.0104    3.1063   -0.0000 C.ar    1  LIG1        0.0888
      4 C           0.8988    3.9375    0.0000 C.ar    1  LIG1        0.1875
      5 O          -0.2391    3.1699    0.0002 O.2     1  LIG1       -0.4573
      6 H          -0.6712    1.1446    0.0004 H       1  LIG1        0.1042
      7 C           2.2391    0.5467    0.0002 C.1     1  LIG1       -0.0653
      8 C           2.8807   -0.4781    0.0002 C.1     1  LIG1       -0.1138
      9 H           3.4479   -1.3799    0.0002 H       1  LIG1        0.1232
     10 C           3.3918    3.4011   -0.0002 C.1     1  LIG1       -0.0645
     11 C           4.5933    3.5392   -0.0004 C.1     1  LIG1       -0.1138
     12 H           5.6472    3.6931   -0.0006 H       1  LIG1        0.1232
     13 C           0.6420    5.3548   -0.0000 C.ar    1  LIG1        0.1885
     14 C           1.3913    6.5205   -0.0000 C.ar    1  LIG1        0.0896
     15 C           0.4376    7.6157   -0.0001 C.ar    1  LIG1        0.0896
     16 C          -0.8201    7.0339   -0.0002 C.ar    1  LIG1        0.1885
     17 O          -0.6846    5.6758   -0.0001 O.2     1  LIG1       -0.4460
     18 C           2.7904    6.7169    0.0001 C.1     1  LIG1       -0.0645
     19 C           3.9681    6.9912    0.0002 C.1     1  LIG1       -0.1138
     20 H           5.0124    7.2001    0.0004 H       1  LIG1        0.1232
     21 C           0.8246    8.9746   -0.0002 C.1     1  LIG1       -0.0645
     22 C           1.2583   10.1033   -0.0003 C.1     1  LIG1       -0.1138
     23 H           1.6094   11.1087   -0.0006 H       1  LIG1        0.1232
     24 C          -2.1885    7.4831   -0.0002 C.ar    1  LIG1        0.1875
     25 C          -2.8590    8.6984   -0.0002 C.ar    1  LIG1        0.0888
     26 C          -4.2766    8.3675   -0.0004 C.ar    1  LIG1        0.0785
     27 C          -4.3429    7.0030   -0.0005 C.ar    1  LIG1        0.1093
     28 O          -3.1053    6.4616   -0.0004 O.2     1  LIG1       -0.4573
     29 H          -5.1709    6.3122   -0.0007 H       1  LIG1        0.1042
     30 C          -2.3771   10.0262    0.0000 C.1     1  LIG1       -0.0645
     31 C          -2.0751   11.1973    0.0003 C.1     1  LIG1       -0.1138
     32 H          -1.7777   12.2200    0.0012 H       1  LIG1        0.1232
     33 C          -5.3628    9.2770   -0.0004 C.1     1  LIG1       -0.0653
     34 C          -6.2896   10.0535   -0.0004 C.1     1  LIG1       -0.1138
     35 H          -7.1048   10.7393   -0.0005 H       1  LIG1        0.1232
@<TRIPOS>BOND
     1    29    27    1
     2    23    22    1
     3    12    11    1
     4    27    28   ar
     5    27    26   ar
     6    35    34    1
     7    28    24   ar
     8    34    33    3
     9    33    26    1
    10    11    10    3
    11    26    25   ar
    12    22    21    3
    13    24    25   ar
    14    24    16    1
    15    21    15    1
    16    10     3    1
    17    25    30    1
    18    16    15   ar
    19    16    17   ar
    20    15    14   ar
    21    17    13   ar
    22    14    13   ar
    23    14    18    1
    24    13     4    1
    25     3     4   ar
    26     3     2   ar
    27    30    31    3
    28     4     5   ar
    29    18    19    3
    30     2     7    1
    31     2     1   ar
    32     7     8    3
    33     8     9    1
    34     5     1   ar
    35    19    20    1
    36     1     6    1
    37    31    32    1
