@<TRIPOS>MOLECULE
mol_data/opt/b3lyp/geoms/mol2/12ee12ee-12ee12ee.out
 46 49 0 0 0
SMALL
GASTEIGER

@<TRIPOS>ATOM
      1 C           0.2372    1.7092    0.0279 C.ar    1  LIG1        0.1093
      2 C           1.5636    1.7054   -0.3068 C.ar    1  LIG1        0.0785
      3 C           1.9643    3.1022   -0.3537 C.ar    1  LIG1        0.0888
      4 C           0.8277    3.8258   -0.0301 C.ar    1  LIG1        0.1875
      5 O          -0.2175    2.9744    0.1971 O.2     1  LIG1       -0.4573
      6 H          -0.4802    0.9179    0.1750 H       1  LIG1        0.1042
      7 C           2.3775    0.5745   -0.5643 C.1     1  LIG1       -0.0653
      8 C           3.0744   -0.3888   -0.7845 C.1     1  LIG1       -0.1138
      9 H           3.6903   -1.2359   -0.9792 H       1  LIG1        0.1232
     10 C           3.2379    3.5911   -0.7169 C.1     1  LIG1       -0.0645
     11 C           4.3316    3.9864   -1.0511 C.1     1  LIG1       -0.1138
     12 H           5.2809    4.3597   -1.3571 H       1  LIG1        0.1232
     13 C           0.5554    5.2253    0.0924 C.ar    1  LIG1        0.1885
     14 C          -0.6224    5.9551    0.1390 C.ar    1  LIG1        0.0896
     15 C          -0.2267    7.3420    0.2439 C.ar    1  LIG1        0.0896
     16 C           1.1599    7.3425    0.2575 C.ar    1  LIG1        0.1885
     17 O           1.6272    6.0642    0.1651 O.2     1  LIG1       -0.4460
     18 C          -1.9515    5.4774    0.0785 C.1     1  LIG1       -0.0645
     19 C          -3.1003    5.1030    0.0262 C.1     1  LIG1       -0.1138
     20 H          -4.1100    4.7666   -0.0201 H       1  LIG1        0.1232
     21 C          -1.1024    8.4476    0.3316 C.1     1  LIG1       -0.0645
     22 C          -1.8773    9.3729    0.4076 C.1     1  LIG1       -0.1138
     23 H          -2.5514   10.1949    0.4749 H       1  LIG1        0.1232
     24 C           2.1299    8.3868    0.3637 C.ar    1  LIG1        0.1885
     25 C           3.4877    8.3951    0.6443 C.ar    1  LIG1        0.0896
     26 C           3.8872    9.7871    0.6233 C.ar    1  LIG1        0.0896
     27 C           2.7470   10.5093    0.3196 C.ar    1  LIG1        0.1885
     28 O           1.6853    9.6605    0.1712 O.2     1  LIG1       -0.4460
     29 C           4.3172    7.3004    0.9719 C.1     1  LIG1       -0.0645
     30 C           5.0419    6.3803    1.2748 C.1     1  LIG1       -0.1138
     31 H           5.6551    5.5547    1.5520 H       1  LIG1        0.1232
     32 C           5.1703   10.2788    0.9540 C.1     1  LIG1       -0.0645
     33 C           6.2699   10.6745    1.2647 C.1     1  LIG1       -0.1138
     34 H           7.2324   11.0377    1.5410 H       1  LIG1        0.1232
     35 C           2.4702   11.9093    0.1519 C.ar    1  LIG1        0.1875
     36 C           3.1939   12.9773   -0.3474 C.ar    1  LIG1        0.0888
     37 C           2.3220   14.1350   -0.2263 C.ar    1  LIG1        0.0785
     38 C           1.1548   13.6655    0.3106 C.ar    1  LIG1        0.1093
     39 O           1.2264   12.3339    0.5418 O.2     1  LIG1       -0.4573
     40 H           0.2267   14.1499    0.5691 H       1  LIG1        0.1042
     41 C           4.4742   12.9669   -0.9443 C.1     1  LIG1       -0.0645
     42 C           5.5574   12.9829   -1.4823 C.1     1  LIG1       -0.1138
     43 H           6.5103   12.9815   -1.9583 H       1  LIG1        0.1232
     44 C           2.6149   15.4684   -0.6057 C.1     1  LIG1       -0.0653
     45 C           2.8679   16.6054   -0.9300 C.1     1  LIG1       -0.1138
     46 H           3.0933   17.6065   -1.2162 H       1  LIG1        0.1232
@<TRIPOS>BOND
     1    43    42    1
     2    42    41    3
     3    12    11    1
     4    46    45    1
     5    11    10    3
     6     9     8    1
     7    41    36    1
     8    45    44    3
     9     8     7    3
    10    10     3    1
    11    44    37    1
    12     7     2    1
    13     3     2   ar
    14     3     4   ar
    15    36    37   ar
    16    36    35   ar
    17     2     1   ar
    18    37    38   ar
    19     4    13    1
    20     4     5   ar
    21    20    19    1
    22    19    18    3
    23     1     6    1
    24     1     5   ar
    25    18    14    1
    26    13    14   ar
    27    13    17   ar
    28    14    15   ar
    29    35    27    1
    30    35    39   ar
    31    17    16   ar
    32    28    27   ar
    33    28    24   ar
    34    15    16   ar
    35    15    21    1
    36    16    24    1
    37    38    39   ar
    38    38    40    1
    39    27    26   ar
    40    21    22    3
    41    24    25   ar
    42    22    23    1
    43    26    25   ar
    44    26    32    1
    45    25    29    1
    46    32    33    3
    47    29    30    3
    48    33    34    1
    49    30    31    1
