@<TRIPOS>MOLECULE
mol_data/opt/b3lyp/geoms/mol2/12ee12ee-12ee12ee-.out
 46 49 0 0 0
SMALL
GASTEIGER

@<TRIPOS>ATOM
      1 C           0.2216    1.7098    0.0101 C.ar    1  LIG1        0.1093
      2 C           1.5192    1.7270   -0.4227 C.ar    1  LIG1        0.0785
      3 C           1.9149    3.1259   -0.4334 C.ar    1  LIG1        0.0888
      4 C           0.8045    3.8292    0.0065 C.ar    1  LIG1        0.1875
      5 O          -0.2201    2.9640    0.2713 O.2     1  LIG1       -0.4573
      6 H          -0.4823    0.9096    0.1736 H       1  LIG1        0.1042
      7 C           2.3127    0.6125   -0.7915 C.1     1  LIG1       -0.0653
      8 C           2.9924   -0.3365   -1.1066 C.1     1  LIG1       -0.1138
      9 H           3.5931   -1.1710   -1.3855 H       1  LIG1        0.1232
     10 C           3.1622    3.6349   -0.8551 C.1     1  LIG1       -0.0645
     11 C           4.2334    4.0488   -1.2363 C.1     1  LIG1       -0.1138
     12 H           5.1629    4.4393   -1.5796 H       1  LIG1        0.1232
     13 C           0.5432    5.2201    0.2155 C.ar    1  LIG1        0.1885
     14 C          -0.6197    5.9367    0.4537 C.ar    1  LIG1        0.0896
     15 C          -0.2178    7.3221    0.5587 C.ar    1  LIG1        0.0896
     16 C           1.1563    7.3360    0.3727 C.ar    1  LIG1        0.1885
     17 O           1.6110    6.0653    0.1684 O.2     1  LIG1       -0.4460
     18 C          -1.9418    5.4499    0.5690 C.1     1  LIG1       -0.0645
     19 C          -3.0850    5.0682    0.6706 C.1     1  LIG1       -0.1138
     20 H          -4.0894    4.7248    0.7602 H       1  LIG1        0.1232
     21 C          -1.0651    8.4140    0.8499 C.1     1  LIG1       -0.0645
     22 C          -1.8042    9.3338    1.1165 C.1     1  LIG1       -0.1138
     23 H          -2.4329   10.1578    1.3620 H       1  LIG1        0.1232
     24 C           2.1297    8.3824    0.3798 C.ar    1  LIG1        0.1885
     25 C           3.5017    8.3956    0.5817 C.ar    1  LIG1        0.0896
     26 C           3.9047    9.7813    0.4850 C.ar    1  LIG1        0.0896
     27 C           2.7446   10.4986    0.2354 C.ar    1  LIG1        0.1885
     28 O           1.6775    9.6536    0.1738 O.2     1  LIG1       -0.4460
     29 C           4.3456    7.3030    0.8797 C.1     1  LIG1       -0.0645
     30 C           5.0814    6.3824    1.1525 C.1     1  LIG1       -0.1138
     31 H           5.7071    5.5576    1.4031 H       1  LIG1        0.1232
     32 C           5.2254   10.2677    0.6168 C.1     1  LIG1       -0.0645
     33 C           6.3674   10.6491    0.7325 C.1     1  LIG1       -0.1138
     34 H           7.3708   10.9922    0.8343 H       1  LIG1        0.1232
     35 C           2.4858   11.8901    0.0272 C.ar    1  LIG1        0.1875
     36 C           1.3806   12.5946   -0.4238 C.ar    1  LIG1        0.0888
     37 C           1.7762   13.9935   -0.4047 C.ar    1  LIG1        0.0785
     38 C           3.0686   14.0095    0.0433 C.ar    1  LIG1        0.1093
     39 O           3.5072   12.7545    0.3062 O.2     1  LIG1       -0.4573
     40 H           3.7705   14.8091    0.2172 H       1  LIG1        0.1042
     41 C           0.1382   12.0868   -0.8613 C.1     1  LIG1       -0.0645
     42 C          -0.9285   11.6740   -1.2560 C.1     1  LIG1       -0.1138
     43 H          -1.8540   11.2843   -1.6108 H       1  LIG1        0.1232
     44 C           0.9870   15.1090   -0.7798 C.1     1  LIG1       -0.0653
     45 C           0.3111   16.0588   -1.1003 C.1     1  LIG1       -0.1138
     46 H          -0.2864   16.8940   -1.3840 H       1  LIG1        0.1232
@<TRIPOS>BOND
     1    43    42    1
     2    12    11    1
     3     9     8    1
     4    46    45    1
     5    42    41    3
     6    11    10    3
     7     8     7    3
     8    45    44    3
     9    41    36    1
    10    10     3    1
    11     7     2    1
    12    44    37    1
    13     3     2   ar
    14     3     4   ar
    15    36    37   ar
    16    36    35   ar
    17     2     1   ar
    18    37    38   ar
    19     4    13    1
    20     4     5   ar
    21     1     6    1
    22     1     5   ar
    23    35    27    1
    24    35    39   ar
    25    38    40    1
    26    38    39   ar
    27    17    13   ar
    28    17    16   ar
    29    28    27   ar
    30    28    24   ar
    31    13    14   ar
    32    27    26   ar
    33    16    24    1
    34    16    15   ar
    35    24    25   ar
    36    14    15   ar
    37    14    18    1
    38    26    25   ar
    39    26    32    1
    40    15    21    1
    41    18    19    3
    42    25    29    1
    43    32    33    3
    44    19    20    1
    45    33    34    1
    46    21    22    3
    47    29    30    3
    48    22    23    1
    49    30    31    1
