@<TRIPOS>MOLECULE
mol_data/opt/b3lyp/geoms/mol2/12ee4hf-4fa13he-.out
 49 52 0 0 0
SMALL
GASTEIGER

@<TRIPOS>ATOM
      1 C           0.1465    1.6137   -0.0641 C.ar    1  LIG1        0.1092
      2 C           1.5044    1.4976   -0.1323 C.ar    1  LIG1        0.0783
      3 C           2.0131    2.8625   -0.1178 C.ar    1  LIG1        0.0858
      4 C           0.9116    3.6950   -0.0228 C.ar    1  LIG1        0.1532
      5 O          -0.2218    2.9177    0.0009 O.2     1  LIG1       -0.4604
      6 H          -0.6485    0.8853   -0.0477 H       1  LIG1        0.1042
      7 C           2.2618    0.3030   -0.2163 C.1     1  LIG1       -0.0653
      8 C           2.9125   -0.7139   -0.2886 C.1     1  LIG1       -0.1138
      9 H           3.4867   -1.6090   -0.3503 H       1  LIG1        0.1232
     10 C           3.3728    3.2226   -0.2665 C.1     1  LIG1       -0.0646
     11 C           4.5416    3.5179   -0.3883 C.1     1  LIG1       -0.1138
     12 H           5.5670    3.7700   -0.5300 H       1  LIG1        0.1232
     13 C           1.4893    6.0554    0.7209 C.ar    1  LIG1        0.0362
     14 C           1.1222    7.4111    0.6955 C.ar    1  LIG1       -0.0290
     15 C           0.6815    5.1366    0.0059 C.ar    1  LIG1        0.0426
     16 C           0.0014    7.9036    0.0240 C.ar    1  LIG1        0.0288
     17 H           1.7419    8.1160    1.2390 H       1  LIG1        0.0643
     18 C          -0.4520    5.6264   -0.6737 C.ar    1  LIG1       -0.0071
     19 C          -0.7975    6.9685   -0.6746 C.ar    1  LIG1        0.1254
     20 H          -1.0678    4.9189   -1.2225 H       1  LIG1        0.0662
     21 N           2.5518    5.6574    1.5332 N.pl3   1  LIG1       -0.3574
     22 H           3.1311    4.9066    1.1791 H       1  LIG1        0.1423
     23 H           3.1192    6.4313    1.8522 H       1  LIG1        0.1423
     24 O          -1.8962    7.4268   -1.3635 O.3     1  LIG1       -0.5061
     25 H          -2.3044    6.6789   -1.8185 H       1  LIG1        0.2922
     26 C           0.6227   10.3627   -0.1229 C.ar    1  LIG1        0.1253
     27 C           0.2772   11.7130   -0.0596 C.ar    1  LIG1       -0.0104
     28 C          -0.3421    9.3485    0.0657 C.ar    1  LIG1        0.0271
     29 C          -1.0442   12.1194    0.1944 C.ar    1  LIG1        0.0036
     30 H           1.0542   12.4655   -0.1710 H       1  LIG1        0.0661
     31 C          -1.6573    9.7727    0.3169 C.ar    1  LIG1       -0.0498
     32 C          -2.0115   11.1140    0.3817 C.ar    1  LIG1       -0.0518
     33 H          -2.4226    9.0172    0.4492 H       1  LIG1        0.0625
     34 O           1.9181    9.9914   -0.3705 O.3     1  LIG1       -0.5061
     35 H           2.4437   10.7907   -0.5078 H       1  LIG1        0.2922
     36 H          -3.0525   11.3791    0.5411 H       1  LIG1        0.0624
     37 C          -1.3832   13.5336    0.2739 C.ar    1  LIG1        0.0687
     38 C          -0.7965   14.6572   -0.3009 C.ar    1  LIG1        0.0658
     39 C          -1.5534   15.8072    0.1105 C.ar    1  LIG1        0.0632
     40 C          -2.5774   15.3454    0.9305 C.ar    1  LIG1        0.0195
     41 N          -2.4820   13.9924    0.9998 N.ar    1  LIG1       -0.3580
     42 H          -3.0246   13.4075    1.6142 H       1  LIG1        0.1654
     43 H          -3.3464   15.8950    1.4509 H       1  LIG1        0.0820
     44 N           0.3334   14.7028   -1.1273 N.pl3   1  LIG1       -0.3554
     45 H           0.3580   13.9513   -1.8082 H       1  LIG1        0.1424
     46 H           0.4130   15.6004   -1.5938 H       1  LIG1        0.1424
     47 C          -1.2926   17.1409   -0.2889 C.1     1  LIG1       -0.0663
     48 C          -1.0298   18.2617   -0.6687 C.1     1  LIG1       -0.1138
     49 H          -0.8129   19.2567   -0.9804 H       1  LIG1        0.1232
@<TRIPOS>BOND
     1    25    24    1
     2    45    44    1
     3    46    44    1
     4    24    19    1
     5    20    18    1
     6    44    38    1
     7    49    48    1
     8    19    18   ar
     9    19    16   ar
    10    18    15   ar
    11    48    47    3
    12    12    11    1
    13    35    34    1
    14    11    10    3
    15    34    26    1
    16     9     8    1
    17    38    39   ar
    18    38    37   ar
    19    47    39    1
    20     8     7    3
    21    10     3    1
    22     7     2    1
    23    30    27    1
    24     2     3   ar
    25     2     1   ar
    26    26    27   ar
    27    26    28   ar
    28     3     4   ar
    29     1     6    1
    30     1     5   ar
    31    27    29   ar
    32     4     5   ar
    33     4    15    1
    34    15    13   ar
    35    16    28    1
    36    16    14   ar
    37    28    31   ar
    38    39    40   ar
    39    29    37    1
    40    29    32   ar
    41    37    41   ar
    42    31    32   ar
    43    31    33    1
    44    32    36    1
    45    14    13   ar
    46    14    17    1
    47    13    21    1
    48    40    41   ar
    49    40    43    1
    50    41    42    1
    51    22    21    1
    52    21    23    1
