@<TRIPOS>MOLECULE
mol_data/opt/b3lyp/geoms/mol2/12ee13dh12il6if.out
 51 54 0 0 0
SMALL
GASTEIGER

@<TRIPOS>ATOM
      1 C           0.3359    1.8714    0.5047 C.ar    1  LIG1        0.1092
      2 C           1.6982    1.7975    0.5663 C.ar    1  LIG1        0.0784
      3 C           2.1880    3.1319    0.2491 C.ar    1  LIG1        0.0872
      4 C           1.0636    3.8983    0.0035 C.ar    1  LIG1        0.1687
      5 O          -0.0634    3.1259    0.1684 O.2     1  LIG1       -0.4589
      6 H          -0.4438    1.1438    0.6626 H       1  LIG1        0.1042
      7 C           2.4787    0.6595    0.8879 C.1     1  LIG1       -0.0653
      8 C           3.1479   -0.3094    1.1622 C.1     1  LIG1       -0.1138
      9 H           3.7414   -1.1612    1.4015 H       1  LIG1        0.1232
     10 C           3.5405    3.5365    0.2605 C.1     1  LIG1       -0.0646
     11 C           4.7042    3.8641    0.2926 C.1     1  LIG1       -0.1138
     12 H           5.7215    4.1805    0.2878 H       1  LIG1        0.1232
     13 C           0.8016    5.2731   -0.3242 C.ar    1  LIG1        0.1033
     14 C           1.5759    6.3054   -0.8888 C.ar    1  LIG1        0.1013
     15 C           0.7472    7.4688   -0.9835 C.ar    1  LIG1        0.0716
     16 C          -0.5023    7.1332   -0.4630 C.ar    1  LIG1        0.1052
     17 N          -0.4364    5.7982   -0.0963 N.ar    1  LIG1       -0.3468
     18 H          -1.2065    5.2796    0.2972 H       1  LIG1        0.1662
     19 N           3.9239    6.3726   -1.9457 N.1     1  LIG1       -0.1907
     20 C           2.8802    6.2741   -1.4353 C.1     1  LIG1        0.1033
     21 N           1.1451    8.6964   -1.5065 N.pl3   1  LIG1       -0.3552
     22 H           2.0301    8.6447   -1.9991 H       1  LIG1        0.1424
     23 H           0.4381    9.1398   -2.0816 H       1  LIG1        0.1424
     24 C          -1.7240    7.8810   -0.3084 C.ar    1  LIG1        0.1601
     25 C          -2.0377    9.1960   -0.0451 C.ar    1  LIG1        0.0392
     26 C          -3.4689    9.2375   -0.0240 C.ar    1  LIG1        0.1692
     27 C          -3.9547    7.9652   -0.2408 C.ar    1  LIG1        0.1792
     28 O          -2.8763    7.1329   -0.4175 O.2     1  LIG1       -0.4492
     29 C          -1.1410   10.3578    0.2590 C.3     1  LIG1       -0.0325
     30 H          -1.0447   10.5040    1.3420 H       1  LIG1        0.0280
     31 H          -1.5635   11.2787   -0.1542 H       1  LIG1        0.0280
     32 H          -0.1329   10.2172   -0.1358 H       1  LIG1        0.0280
     33 O          -4.2086   10.3753    0.1585 O.3     1  LIG1       -0.4910
     34 C          -4.5264   10.6657    1.5260 C.3     1  LIG1        0.0790
     35 H          -5.0866   11.6023    1.5194 H       1  LIG1        0.0660
     36 H          -5.1433    9.8726    1.9636 H       1  LIG1        0.0660
     37 H          -3.6180   10.7892    2.1271 H       1  LIG1        0.0660
     38 C          -5.6287    6.0509   -0.1467 C.ar    1  LIG1        0.0492
     39 C          -5.3045    7.4232   -0.3410 C.ar    1  LIG1        0.0454
     40 C          -6.3490    8.3137   -0.6374 C.ar    1  LIG1       -0.0062
     41 C          -7.6526    7.8387   -0.7322 C.ar    1  LIG1        0.1356
     42 C          -7.8732    6.4738   -0.5356 C.ar    1  LIG1        0.0693
     43 N          -6.8910    5.6174   -0.2514 N.ar    1  LIG1       -0.2558
     44 H          -6.1468    9.3656   -0.7990 H       1  LIG1        0.0662
     45 H          -8.8805    6.0595   -0.6064 H       1  LIG1        0.0867
     46 C          -4.6147    4.9878    0.2054 C.3     1  LIG1       -0.0217
     47 H          -4.0102    5.2767    1.0720 H       1  LIG1        0.0293
     48 H          -3.9244    4.7937   -0.6219 H       1  LIG1        0.0293
     49 H          -5.1526    4.0676    0.4371 H       1  LIG1        0.0293
     50 O          -8.6490    8.7261   -1.0193 O.3     1  LIG1       -0.5052
     51 H          -9.4888    8.2503   -1.0745 H       1  LIG1        0.2922
@<TRIPOS>BOND
     1    23    21    1
     2    22    21    1
     3    19    20    3
     4    21    15    1
     5    20    14    1
     6    51    50    1
     7    50    41    1
     8    15    14   ar
     9    15    16   ar
    10    14    13   ar
    11    44    40    1
    12    41    40   ar
    13    41    42   ar
    14    40    39   ar
    15    48    46    1
    16    45    42    1
    17    42    43   ar
    18    16    24    1
    19    16    17   ar
    20    28    24   ar
    21    28    27   ar
    22    39    27    1
    23    39    38   ar
    24    13    17   ar
    25    13     4    1
    26    24    25   ar
    27    43    38   ar
    28    27    26   ar
    29    31    29    1
    30    38    46    1
    31    32    29    1
    32    17    18    1
    33    25    26   ar
    34    25    29    1
    35    26    33    1
    36     4     5   ar
    37     4     3   ar
    38    33    34    1
    39     5     1   ar
    40    46    49    1
    41    46    47    1
    42     3    10    1
    43     3     2   ar
    44    29    30    1
    45    10    11    3
    46    12    11    1
    47     1     2   ar
    48     1     6    1
    49     2     7    1
    50     7     8    3
    51     8     9    1
    52    35    34    1
    53    34    36    1
    54    34    37    1
