@<TRIPOS>MOLECULE
mol_data/opt/b3lyp/geoms/mol2/12ee12ee12ee12ee-.out
 46 49 0 0 0
SMALL
GASTEIGER

@<TRIPOS>ATOM
      1 C           0.8701    2.1709   -1.9483 C.ar    1  LIG1        0.1093
      2 C           1.9189    1.9417   -1.1004 C.ar    1  LIG1        0.0785
      3 C           2.0473    3.1477   -0.2973 C.ar    1  LIG1        0.0888
      4 C           1.0661    4.0084   -0.7539 C.ar    1  LIG1        0.1875
      5 O           0.3475    3.4038   -1.7526 O.2     1  LIG1       -0.4573
      6 H           0.4055    1.5670   -2.7114 H       1  LIG1        0.1042
      7 C           2.7044    0.7660   -1.0075 C.1     1  LIG1       -0.0653
      8 C           3.3763   -0.2358   -0.9257 C.1     1  LIG1       -0.1138
      9 H           3.9704   -1.1171   -0.8527 H       1  LIG1        0.1232
     10 C           2.9415    3.3303    0.7813 C.1     1  LIG1       -0.0645
     11 C           3.7006    3.4499    1.7152 C.1     1  LIG1       -0.1138
     12 H           4.3604    3.5674    2.5432 H       1  LIG1        0.1232
     13 C           0.6610    5.3415   -0.3968 C.ar    1  LIG1        0.1885
     14 C           1.3421    6.4662    0.0311 C.ar    1  LIG1        0.0896
     15 C           0.3360    7.4905    0.2325 C.ar    1  LIG1        0.0896
     16 C          -0.8695    6.9172   -0.1321 C.ar    1  LIG1        0.1885
     17 O          -0.6723    5.6169   -0.5022 O.2     1  LIG1       -0.4460
     18 C           2.7360    6.6397    0.1865 C.1     1  LIG1       -0.0645
     19 C           3.9258    6.8221    0.3026 C.1     1  LIG1       -0.1138
     20 H           4.9766    6.9698    0.3965 H       1  LIG1        0.1232
     21 C           0.5698    8.7782    0.7648 C.1     1  LIG1       -0.0645
     22 C           0.7952    9.8639    1.2475 C.1     1  LIG1       -0.1138
     23 H           0.9776   10.8217    1.6765 H       1  LIG1        0.1232
     24 C          -2.2240    7.3921   -0.1758 C.ar    1  LIG1        0.1885
     25 C          -2.8053    8.6170   -0.4519 C.ar    1  LIG1        0.0896
     26 C          -4.2349    8.4218   -0.3229 C.ar    1  LIG1        0.0896
     27 C          -4.4058    7.0850    0.0006 C.ar    1  LIG1        0.1885
     28 O          -3.1973    6.4671    0.0881 O.2     1  LIG1       -0.4460
     29 C          -2.1745    9.8098   -0.8716 C.1     1  LIG1       -0.0645
     30 C          -1.6632   10.8354   -1.2576 C.1     1  LIG1       -0.1138
     31 H          -1.1990   11.7304   -1.6016 H       1  LIG1        0.1232
     32 C          -5.2230    9.4130   -0.5193 C.1     1  LIG1       -0.0645
     33 C          -6.0408   10.2868   -0.6942 C.1     1  LIG1       -0.1138
     34 H          -6.7670   11.0512   -0.8468 H       1  LIG1        0.1232
     35 C          -5.5625    6.2802    0.2499 C.ar    1  LIG1        0.1875
     36 C          -5.7360    4.9452    0.5774 C.ar    1  LIG1        0.0888
     37 C          -7.1727    4.7575    0.6961 C.ar    1  LIG1        0.0785
     38 C          -7.7313    5.9787    0.4343 C.ar    1  LIG1        0.1093
     39 O          -6.7763    6.9015    0.1649 O.2     1  LIG1       -0.4573
     40 H          -8.7526    6.3228    0.4054 H       1  LIG1        0.1042
     41 C          -4.7501    3.9514    0.7656 C.1     1  LIG1       -0.0645
     42 C          -3.9293    3.0790    0.9342 C.1     1  LIG1       -0.1138
     43 H          -3.1953    2.3207    1.0792 H       1  LIG1        0.1232
     44 C          -7.8534    3.5571    1.0174 C.1     1  LIG1       -0.0653
     45 C          -8.4318    2.5314    1.2918 C.1     1  LIG1       -0.1138
     46 H          -8.9385    1.6261    1.5341 H       1  LIG1        0.1232
@<TRIPOS>BOND
     1     6     1    1
     2     1     5   ar
     3     1     2   ar
     4     5     4   ar
     5    31    30    1
     6    30    29    3
     7     2     7    1
     8     2     3   ar
     9     7     8    3
    10     8     9    1
    11    29    25    1
    12    34    33    1
    13     4    13    1
    14     4     3   ar
    15    33    32    3
    16    32    26    1
    17    17    13   ar
    18    17    16   ar
    19    25    26   ar
    20    25    24   ar
    21    13    14   ar
    22    26    27   ar
    23     3    10    1
    24    24    16    1
    25    24    28   ar
    26    16    15   ar
    27    27    28   ar
    28    27    35    1
    29    14    18    1
    30    14    15   ar
    31    39    35   ar
    32    39    38   ar
    33    18    19    3
    34    15    21    1
    35    35    36   ar
    36    19    20    1
    37    40    38    1
    38    38    37   ar
    39    36    37   ar
    40    36    41    1
    41    37    44    1
    42    21    22    3
    43    41    42    3
    44    10    11    3
    45    42    43    1
    46    44    45    3
    47    22    23    1
    48    45    46    1
    49    11    12    1
