@<TRIPOS>MOLECULE
mol_data/opt/b3lyp/geoms/mol2/12ee13fe6ff-4fd12ha-12ae12aa-6le-.out
 87 94 0 0 0
SMALL
GASTEIGER

@<TRIPOS>ATOM
      1 C           1.5296    3.0309   -2.4444 C.ar    1  LIG1        0.1092
      2 C           2.6570    2.6277   -1.7908 C.ar    1  LIG1        0.0784
      3 C           2.9150    3.6329   -0.7657 C.ar    1  LIG1        0.0873
      4 C           1.9123    4.5762   -0.9040 C.ar    1  LIG1        0.1710
      5 O           1.0691    4.2019   -1.9252 O.2     1  LIG1       -0.4588
      6 H           0.9637    2.6097   -3.2595 H       1  LIG1        0.1042
      7 C           3.4191    1.4607   -2.0474 C.1     1  LIG1       -0.0653
      8 C           4.0710    0.4658   -2.2648 C.1     1  LIG1       -0.1138
      9 H           4.6472   -0.4100   -2.4538 H       1  LIG1        0.1232
     10 C           3.9642    3.5729    0.1789 C.1     1  LIG1       -0.0646
     11 C           4.8708    3.4623    0.9721 C.1     1  LIG1       -0.1138
     12 H           5.6654    3.3838    1.6766 H       1  LIG1        0.1232
     13 C           1.5351    5.7962   -0.2486 C.ar    1  LIG1        0.1270
     14 C           2.1759    6.6612    0.6319 C.ar    1  LIG1        0.1611
     15 C           1.2831    7.7329    0.9400 C.ar    1  LIG1        0.0922
     16 C           0.0952    7.5088    0.2235 C.ar    1  LIG1        0.0714
     17 N           0.2859    6.3571   -0.4990 N.ar    1  LIG1       -0.3477
     18 H          -0.4532    5.8581   -0.9731 H       1  LIG1        0.1661
     19 O           3.4419    6.5384    1.0806 O.3     1  LIG1       -0.5034
     20 H           3.6219    7.2925    1.6638 H       1  LIG1        0.2923
     21 C           1.6513    8.8115    1.7777 C.1     1  LIG1       -0.0638
     22 C           2.0608    9.6855    2.5124 C.1     1  LIG1       -0.1137
     23 H           2.3877   10.4751    3.1488 H       1  LIG1        0.1232
     24 C          -2.0311    8.2467   -0.9270 C.ar    1  LIG1        0.2225
     25 C          -1.1534    8.2603    0.1908 C.ar    1  LIG1        0.0644
     26 C          -1.5673    9.0347    1.2763 C.ar    1  LIG1       -0.0038
     27 C          -2.7904    9.7105    1.2636 C.ar    1  LIG1        0.1437
     28 C          -3.6090    9.5876    0.1175 C.ar    1  LIG1        0.1196
     29 N          -3.1890    8.8651   -0.9430 N.ar    1  LIG1       -0.2087
     30 H          -0.9618    9.0996    2.1724 H       1  LIG1        0.0663
     31 O          -1.7331    7.5486   -2.0717 O.3     1  LIG1       -0.4919
     32 H          -0.7722    7.5457   -2.1937 H       1  LIG1        0.2937
     33 O          -3.1312   10.3642    2.4046 O.3     1  LIG1       -0.5046
     34 H          -3.7076   11.1167    2.1793 H       1  LIG1        0.2922
     35 C          -5.4569   11.3666    0.4482 C.ar    1  LIG1        0.1269
     36 C          -6.7699   11.7847    0.2573 C.ar    1  LIG1       -0.0076
     37 C          -4.9913   10.1238   -0.0237 C.ar    1  LIG1        0.0467
     38 C          -7.7056   10.9998   -0.4380 C.ar    1  LIG1        0.0399
     39 H          -7.0923   12.7281    0.6907 H       1  LIG1        0.0662
     40 C          -5.9213    9.3564   -0.7383 C.ar    1  LIG1       -0.0308
     41 C          -7.2446    9.7564   -0.9529 C.ar    1  LIG1        0.0633
     42 H          -5.5788    8.4189   -1.1592 H       1  LIG1        0.0638
     43 O          -4.5674   12.1876    1.1084 O.3     1  LIG1       -0.5061
     44 H          -5.0185   12.9914    1.4010 H       1  LIG1        0.2922
     45 N          -8.6631    8.1843   -2.4509 N.1     1  LIG1       -0.1908
     46 C          -8.0655    8.9037   -1.7588 C.1     1  LIG1        0.0999
     47 C          -9.0547   11.4930   -0.5989 C.ar    1  LIG1        0.1577
     48 C          -9.5676   12.7794   -0.6875 C.ar    1  LIG1        0.0717
     49 C         -10.9779   12.6472   -0.8021 C.ar    1  LIG1        0.0086
     50 C         -11.2469   11.2966   -0.7834 C.ar    1  LIG1        0.1725
     51 O         -10.0960   10.5895   -0.6714 O.2     1  LIG1       -0.4498
     52 N          -8.8553   13.9806   -0.6394 N.pl3   1  LIG1       -0.3550
     53 H          -7.9391   13.9202   -1.0693 H       1  LIG1        0.1424
     54 H          -9.3714   14.7580   -1.0328 H       1  LIG1        0.1424
     55 H         -11.7009   13.4466   -0.8774 H       1  LIG1        0.0675
     56 C         -12.4949   10.5905   -0.8479 C.ar    1  LIG1        0.1720
     57 C         -13.7698   11.0277   -1.0981 C.ar    1  LIG1        0.0034
     58 C         -14.6257    9.8885   -0.9937 C.ar    1  LIG1        0.0741
     59 C         -13.7936    8.8153   -0.6830 C.ar    1  LIG1        0.1860
     60 O         -12.5048    9.2431   -0.5965 O.2     1  LIG1       -0.4474
     61 H         -14.0771   12.0345   -1.3376 H       1  LIG1        0.0669
     62 C         -16.0293    9.8652   -1.1750 C.1     1  LIG1       -0.0657
     63 C         -17.2301    9.8636   -1.3319 C.1     1  LIG1       -0.1138
     64 H         -18.2859    9.8660   -1.4742 H       1  LIG1        0.1232
     65 C         -14.0771    7.4338   -0.4402 C.ar    1  LIG1        0.1718
     66 C         -15.2607    6.7274   -0.4266 C.ar    1  LIG1       -0.0121
     67 C         -14.9171    5.3894   -0.1121 C.ar    1  LIG1       -0.0150
     68 C         -13.5501    5.3515    0.0487 C.ar    1  LIG1        0.1410
     69 O         -13.0339    6.6008   -0.1510 O.2     1  LIG1       -0.4515
     70 H         -16.2400    7.1319   -0.6298 H       1  LIG1        0.0657
     71 H         -15.5879    4.5457   -0.0408 H       1  LIG1        0.0656
     72 C         -11.3300    4.1186   -0.0937 C.ar    1  LIG1        0.2255
     73 C         -12.6607    4.2515    0.4023 C.ar    1  LIG1        0.0798
     74 C         -13.1208    3.2282    1.2275 C.ar    1  LIG1       -0.0291
     75 C         -12.3014    2.1277    1.5404 C.ar    1  LIG1        0.0437
     76 C         -11.0093    2.1247    0.9970 C.ar    1  LIG1        0.0468
     77 N         -10.5399    3.0910    0.2041 N.ar    1  LIG1       -0.2195
     78 H         -14.1186    3.2874    1.6488 H       1  LIG1        0.0639
     79 H         -10.3309    1.3036    1.2157 H       1  LIG1        0.0843
     80 O         -10.8820    5.0774   -0.9107 O.3     1  LIG1       -0.4792
     81 C          -9.5510    4.9498   -1.4367 C.3     1  LIG1        0.0804
     82 H          -9.3898    5.8542   -2.0213 H       1  LIG1        0.0660
     83 H          -8.8219    4.8798   -0.6256 H       1  LIG1        0.0660
     84 H          -9.4685    4.0545   -2.0592 H       1  LIG1        0.0660
     85 C         -12.7528    1.0699    2.3838 C.1     1  LIG1       -0.0681
     86 C         -13.1339    0.1699    3.0979 C.1     1  LIG1       -0.1139
     87 H         -13.4665   -0.6226    3.7271 H       1  LIG1        0.1232
@<TRIPOS>BOND
     1     6     1    1
     2     9     8    1
     3    45    46    3
     4     1     5   ar
     5     1     2   ar
     6     8     7    3
     7    32    31    1
     8    31    24    1
     9    84    81    1
    10     7     2    1
    11    82    81    1
    12     5     4   ar
    13     2     3   ar
    14    46    41    1
    15    64    63    1
    16    81    80    1
    17    81    83    1
    18    61    57    1
    19    63    62    3
    20    62    58    1
    21    42    40    1
    22    57    58   ar
    23    57    56   ar
    24    53    52    1
    25    54    52    1
    26    58    59   ar
    27    18    17    1
    28    41    40   ar
    29    41    38   ar
    30    29    24   ar
    31    29    28   ar
    32    24    25   ar
    33    80    72    1
    34     4     3   ar
    35     4    13    1
    36    55    49    1
    37    56    50    1
    38    56    60   ar
    39    49    50   ar
    40    49    48   ar
    41    50    51   ar
    42     3    10    1
    43    40    37   ar
    44    48    52    1
    45    48    47   ar
    46    59    60   ar
    47    59    65    1
    48    51    47   ar
    49    70    66    1
    50    47    38    1
    51    17    13   ar
    52    17    16   ar
    53    65    66   ar
    54    65    69   ar
    55    38    36   ar
    56    66    67   ar
    57    13    14   ar
    58    69    68   ar
    59    67    71    1
    60    67    68   ar
    61    72    77   ar
    62    72    73   ar
    63    37    28    1
    64    37    35   ar
    65    68    73    1
    66    28    27   ar
    67    10    11    3
    68    25    16    1
    69    25    26   ar
    70    77    76   ar
    71    16    15   ar
    72    36    35   ar
    73    36    39    1
    74    73    74   ar
    75    35    43    1
    76    14    15   ar
    77    14    19    1
    78    15    21    1
    79    11    12    1
    80    76    79    1
    81    76    75   ar
    82    19    20    1
    83    43    44    1
    84    74    75   ar
    85    74    78    1
    86    27    26   ar
    87    27    33    1
    88    26    30    1
    89    75    85    1
    90    21    22    3
    91    34    33    1
    92    85    86    3
    93    22    23    1
    94    86    87    1
