@<TRIPOS>MOLECULE
mol_data/opt/b3lyp/geoms/mol2/12ef12ef12ef-12ef.out
 42 45 0 0 0
SMALL
GASTEIGER

@<TRIPOS>ATOM
      1 C           0.4212    1.6564   -0.0000 C.ar    1  LIG1        0.1118
      2 C           1.7908    1.7392    0.0000 C.ar    1  LIG1        0.1045
      3 C           2.0877    3.1491   -0.0000 C.ar    1  LIG1        0.1815
      4 C           0.8707    3.8131   -0.0000 C.ar    1  LIG1        0.2134
      5 O          -0.1473    2.8766   -0.0001 O.2     1  LIG1       -0.4547
      6 H          -0.2497    0.8117   -0.0000 H       1  LIG1        0.1043
      7 C           2.7247    0.6738    0.0000 C.1     1  LIG1       -0.0628
      8 C           3.5213   -0.2358    0.0001 C.1     1  LIG1       -0.1137
      9 H           4.2274   -1.0335    0.0003 H       1  LIG1        0.1232
     10 O           3.3467    3.6066    0.0000 O.3     1  LIG1       -0.5023
     11 H           3.3658    4.5825    0.0000 H       1  LIG1        0.2923
     12 C           0.4740    5.1861   -0.0001 C.ar    1  LIG1        0.1934
     13 C           1.1810    6.3889   -0.0001 C.ar    1  LIG1        0.1157
     14 C           0.1889    7.4241   -0.0001 C.ar    1  LIG1        0.1823
     15 C          -1.0428    6.7980   -0.0002 C.ar    1  LIG1        0.2144
     16 O          -0.8602    5.4314   -0.0001 O.2     1  LIG1       -0.4434
     17 C           2.5797    6.5950    0.0000 C.1     1  LIG1       -0.0621
     18 C           3.7738    6.8099    0.0001 C.1     1  LIG1       -0.1137
     19 H           4.8201    7.0138    0.0000 H       1  LIG1        0.1232
     20 O           0.4915    8.7299   -0.0001 O.3     1  LIG1       -0.5023
     21 H          -0.3181    9.2721   -0.0001 H       1  LIG1        0.2923
     22 C          -2.3548    7.3362   -0.0002 C.ar    1  LIG1        0.1934
     23 C          -3.6409    6.8159   -0.0002 C.ar    1  LIG1        0.1157
     24 C          -4.5201    7.9554   -0.0003 C.ar    1  LIG1        0.1823
     25 C          -3.7405    9.0890   -0.0003 C.ar    1  LIG1        0.2144
     26 O          -2.4095    8.6982   -0.0002 O.2     1  LIG1       -0.4434
     27 C          -4.0982    5.4802   -0.0002 C.1     1  LIG1       -0.0621
     28 C          -4.5950    4.3745   -0.0002 C.1     1  LIG1       -0.1137
     29 H          -4.9881    3.3843   -0.0000 H       1  LIG1        0.1232
     30 O          -5.8664    7.9089   -0.0003 O.3     1  LIG1       -0.5023
     31 H          -6.1272    6.9741   -0.0003 H       1  LIG1        0.2923
     32 C          -4.0043   10.4903   -0.0003 C.ar    1  LIG1        0.1924
     33 C          -3.1702   11.6018   -0.0002 C.ar    1  LIG1        0.1149
     34 C          -4.0616   12.7363   -0.0003 C.ar    1  LIG1        0.1709
     35 C          -5.3343   12.2521   -0.0004 C.ar    1  LIG1        0.1353
     36 O          -5.3050   10.8752   -0.0004 O.2     1  LIG1       -0.4547
     37 H          -6.3102   12.7089   -0.0005 H       1  LIG1        0.1068
     38 C          -1.7574   11.6590   -0.0000 C.1     1  LIG1       -0.0621
     39 C          -0.5492   11.7600    0.0001 C.1     1  LIG1       -0.1137
     40 H           0.5118   11.8598    0.0003 H       1  LIG1        0.1232
     41 O          -3.6039   14.0135   -0.0002 O.3     1  LIG1       -0.5028
     42 H          -4.3549   14.6210   -0.0003 H       1  LIG1        0.2923
@<TRIPOS>BOND
     1    37    35    1
     2    36    35   ar
     3    36    32   ar
     4    35    34   ar
     5    42    41    1
     6    32    25    1
     7    32    33   ar
     8    34    41    1
     9    34    33   ar
    10    30    24    1
    11    30    31    1
    12    25    24   ar
    13    25    26   ar
    14    24    23   ar
    15    26    22   ar
    16    23    22   ar
    17    23    27    1
    18    22    15    1
    19    33    38    1
    20    27    28    3
    21    28    29    1
    22    15    16   ar
    23    15    14   ar
    24    21    20    1
    25    16    12   ar
    26    20    14    1
    27    14    13   ar
    28    12    13   ar
    29    12     4    1
    30     5     4   ar
    31     5     1   ar
    32    13    17    1
    33     4     3   ar
    34     6     1    1
    35     1     2   ar
    36    38    39    3
    37     3     2   ar
    38     3    10    1
    39     2     7    1
    40    17    18    3
    41    10    11    1
    42     7     8    3
    43    19    18    1
    44     8     9    1
    45    39    40    1
