@<TRIPOS>MOLECULE
mol_data/opt/b3lyp/geoms/mol2/12ef6lh-13fl-4af-13ah-12hi-6ah-12lf.out
 96 103 0 0 0
SMALL
GASTEIGER

@<TRIPOS>ATOM
      1 C           0.2218    1.4887    0.3027 C.ar    1  LIG1        0.1116
      2 C           1.3294    1.4993   -0.5091 C.ar    1  LIG1        0.1044
      3 C           1.5657    2.8921   -0.7871 C.ar    1  LIG1        0.1785
      4 C           0.6032    3.6177   -0.1290 C.ar    1  LIG1        0.1824
      5 O          -0.2284    2.7388    0.5364 O.2     1  LIG1       -0.4577
      6 H          -0.3291    0.6825    0.7605 H       1  LIG1        0.1043
      7 C           2.0697    0.3873   -0.9818 C.1     1  LIG1       -0.0628
      8 C           2.7030   -0.5607   -1.3860 C.1     1  LIG1       -0.1137
      9 H           3.2623   -1.3929   -1.7451 H       1  LIG1        0.1232
     10 O           2.5748    3.3357   -1.5849 O.3     1  LIG1       -0.5024
     11 H           2.3648    4.2374   -1.8669 H       1  LIG1        0.2923
     12 C          -0.8880    5.6737   -0.0623 C.ar    1  LIG1        0.2262
     13 C           0.3905    5.0527   -0.0238 C.ar    1  LIG1        0.0841
     14 C           1.4740    5.9362    0.0563 C.ar    1  LIG1       -0.0230
     15 C           1.2982    7.3159    0.1353 C.ar    1  LIG1        0.0534
     16 C          -0.0200    7.8228    0.1899 C.ar    1  LIG1        0.1152
     17 N          -1.0757    6.9740    0.0445 N.ar    1  LIG1       -0.2088
     18 H           2.4834    5.5304    0.0710 H       1  LIG1        0.0645
     19 O          -1.9529    4.8580   -0.2166 O.3     1  LIG1       -0.4792
     20 C          -3.2480    5.4571   -0.2416 C.3     1  LIG1        0.0804
     21 H          -3.9477    4.6266   -0.3392 H       1  LIG1        0.0660
     22 H          -3.4441    6.0119    0.6805 H       1  LIG1        0.0660
     23 H          -3.3530    6.1372   -1.0931 H       1  LIG1        0.0660
     24 N           2.4252    8.2107    0.1620 N.pl3   1  LIG1       -0.3563
     25 H           3.2772    7.7176    0.4146 H       1  LIG1        0.1424
     26 H           2.5761    8.6320   -0.7545 H       1  LIG1        0.1424
     27 C          -0.3788    9.2127    0.3664 C.ar    1  LIG1        0.1131
     28 C           0.2978   10.3813    0.7743 C.ar    1  LIG1        0.1866
     29 C          -0.6399   11.4426    0.7501 C.ar    1  LIG1        0.1873
     30 C          -1.8828   10.9276    0.3560 C.ar    1  LIG1        0.0931
     31 N          -1.6960    9.5874    0.1450 N.ar    1  LIG1       -0.3470
     32 H          -2.3564    8.9372   -0.2493 H       1  LIG1        0.1662
     33 O           1.5701   10.5387    1.1916 O.3     1  LIG1       -0.5019
     34 H           2.0442    9.6852    1.0114 H       1  LIG1        0.2924
     35 O          -0.3870   12.7534    1.0486 O.3     1  LIG1       -0.4895
     36 C           0.0410   12.9927    2.3950 C.3     1  LIG1        0.0791
     37 H           0.1995   14.0699    2.4779 H       1  LIG1        0.0660
     38 H          -0.7304   12.6822    3.1109 H       1  LIG1        0.0660
     39 H           0.9740   12.4644    2.6111 H       1  LIG1        0.0660
     40 C          -3.2769   12.9760    0.0310 C.ar    1  LIG1       -0.0517
     41 C          -4.5148   13.5712   -0.1479 C.ar    1  LIG1       -0.0485
     42 C          -3.1727   11.5796    0.1846 C.ar    1  LIG1        0.0055
     43 C          -5.7216   12.8421   -0.1893 C.ar    1  LIG1        0.0398
     44 H          -4.5594   14.6479   -0.2703 H       1  LIG1        0.0625
     45 C          -4.3646   10.8329    0.1581 C.ar    1  LIG1       -0.0103
     46 C          -5.6014   11.4405   -0.0268 C.ar    1  LIG1        0.1266
     47 H          -4.3392    9.7569    0.3205 H       1  LIG1        0.0661
     48 H          -2.3781   13.5791    0.0496 H       1  LIG1        0.0624
     49 O          -6.7523   10.6833   -0.0435 O.3     1  LIG1       -0.5061
     50 H          -6.5278    9.7530    0.0838 H       1  LIG1        0.2922
     51 C          -6.9894   13.5319   -0.3848 C.ar    1  LIG1        0.0523
     52 C          -7.2459   14.9007   -0.5340 C.ar    1  LIG1       -0.0149
     53 C          -8.6366   15.0804   -0.7031 C.ar    1  LIG1        0.0539
     54 C          -9.2227   13.7982   -0.6619 C.ar    1  LIG1        0.1053
     55 N          -8.1959   12.8924   -0.4581 N.ar    1  LIG1       -0.3501
     56 H          -8.3098   11.8937   -0.3906 H       1  LIG1        0.1661
     57 H          -6.5146   15.6953   -0.5060 H       1  LIG1        0.0657
     58 N          -9.3020   16.2947   -0.8044 N.pl3   1  LIG1       -0.3562
     59 H          -8.7595   17.0250   -1.2449 H       1  LIG1        0.1424
     60 H         -10.2489   16.2107   -1.1730 H       1  LIG1        0.1424
     61 C         -10.5687   13.3275   -0.7829 C.ar    1  LIG1        0.1743
     62 C         -11.8014   13.8773   -1.0930 C.ar    1  LIG1        0.0761
     63 C         -12.7641   12.8147   -1.0596 C.ar    1  LIG1        0.0167
     64 C         -12.0705   11.6671   -0.7412 C.ar    1  LIG1        0.1420
     65 O         -10.7366   11.9865   -0.5676 O.2     1  LIG1       -0.4511
     66 N         -12.0362   15.2549   -1.3982 N.pl3   1  LIG1       -0.3548
     67 H         -12.4823   15.3597   -2.3066 H       1  LIG1        0.1424
     68 H         -12.6510   15.6879   -0.7118 H       1  LIG1        0.1424
     69 C         -14.2331   12.9832   -1.3086 C.3     1  LIG1       -0.0343
     70 H         -14.8355   12.4508   -0.5659 H       1  LIG1        0.0279
     71 H         -14.5333   12.6179   -2.2989 H       1  LIG1        0.0279
     72 H         -14.5075   14.0417   -1.2615 H       1  LIG1        0.0279
     73 C         -11.5089    9.3928    0.0910 C.ar    1  LIG1        0.0392
     74 C         -12.4184   10.2772   -0.5326 C.ar    1  LIG1        0.0375
     75 C         -13.6473    9.7296   -0.9214 C.ar    1  LIG1       -0.0267
     76 C         -13.9485    8.3794   -0.6983 C.ar    1  LIG1        0.0547
     77 C         -12.9447    7.5771   -0.0781 C.ar    1  LIG1        0.1303
     78 N         -11.7667    8.1122    0.3026 N.ar    1  LIG1       -0.2492
     79 H         -14.3905   10.3428   -1.4197 H       1  LIG1        0.0644
     80 H         -10.5438    9.7573    0.4291 H       1  LIG1        0.0837
     81 N         -15.1975    7.8976   -1.0524 N.pl3   1  LIG1       -0.3562
     82 H         -15.6795    8.4131   -1.7737 H       1  LIG1        0.1424
     83 H         -15.3039    6.8963   -1.0998 H       1  LIG1        0.1424
     84 C         -13.0697    6.1451    0.1628 C.ar    1  LIG1        0.1999
     85 C         -12.1590    5.1733    0.5355 C.ar    1  LIG1        0.2092
     86 C         -12.8775    3.9312    0.5889 C.ar    1  LIG1        0.1979
     87 C         -14.1669    4.2010    0.2405 C.ar    1  LIG1        0.1378
     88 O         -14.2966    5.5445   -0.0174 O.2     1  LIG1       -0.4538
     89 H         -15.0601    3.6050    0.1442 H       1  LIG1        0.1069
     90 O         -10.8205    5.2655    0.7447 O.3     1  LIG1       -0.4884
     91 C         -10.4374    5.7565    2.0350 C.3     1  LIG1        0.0791
     92 H          -9.3477    5.6916    2.0707 H       1  LIG1        0.0660
     93 H         -10.7514    6.7973    2.1521 H       1  LIG1        0.0660
     94 H         -10.8614    5.1347    2.8329 H       1  LIG1        0.0660
     95 O         -12.2786    2.7608    0.9355 O.3     1  LIG1       -0.5012
     96 H         -12.9281    2.0475    0.8874 H       1  LIG1        0.2924
@<TRIPOS>BOND
     1    67    66    1
     2    71    69    1
     3    11    10    1
     4    82    81    1
     5     9     8    1
     6    10     3    1
     7    79    75    1
     8    66    62    1
     9    66    68    1
    10     8     7    3
    11    69    72    1
    12    69    63    1
    13    69    70    1
    14    59    58    1
    15    60    58    1
    16    83    81    1
    17    23    20    1
    18    62    63   ar
    19    62    61   ar
    20    63    64   ar
    21    81    76    1
    22     7     2    1
    23    75    76   ar
    24    75    74   ar
    25    58    53    1
    26     3     2   ar
    27     3     4   ar
    28    61    54    1
    29    61    65   ar
    30    26    24    1
    31    64    65   ar
    32    64    74    1
    33    53    54   ar
    34    53    52   ar
    35    76    77   ar
    36    54    55   ar
    37    52    57    1
    38    52    51   ar
    39    74    73   ar
    40     2     1   ar
    41    55    56    1
    42    55    51   ar
    43    51    43    1
    44    21    20    1
    45    44    41    1
    46    32    31    1
    47    20    19    1
    48    20    22    1
    49    19    12    1
    50    43    41   ar
    51    43    46   ar
    52    41    40   ar
    53     4    13    1
    54     4     5   ar
    55    77    84    1
    56    77    78   ar
    57    12    13   ar
    58    12    17   ar
    59    49    46    1
    60    49    50    1
    61    46    45   ar
    62    13    14   ar
    63    88    84   ar
    64    88    87   ar
    65    40    48    1
    66    40    42   ar
    67    17    16   ar
    68    14    18    1
    69    14    15   ar
    70    73    78   ar
    71    73    80    1
    72    15    24    1
    73    15    16   ar
    74    89    87    1
    75    31    30   ar
    76    31    27   ar
    77    45    42   ar
    78    45    47    1
    79    24    25    1
    80    84    85   ar
    81    42    30    1
    82    16    27    1
    83    87    86   ar
    84     1     5   ar
    85     1     6    1
    86    30    29   ar
    87    27    28   ar
    88    85    86   ar
    89    85    90    1
    90    86    95    1
    91    90    91    1
    92    29    28   ar
    93    29    35    1
    94    28    33    1
    95    96    95    1
    96    34    33    1
    97    35    36    1
    98    91    92    1
    99    91    93    1
   100    91    94    1
   101    36    37    1
   102    36    39    1
   103    36    38    1
