@<TRIPOS>MOLECULE
mol_data/opt/b3lyp/geoms/mol2/12ef12ef12ef-12ef-.out
 42 45 0 0 0
SMALL
GASTEIGER

@<TRIPOS>ATOM
      1 C           0.5031    1.6062   -0.0000 C.ar    1  LIG1        0.1118
      2 C           1.8717    1.7047    0.0000 C.ar    1  LIG1        0.1045
      3 C           2.1525    3.1179    0.0000 C.ar    1  LIG1        0.1815
      4 C           0.9278    3.7679   -0.0000 C.ar    1  LIG1        0.2134
      5 O          -0.0795    2.8198   -0.0000 O.2     1  LIG1       -0.4547
      6 H          -0.1579    0.7539   -0.0000 H       1  LIG1        0.1043
      7 C           2.8177    0.6499    0.0001 C.1     1  LIG1       -0.0628
      8 C           3.6244   -0.2506    0.0001 C.1     1  LIG1       -0.1137
      9 H           4.3389   -1.0408   -0.0000 H       1  LIG1        0.1232
     10 O           3.4060    3.5898    0.0000 O.3     1  LIG1       -0.5023
     11 H           3.4138    4.5658    0.0000 H       1  LIG1        0.2923
     12 C           0.5158    5.1360   -0.0001 C.ar    1  LIG1        0.1934
     13 C           1.2109    6.3468   -0.0000 C.ar    1  LIG1        0.1157
     14 C           0.2067    7.3682   -0.0001 C.ar    1  LIG1        0.1823
     15 C          -1.0178    6.7298   -0.0001 C.ar    1  LIG1        0.2144
     16 O          -0.8222    5.3663   -0.0001 O.2     1  LIG1       -0.4434
     17 C           2.6072    6.5684    0.0000 C.1     1  LIG1       -0.0621
     18 C           3.7984    6.7987    0.0000 C.1     1  LIG1       -0.1137
     19 H           4.8420    7.0166    0.0000 H       1  LIG1        0.1232
     20 O           0.4768    8.6835   -0.0001 O.3     1  LIG1       -0.5023
     21 H          -0.3618    9.1751   -0.0001 H       1  LIG1        0.2923
     22 C          -2.3273    7.2737   -0.0001 C.ar    1  LIG1        0.1934
     23 C          -3.6191    6.7705   -0.0001 C.ar    1  LIG1        0.1157
     24 C          -4.4838    7.9209   -0.0002 C.ar    1  LIG1        0.1823
     25 C          -3.6954    9.0484   -0.0002 C.ar    1  LIG1        0.2144
     26 O          -2.3662    8.6377   -0.0002 O.2     1  LIG1       -0.4434
     27 C          -4.0924    5.4405   -0.0001 C.1     1  LIG1       -0.0621
     28 C          -4.5996    4.3396   -0.0001 C.1     1  LIG1       -0.1137
     29 H          -5.0033    3.3536   -0.0002 H       1  LIG1        0.1232
     30 O          -5.8299    7.8857   -0.0002 O.3     1  LIG1       -0.5023
     31 H          -6.1016    6.9541   -0.0001 H       1  LIG1        0.2923
     32 C          -3.9137   10.4609   -0.0002 C.ar    1  LIG1        0.1924
     33 C          -5.0386   11.2749   -0.0003 C.ar    1  LIG1        0.1149
     34 C          -4.5323   12.6291   -0.0003 C.ar    1  LIG1        0.1709
     35 C          -3.1753   12.5563   -0.0002 C.ar    1  LIG1        0.1353
     36 O          -2.7917   11.2315   -0.0002 O.2     1  LIG1       -0.4547
     37 H          -2.3871   13.2886   -0.0002 H       1  LIG1        0.1068
     38 C          -6.4220   10.9926   -0.0003 C.1     1  LIG1       -0.0621
     39 C          -7.6318   10.9068   -0.0003 C.1     1  LIG1       -0.1137
     40 H          -8.6880   10.7678   -0.0004 H       1  LIG1        0.1232
     41 O          -5.2900   13.7500   -0.0003 O.3     1  LIG1       -0.5028
     42 H          -6.2194   13.4718   -0.0003 H       1  LIG1        0.2923
@<TRIPOS>BOND
     1    40    39    1
     2    39    38    3
     3    42    41    1
     4    38    33    1
     5    41    34    1
     6    34    33   ar
     7    34    35   ar
     8    33    32   ar
     9    35    37    1
    10    35    36   ar
    11    32    36   ar
    12    32    25    1
    13    25    26   ar
    14    25    24   ar
    15    26    22   ar
    16    30    24    1
    17    30    31    1
    18    24    23   ar
    19    29    28    1
    20    22    23   ar
    21    22    15    1
    22    23    27    1
    23    21    20    1
    24    15    16   ar
    25    15    14   ar
    26    27    28    3
    27    16    12   ar
    28    20    14    1
    29    14    13   ar
    30    12    13   ar
    31    12     4    1
    32    13    17    1
    33     5     4   ar
    34     5     1   ar
    35     4     3   ar
    36     1     6    1
    37     1     2   ar
    38     9     8    1
    39     3    10    1
    40     3     2   ar
    41    17    18    3
    42    11    10    1
    43     2     7    1
    44    18    19    1
    45     7     8    3
