@<TRIPOS>MOLECULE
mol_data/opt/b3lyp/geoms/mol2/12ef13al-4if6ff.out
 49 52 0 0 0
SMALL
GASTEIGER

@<TRIPOS>ATOM
      1 C           0.3935    1.6656    0.6703 C.ar    1  LIG1        0.1117
      2 C           1.7526    1.7658    0.8334 C.ar    1  LIG1        0.1045
      3 C           2.0649    3.1431    0.5455 C.ar    1  LIG1        0.1798
      4 C           0.8882    3.7679    0.2174 C.ar    1  LIG1        0.1934
      5 O          -0.1460    2.8553    0.3054 O.2     1  LIG1       -0.4564
      6 H          -0.2890    0.8381    0.7786 H       1  LIG1        0.1043
      7 C           2.6546    0.7417    1.2158 C.1     1  LIG1       -0.0628
      8 C           3.4261   -0.1299    1.5435 C.1     1  LIG1       -0.1137
      9 H           4.1097   -0.8948    1.8305 H       1  LIG1        0.1232
     10 O           3.3097    3.6737    0.6278 O.3     1  LIG1       -0.5024
     11 H           3.2253    4.6384    0.6708 H       1  LIG1        0.2923
     12 C           0.5925    5.1266   -0.1438 C.ar    1  LIG1        0.0898
     13 C           1.4331    6.1136   -0.6601 C.ar    1  LIG1        0.0092
     14 C           0.6638    7.3044   -0.7479 C.ar    1  LIG1        0.1459
     15 C          -0.6271    7.0418   -0.2875 C.ar    1  LIG1        0.0896
     16 N          -0.6375    5.6938    0.0515 N.ar    1  LIG1       -0.3487
     17 H          -1.3958    5.2421    0.5385 H       1  LIG1        0.1661
     18 H           2.4365    5.9560   -1.0265 H       1  LIG1        0.0677
     19 O           1.0319    8.5095   -1.2624 O.3     1  LIG1       -0.4930
     20 C           2.3500    8.5938   -1.7841 C.3     1  LIG1        0.0789
     21 H           2.4703    9.6149   -2.1480 H       1  LIG1        0.0660
     22 H           3.1030    8.3945   -1.0105 H       1  LIG1        0.0660
     23 H           2.4963    7.8930   -2.6159 H       1  LIG1        0.0660
     24 C          -1.9215    9.1401    0.3034 C.ar    1  LIG1       -0.0404
     25 C          -3.1570    9.7908    0.3097 C.ar    1  LIG1       -0.0468
     26 C          -1.8577    7.8369   -0.2442 C.ar    1  LIG1        0.0083
     27 C          -4.3511    9.2330   -0.1771 C.ar    1  LIG1        0.0290
     28 H          -3.2035   10.7966    0.7164 H       1  LIG1        0.0628
     29 C          -3.0408    7.2569   -0.7358 C.ar    1  LIG1       -0.0101
     30 C          -4.2544    7.9332   -0.7016 C.ar    1  LIG1        0.1253
     31 H          -2.9988    6.2655   -1.1828 H       1  LIG1        0.0661
     32 C          -0.7171    9.8212    0.9053 C.3     1  LIG1       -0.0391
     33 H          -1.0181   10.7050    1.4738 H       1  LIG1        0.0278
     34 H          -0.0019   10.1285    0.1374 H       1  LIG1        0.0278
     35 H          -0.1804    9.1458    1.5805 H       1  LIG1        0.0278
     36 O          -5.4075    7.3456   -1.1907 O.3     1  LIG1       -0.5061
     37 H          -5.1981    6.4731   -1.5500 H       1  LIG1        0.2922
     38 C          -6.5432   10.1882   -1.1414 C.ar    1  LIG1        0.2205
     39 C          -5.6171   10.0096   -0.0743 C.ar    1  LIG1        0.0504
     40 C          -5.8890   10.6952    1.1145 C.ar    1  LIG1       -0.0058
     41 C          -6.9986   11.5333    1.2090 C.ar    1  LIG1        0.1357
     42 C          -7.8099   11.6640    0.0831 C.ar    1  LIG1        0.0728
     43 N          -7.5908   11.0009   -1.0537 N.ar    1  LIG1       -0.2173
     44 H          -5.2391   10.5814    1.9758 H       1  LIG1        0.0662
     45 H          -8.6790   12.3246    0.1026 H       1  LIG1        0.0868
     46 O          -6.3953    9.5865   -2.3475 O.3     1  LIG1       -0.4920
     47 H          -6.0102    8.7041   -2.2052 H       1  LIG1        0.2937
     48 O          -7.2310   12.1826    2.3924 O.3     1  LIG1       -0.5052
     49 H          -8.0320   12.7160    2.3026 H       1  LIG1        0.2922
@<TRIPOS>BOND
     1    23    20    1
     2    46    47    1
     3    46    38    1
     4    21    20    1
     5    20    19    1
     6    20    22    1
     7    37    36    1
     8    19    14    1
     9    36    30    1
    10    31    29    1
    11    38    43   ar
    12    38    39   ar
    13    43    42   ar
    14    18    13    1
    15    14    13   ar
    16    14    15   ar
    17    29    30   ar
    18    29    26   ar
    19    30    27   ar
    20    13    12   ar
    21    15    26    1
    22    15    16   ar
    23    26    24   ar
    24    27    39    1
    25    27    25   ar
    26    12    16   ar
    27    12     4    1
    28    39    40   ar
    29    16    17    1
    30    42    45    1
    31    42    41   ar
    32    34    32    1
    33     4     5   ar
    34     4     3   ar
    35    24    25   ar
    36    24    32    1
    37     5     1   ar
    38    25    28    1
    39     3    10    1
    40     3     2   ar
    41    10    11    1
    42     1     6    1
    43     1     2   ar
    44     2     7    1
    45    32    33    1
    46    32    35    1
    47    40    41   ar
    48    40    44    1
    49    41    48    1
    50     7     8    3
    51     8     9    1
    52    49    48    1
