@<TRIPOS>MOLECULE
mol_data/opt/b3lyp/geoms/mol2/12ef12ef-12ef.out
 32 34 0 0 0
SMALL
GASTEIGER

@<TRIPOS>ATOM
      1 C           0.2530    1.7327    0.0000 C.ar    1  LIG1        0.1118
      2 C           1.6248    1.8056    0.0000 C.ar    1  LIG1        0.1045
      3 C           1.9293    3.2139   -0.0000 C.ar    1  LIG1        0.1815
      4 C           0.7169    3.8780   -0.0000 C.ar    1  LIG1        0.2134
      5 O          -0.3101    2.9606    0.0000 O.2     1  LIG1       -0.4547
      6 H          -0.4240    0.8933    0.0001 H       1  LIG1        0.1043
      7 C           2.5474    0.7301    0.0001 C.1     1  LIG1       -0.0628
      8 C           3.3352   -0.1872    0.0001 C.1     1  LIG1       -0.1137
      9 H           4.0336   -0.9915    0.0000 H       1  LIG1        0.1232
     10 O           3.1789    3.7009   -0.0000 O.3     1  LIG1       -0.5023
     11 H           3.1700    4.6749   -0.0000 H       1  LIG1        0.2923
     12 C           0.4199    5.2686   -0.0001 C.ar    1  LIG1        0.1934
     13 C          -0.7352    6.0345   -0.0001 C.ar    1  LIG1        0.1157
     14 C          -0.2922    7.4048   -0.0001 C.ar    1  LIG1        0.1823
     15 C           1.0833    7.4010   -0.0001 C.ar    1  LIG1        0.2144
     16 O           1.5116    6.0823   -0.0001 O.2     1  LIG1       -0.4434
     17 C          -2.0956    5.6552   -0.0000 C.1     1  LIG1       -0.0621
     18 C          -3.2882    5.4382   -0.0000 C.1     1  LIG1       -0.1137
     19 H          -4.3276    5.2039   -0.0003 H       1  LIG1        0.1232
     20 O          -1.0907    8.4899   -0.0001 O.3     1  LIG1       -0.5023
     21 H          -2.0097    8.1783   -0.0001 H       1  LIG1        0.2923
     22 C           2.0921    8.4098   -0.0001 C.ar    1  LIG1        0.1924
     23 C           3.4800    8.3483   -0.0001 C.ar    1  LIG1        0.1149
     24 C           3.9137    9.7244   -0.0002 C.ar    1  LIG1        0.1709
     25 C           2.7957   10.5019   -0.0003 C.ar    1  LIG1        0.1353
     26 O           1.6757    9.7006   -0.0003 O.2     1  LIG1       -0.4547
     27 H           2.6221   11.5653   -0.0004 H       1  LIG1        0.1068
     28 C           4.3247    7.2140    0.0001 C.1     1  LIG1       -0.0621
     29 C           5.0894    6.2734    0.0002 C.1     1  LIG1       -0.1137
     30 H           5.7677    5.4513    0.0001 H       1  LIG1        0.1232
     31 O           5.2264   10.0669   -0.0001 O.3     1  LIG1       -0.5028
     32 H           5.3048   11.0297   -0.0002 H       1  LIG1        0.2923
@<TRIPOS>BOND
     1    27    25    1
     2    19    18    1
     3    25    26   ar
     4    25    24   ar
     5    26    22   ar
     6    32    31    1
     7    24    31    1
     8    24    23   ar
     9    22    15    1
    10    22    23   ar
    11    15    14   ar
    12    15    16   ar
    13    20    14    1
    14    20    21    1
    15    14    13   ar
    16    16    12   ar
    17    23    28    1
    18    12    13   ar
    19    12     4    1
    20    13    17    1
    21    11    10    1
    22    10     3    1
    23     4     3   ar
    24     4     5   ar
    25    18    17    3
    26     3     2   ar
    27     5     1   ar
    28     9     8    1
    29     2     1   ar
    30     2     7    1
    31     1     6    1
    32     7     8    3
    33    28    29    3
    34    30    29    1
