@<TRIPOS>MOLECULE
mol_data/opt/b3lyp/geoms/mol2/12ef12ef-12ef-12ef-.out
 42 45 0 0 0
SMALL
GASTEIGER

@<TRIPOS>ATOM
      1 C           0.2574    1.6434   -0.0000 C.ar    1  LIG1        0.1118
      2 C           1.6279    1.7438   -0.0000 C.ar    1  LIG1        0.1045
      3 C           1.9016    3.1574   -0.0000 C.ar    1  LIG1        0.1815
      4 C           0.6754    3.7964   -0.0001 C.ar    1  LIG1        0.2134
      5 O          -0.3324    2.8592   -0.0001 O.2     1  LIG1       -0.4547
      6 H          -0.4018    0.7899   -0.0000 H       1  LIG1        0.1043
      7 C           2.5723    0.6876   -0.0000 C.1     1  LIG1       -0.0628
      8 C           3.3793   -0.2127   -0.0000 C.1     1  LIG1       -0.1137
      9 H           4.0958   -1.0012    0.0000 H       1  LIG1        0.1232
     10 O           3.1371    3.6812   -0.0000 O.3     1  LIG1       -0.5023
     11 H           3.0781    4.6510   -0.0001 H       1  LIG1        0.2923
     12 C           0.3644    5.1824   -0.0001 C.ar    1  LIG1        0.1934
     13 C          -0.7947    5.9430   -0.0000 C.ar    1  LIG1        0.1157
     14 C          -0.3596    7.3137   -0.0001 C.ar    1  LIG1        0.1823
     15 C           1.0180    7.3229   -0.0001 C.ar    1  LIG1        0.2144
     16 O           1.4518    6.0017   -0.0001 O.2     1  LIG1       -0.4434
     17 C          -2.1533    5.5572   -0.0000 C.1     1  LIG1       -0.0621
     18 C          -3.3445    5.3332   -0.0000 C.1     1  LIG1       -0.1137
     19 H          -4.3826    5.0930   -0.0001 H       1  LIG1        0.1232
     20 O          -1.1656    8.3912   -0.0000 O.3     1  LIG1       -0.5023
     21 H          -2.0834    8.0757   -0.0000 H       1  LIG1        0.2923
     22 C           2.0427    8.3132   -0.0001 C.ar    1  LIG1        0.1934
     23 C           2.0640    9.7035   -0.0001 C.ar    1  LIG1        0.1157
     24 C           3.4540   10.0679   -0.0001 C.ar    1  LIG1        0.1823
     25 C           4.1937    8.9072   -0.0001 C.ar    1  LIG1        0.2144
     26 O           3.3150    7.8373   -0.0001 O.2     1  LIG1       -0.4434
     27 C           1.0364   10.6725   -0.0001 C.1     1  LIG1       -0.0621
     28 C           0.2672   11.6097   -0.0002 C.1     1  LIG1       -0.1137
     29 H          -0.4550   12.3930   -0.0002 H       1  LIG1        0.1232
     30 O           3.9298   11.3281   -0.0001 O.3     1  LIG1       -0.5023
     31 H           3.1673   11.9292   -0.0001 H       1  LIG1        0.2923
     32 C           5.5878    8.5859   -0.0001 C.ar    1  LIG1        0.1924
     33 C           6.7587    9.3339   -0.0001 C.ar    1  LIG1        0.1149
     34 C           7.8322    8.3662   -0.0001 C.ar    1  LIG1        0.1709
     35 C           7.2647    7.1311    0.0000 C.ar    1  LIG1        0.1353
     36 O           5.8935    7.2612   -0.0000 O.2     1  LIG1       -0.4547
     37 H           7.6556    6.1284    0.0001 H       1  LIG1        0.1068
     38 C           7.0086   10.7237   -0.0002 C.1     1  LIG1       -0.0621
     39 C           7.3829   11.8775   -0.0003 C.1     1  LIG1       -0.1137
     40 H           7.6478   12.9092   -0.0003 H       1  LIG1        0.1232
     41 O           9.1536    8.6596   -0.0001 O.3     1  LIG1       -0.5028
     42 H           9.2347    9.6265   -0.0001 H       1  LIG1        0.2923
@<TRIPOS>BOND
     1    40    39    1
     2    39    38    3
     3    38    33    1
     4    29    28    1
     5    28    27    3
     6    31    30    1
     7    27    23    1
     8    30    24    1
     9    42    41    1
    10    23    24   ar
    11    23    22   ar
    12    24    25   ar
    13    33    32   ar
    14    33    34   ar
    15    19    18    1
    16    22    15    1
    17    22    26   ar
    18    25    26   ar
    19    25    32    1
    20    16    15   ar
    21    16    12   ar
    22    15    14   ar
    23    41    34    1
    24    32    36   ar
    25    12     4    1
    26    12    13   ar
    27    11    10    1
    28    34    35   ar
    29    14    13   ar
    30    14    20    1
    31     4     5   ar
    32     4     3   ar
    33     5     1   ar
    34    10     3    1
    35     3     2   ar
    36    13    17    1
    37    20    21    1
    38     1     6    1
    39     1     2   ar
    40     2     7    1
    41     7     8    3
    42    17    18    3
    43     8     9    1
    44    36    35   ar
    45    35    37    1
