@<TRIPOS>MOLECULE
mol_data/opt/b3lyp/geoms/mol2/12ef6la4if-12fe-.out
 49 52 0 0 0
SMALL
GASTEIGER

@<TRIPOS>ATOM
      1 C           0.3526    1.5248   -0.5423 C.ar    1  LIG1        0.1116
      2 C           1.6724    1.6128   -0.1730 C.ar    1  LIG1        0.1044
      3 C           1.9116    3.0224   -0.0027 C.ar    1  LIG1        0.1785
      4 C           0.7363    3.6798   -0.2796 C.ar    1  LIG1        0.1823
      5 O          -0.2234    2.7418   -0.6057 O.2     1  LIG1       -0.4577
      6 H          -0.2749    0.6796   -0.7772 H       1  LIG1        0.1043
      7 C           2.5950    0.5531    0.0104 C.1     1  LIG1       -0.0628
      8 C           3.3834   -0.3506    0.1671 C.1     1  LIG1       -0.1137
      9 H           4.0812   -1.1431    0.3071 H       1  LIG1        0.1232
     10 O           3.1093    3.5291    0.3862 O.3     1  LIG1       -0.5024
     11 H           2.9848    4.4536    0.6444 H       1  LIG1        0.2923
     12 C          -0.8213    5.6434    0.1494 C.ar    1  LIG1        0.2261
     13 C           0.4192    5.0990   -0.2921 C.ar    1  LIG1        0.0824
     14 C           1.3634    6.0395   -0.7163 C.ar    1  LIG1       -0.0438
     15 C           1.0942    7.4074   -0.6636 C.ar    1  LIG1       -0.0348
     16 C          -0.1519    7.8361   -0.1967 C.ar    1  LIG1        0.0752
     17 N          -1.0909    6.9358    0.1819 N.ar    1  LIG1       -0.2123
     18 H           2.3078    5.6930   -1.1274 H       1  LIG1        0.0627
     19 O          -1.7571    4.7649    0.5645 O.3     1  LIG1       -0.4792
     20 C          -2.9989    5.2981    1.0305 C.3     1  LIG1        0.0804
     21 H          -3.5752    4.4333    1.3611 H       1  LIG1        0.0660
     22 H          -2.8445    5.9963    1.8575 H       1  LIG1        0.0660
     23 H          -3.5289    5.8201    0.2284 H       1  LIG1        0.0660
     24 H           1.8245    8.1161   -1.0293 H       1  LIG1        0.0639
     25 C           0.3055   10.3330    0.1949 C.ar    1  LIG1       -0.0404
     26 C          -0.2203   11.6263    0.2008 C.ar    1  LIG1       -0.0439
     27 C          -0.5585    9.2647   -0.1429 C.ar    1  LIG1        0.0069
     28 C          -1.5540   11.9368   -0.1219 C.ar    1  LIG1        0.0626
     29 H           0.4350   12.4432    0.4800 H       1  LIG1        0.0629
     30 C          -1.8990    9.5565   -0.4354 C.ar    1  LIG1       -0.0100
     31 C          -2.4024   10.8523   -0.4440 C.ar    1  LIG1        0.1283
     32 H          -2.5623    8.7283   -0.6693 H       1  LIG1        0.0661
     33 C           1.7517   10.1580    0.6083 C.3     1  LIG1       -0.0391
     34 H           2.0679   10.9997    1.2303 H       1  LIG1        0.0278
     35 H           2.4313   10.1278   -0.2528 H       1  LIG1        0.0278
     36 H           1.9103    9.2392    1.1788 H       1  LIG1        0.0278
     37 O          -3.7069   11.0993   -0.7680 O.3     1  LIG1       -0.5060
     38 H          -4.1310   10.2558   -0.9739 H       1  LIG1        0.2922
     39 C          -1.9805   13.3269   -0.1075 C.ar    1  LIG1        0.1807
     40 C          -1.2834   14.5134   -0.0404 C.ar    1  LIG1        0.1785
     41 C          -2.2417   15.5874   -0.0442 C.ar    1  LIG1        0.1044
     42 C          -3.4673   14.9738   -0.1133 C.ar    1  LIG1        0.1116
     43 O          -3.3281   13.6376   -0.1500 O.2     1  LIG1       -0.4578
     44 H          -4.4741   15.3591   -0.1431 H       1  LIG1        0.1043
     45 O           0.0645   14.6637    0.0156 O.3     1  LIG1       -0.5024
     46 H           0.2546   15.6143    0.0304 H       1  LIG1        0.2923
     47 C          -1.9055   16.9616    0.0084 C.1     1  LIG1       -0.0628
     48 C          -1.5314   18.1130    0.0561 C.1     1  LIG1       -0.1137
     49 H          -1.2383   19.1366    0.0966 H       1  LIG1        0.1232
@<TRIPOS>BOND
     1    18    14    1
     2    24    15    1
     3    38    37    1
     4     6     1    1
     5    37    31    1
     6    14    15   ar
     7    14    13   ar
     8    32    30    1
     9    15    16   ar
    10     5     1   ar
    11     5     4   ar
    12     1     2   ar
    13    31    30   ar
    14    31    28   ar
    15    30    27   ar
    16    13     4    1
    17    13    12   ar
    18     4     3   ar
    19    35    33    1
    20    16    27    1
    21    16    17   ar
    22     2     3   ar
    23     2     7    1
    24    43    42   ar
    25    43    39   ar
    26    44    42    1
    27    27    25   ar
    28    28    39    1
    29    28    26   ar
    30    42    41   ar
    31    39    40   ar
    32    41    40   ar
    33    41    47    1
    34    40    45    1
    35     3    10    1
    36    47    48    3
    37     7     8    3
    38    45    46    1
    39    48    49    1
    40    12    17   ar
    41    12    19    1
    42     8     9    1
    43    25    26   ar
    44    25    33    1
    45    26    29    1
    46    23    20    1
    47    10    11    1
    48    19    20    1
    49    33    36    1
    50    33    34    1
    51    20    21    1
    52    20    22    1
