@<TRIPOS>MOLECULE
mol_data/opt/b3lyp/geoms/mol2/12ef12ef-12ef12ef-.out
 42 45 0 0 0
SMALL
GASTEIGER

@<TRIPOS>ATOM
      1 C           0.3339    1.6024   -0.0000 C.ar    1  LIG1        0.1118
      2 C           1.7038    1.7068   -0.0001 C.ar    1  LIG1        0.1045
      3 C           1.9754    3.1214   -0.0001 C.ar    1  LIG1        0.1815
      4 C           0.7474    3.7576   -0.0001 C.ar    1  LIG1        0.2134
      5 O          -0.2580    2.8164   -0.0000 O.2     1  LIG1       -0.4547
      6 H          -0.3233    0.7473   -0.0000 H       1  LIG1        0.1043
      7 C           2.6513    0.6533   -0.0001 C.1     1  LIG1       -0.0628
      8 C           3.4603   -0.2452   -0.0000 C.1     1  LIG1       -0.1137
      9 H           4.1775   -1.0330    0.0001 H       1  LIG1        0.1232
     10 O           3.2128    3.6372   -0.0001 O.3     1  LIG1       -0.5023
     11 H           3.1820    4.6106   -0.0001 H       1  LIG1        0.2923
     12 C           0.4167    5.1394   -0.0001 C.ar    1  LIG1        0.1934
     13 C          -0.7600    5.8735   -0.0000 C.ar    1  LIG1        0.1157
     14 C          -0.3565    7.2539   -0.0000 C.ar    1  LIG1        0.1823
     15 C           1.0211    7.2893   -0.0001 C.ar    1  LIG1        0.2144
     16 O           1.4859    5.9820   -0.0001 O.2     1  LIG1       -0.4434
     17 C          -2.1094    5.4565   -0.0000 C.1     1  LIG1       -0.0621
     18 C          -3.2955    5.2070    0.0000 C.1     1  LIG1       -0.1137
     19 H          -4.3281    4.9439    0.0001 H       1  LIG1        0.1232
     20 O          -1.1836    8.3147   -0.0000 O.3     1  LIG1       -0.5023
     21 H          -2.0937    7.9774    0.0000 H       1  LIG1        0.2923
     22 C           1.9977    8.3224   -0.0001 C.ar    1  LIG1        0.1934
     23 C           3.3917    8.2938   -0.0000 C.ar    1  LIG1        0.1157
     24 C           3.7940    9.6690   -0.0000 C.ar    1  LIG1        0.1823
     25 C           2.6452   10.4331   -0.0001 C.ar    1  LIG1        0.2144
     26 O           1.5454    9.6031   -0.0002 O.2     1  LIG1       -0.4434
     27 C           4.2609    7.1776    0.0001 C.1     1  LIG1       -0.0621
     28 C           5.0487    6.2567    0.0002 C.1     1  LIG1       -0.1137
     29 H           5.7488    5.4530    0.0001 H       1  LIG1        0.1232
     30 O           5.0762   10.0782   -0.0000 O.3     1  LIG1       -0.5023
     31 H           5.0824   11.0489   -0.0001 H       1  LIG1        0.2923
     32 C           2.4755   11.8456   -0.0002 C.ar    1  LIG1        0.1924
     33 C           1.3938   12.7088   -0.0003 C.ar    1  LIG1        0.1149
     34 C           1.9613   14.0404   -0.0003 C.ar    1  LIG1        0.1709
     35 C           3.3134   13.9137   -0.0003 C.ar    1  LIG1        0.1353
     36 O           3.6392   12.5651   -0.0002 O.2     1  LIG1       -0.4547
     37 H           4.1334   14.6100   -0.0003 H       1  LIG1        0.1068
     38 C           0.0059   12.4538   -0.0003 C.1     1  LIG1       -0.0621
     39 C          -1.2019   12.3484   -0.0003 C.1     1  LIG1       -0.1137
     40 H          -2.2575   12.2065   -0.0003 H       1  LIG1        0.1232
     41 O           1.2543   15.1934   -0.0004 O.3     1  LIG1       -0.5028
     42 H           0.3133   14.9588   -0.0004 H       1  LIG1        0.2923
@<TRIPOS>BOND
     1    42    41    1
     2    41    34    1
     3    34    35   ar
     4    34    33   ar
     5    39    40    1
     6    39    38    3
     7    37    35    1
     8    38    33    1
     9    35    36   ar
    10    33    32   ar
    11    36    32   ar
    12    32    25    1
    13    26    25   ar
    14    26    22   ar
    15    25    24   ar
    16    16    15   ar
    17    16    12   ar
    18    10    11    1
    19    10     3    1
    20    22    15    1
    21    22    23   ar
    22    15    14   ar
    23     3     4   ar
    24     3     2   ar
    25    31    30    1
    26     4    12    1
    27     4     5   ar
    28     7     2    1
    29     7     8    3
    30    12    13   ar
    31     2     1   ar
    32    24    30    1
    33    24    23   ar
    34     5     1   ar
    35     8     9    1
    36     1     6    1
    37    14    13   ar
    38    14    20    1
    39    13    17    1
    40    20    21    1
    41    17    18    3
    42    23    27    1
    43    18    19    1
    44    29    28    1
    45    27    28    3
