@<TRIPOS>MOLECULE
mol_data/opt/b3lyp/geoms/mol2/12ef12ef-.out
 22 23 0 0 0
SMALL
GASTEIGER

@<TRIPOS>ATOM
      1 C           0.2412    1.7320    0.0000 C.ar    1  LIG1        0.1118
      2 C           1.6146    1.7751   -0.0000 C.ar    1  LIG1        0.1045
      3 C           1.9445    3.1767   -0.0000 C.ar    1  LIG1        0.1815
      4 C           0.7512    3.8670   -0.0001 C.ar    1  LIG1        0.2134
      5 O          -0.2946    2.9731   -0.0000 O.2     1  LIG1       -0.4547
      6 H          -0.4543    0.9081    0.0001 H       1  LIG1        0.1043
      7 C           2.5149    0.6809    0.0000 C.1     1  LIG1       -0.0628
      8 C           3.2847   -0.2516    0.0001 C.1     1  LIG1       -0.1137
      9 H           3.9675   -1.0693    0.0003 H       1  LIG1        0.1232
     10 O           3.2019    3.6591   -0.0000 O.3     1  LIG1       -0.5023
     11 H           3.1538    4.6284   -0.0001 H       1  LIG1        0.2923
     12 C           0.4896    5.2695   -0.0001 C.ar    1  LIG1        0.1923
     13 C          -0.6471    6.0560   -0.0001 C.ar    1  LIG1        0.1149
     14 C          -0.1712    7.4235   -0.0001 C.ar    1  LIG1        0.1709
     15 C           1.1864    7.3871   -0.0002 C.ar    1  LIG1        0.1353
     16 O           1.6011    6.0637   -0.0001 O.2     1  LIG1       -0.4547
     17 H           1.9579    8.1367   -0.0002 H       1  LIG1        0.1068
     18 C          -2.0144    5.7040   -0.0001 C.1     1  LIG1       -0.0621
     19 C          -3.2116    5.5128   -0.0000 C.1     1  LIG1       -0.1137
     20 H          -4.2556    5.3001    0.0000 H       1  LIG1        0.1232
     21 O          -0.9525    8.5273   -0.0002 O.3     1  LIG1       -0.5028
     22 H          -1.8766    8.2337   -0.0001 H       1  LIG1        0.2923
@<TRIPOS>BOND
     1    17    15    1
     2    15    14   ar
     3    15    16   ar
     4    21    14    1
     5    21    22    1
     6    14    13   ar
     7    16    12   ar
     8    13    12   ar
     9    13    18    1
    10    12     4    1
    11    18    19    3
    12     4     5   ar
    13     4     3   ar
    14    11    10    1
    15     5     1   ar
    16    19    20    1
    17     3    10    1
    18     3     2   ar
    19     2     7    1
    20     2     1   ar
    21     7     8    3
    22     1     6    1
    23     8     9    1
