@<TRIPOS>MOLECULE
mol_data/opt/b3lyp/geoms/mol2/12ef12ef.out
 22 23 0 0 0
SMALL
GASTEIGER

@<TRIPOS>ATOM
      1 C           0.1559    1.7941   -0.0000 C.ar    1  LIG1        0.1118
      2 C           1.5275    1.7961    0.0000 C.ar    1  LIG1        0.1045
      3 C           1.9073    3.1874    0.0000 C.ar    1  LIG1        0.1815
      4 C           0.7345    3.9207   -0.0001 C.ar    1  LIG1        0.2134
      5 O          -0.3379    3.0473   -0.0001 O.2     1  LIG1       -0.4547
      6 H          -0.5648    0.9916   -0.0001 H       1  LIG1        0.1043
      7 C           2.3964    0.6769    0.0001 C.1     1  LIG1       -0.0628
      8 C           3.1372   -0.2788    0.0002 C.1     1  LIG1       -0.1137
      9 H           3.7945   -1.1170    0.0001 H       1  LIG1        0.1232
     10 O           3.1932    3.5705    0.0001 O.3     1  LIG1       -0.5023
     11 H           3.2668    4.5434    0.0001 H       1  LIG1        0.2923
     12 C           0.4183    5.3199   -0.0001 C.ar    1  LIG1        0.1923
     13 C           1.1898    6.4769   -0.0000 C.ar    1  LIG1        0.1149
     14 C           0.2447    7.5671   -0.0001 C.ar    1  LIG1        0.1709
     15 C          -1.0002    7.0188   -0.0002 C.ar    1  LIG1        0.1353
     16 O          -0.8978    5.6451   -0.0002 O.2     1  LIG1       -0.4547
     17 H          -1.9987    7.4237   -0.0003 H       1  LIG1        0.1068
     18 C           2.5968    6.6078    0.0001 C.1     1  LIG1       -0.0621
     19 C           3.8015    6.7560    0.0002 C.1     1  LIG1       -0.1137
     20 H           4.8575    6.9003    0.0000 H       1  LIG1        0.1232
     21 O           0.6433    8.8635   -0.0001 O.3     1  LIG1       -0.5028
     22 H          -0.1340    9.4370   -0.0002 H       1  LIG1        0.2923
@<TRIPOS>BOND
     1    17    15    1
     2    15    16   ar
     3    15    14   ar
     4    16    12   ar
     5    22    21    1
     6    14    21    1
     7    14    13   ar
     8     5     4   ar
     9     5     1   ar
    10    12     4    1
    11    12    13   ar
    12     6     1    1
    13     4     3   ar
    14    13    18    1
    15     1     2   ar
    16    20    19    1
    17     2     3   ar
    18     2     7    1
    19     3    10    1
    20    18    19    3
    21     7     8    3
    22    10    11    1
    23     9     8    1
