@<TRIPOS>MOLECULE
mol_data/opt/b3lyp/geoms/mol2/12ef12ef12ef12ef-.out
 42 45 0 0 0
SMALL
GASTEIGER

@<TRIPOS>ATOM
      1 C           0.5331    1.6923   -0.0001 C.ar    1  LIG1        0.1118
      2 C           1.9032    1.7632   -0.0000 C.ar    1  LIG1        0.1045
      3 C           2.2117    3.1706    0.0000 C.ar    1  LIG1        0.1815
      4 C           1.0003    3.8448   -0.0000 C.ar    1  LIG1        0.2134
      5 O          -0.0257    2.9169   -0.0001 O.2     1  LIG1       -0.4547
      6 H          -0.1436    0.8524   -0.0002 H       1  LIG1        0.1043
      7 C           2.8280    0.6899    0.0000 C.1     1  LIG1       -0.0628
      8 C           3.6170   -0.2263    0.0001 C.1     1  LIG1       -0.1137
      9 H           4.3164   -1.0298    0.0001 H       1  LIG1        0.1232
     10 O           3.4745    3.6168    0.0001 O.3     1  LIG1       -0.5023
     11 H           3.5026    4.5925    0.0001 H       1  LIG1        0.2923
     12 C           0.6181    5.2223   -0.0000 C.ar    1  LIG1        0.1934
     13 C           1.3394    6.4144    0.0000 C.ar    1  LIG1        0.1157
     14 C           0.3635    7.4646   -0.0000 C.ar    1  LIG1        0.1823
     15 C          -0.8832    6.8604   -0.0001 C.ar    1  LIG1        0.2144
     16 O          -0.7081    5.4863   -0.0001 O.2     1  LIG1       -0.4434
     17 C           2.7399    6.6079    0.0001 C.1     1  LIG1       -0.0621
     18 C           3.9359    6.8121    0.0002 C.1     1  LIG1       -0.1137
     19 H           4.9841    7.0059    0.0001 H       1  LIG1        0.1232
     20 O           0.7233    8.7545    0.0000 O.3     1  LIG1       -0.5023
     21 H          -0.0594    9.3385   -0.0000 H       1  LIG1        0.2923
     22 C          -2.2271    7.3368   -0.0002 C.ar    1  LIG1        0.1934
     23 C          -2.7901    8.6158   -0.0002 C.ar    1  LIG1        0.1157
     24 C          -4.2077    8.4107   -0.0002 C.ar    1  LIG1        0.1823
     25 C          -4.4222    7.0496   -0.0003 C.ar    1  LIG1        0.2144
     26 O          -3.2081    6.3976   -0.0002 O.2     1  LIG1       -0.4434
     27 C          -2.1420    9.8714   -0.0001 C.1     1  LIG1       -0.0621
     28 C          -1.6202   10.9672   -0.0001 C.1     1  LIG1       -0.1137
     29 H          -1.1773   11.9368   -0.0002 H       1  LIG1        0.1232
     30 O          -5.1109    9.4086   -0.0003 O.3     1  LIG1       -0.5023
     31 H          -5.9972    9.0122   -0.0003 H       1  LIG1        0.2923
     32 C          -5.6355    6.3064   -0.0003 C.ar    1  LIG1        0.1924
     33 C          -5.9678    4.9636   -0.0003 C.ar    1  LIG1        0.1149
     34 C          -7.4147    4.9233   -0.0004 C.ar    1  LIG1        0.1709
     35 C          -7.8639    6.2051   -0.0005 C.ar    1  LIG1        0.1353
     36 O          -6.7745    7.0643   -0.0004 O.2     1  LIG1       -0.4547
     37 H          -8.8390    6.6591   -0.0005 H       1  LIG1        0.1068
     38 C          -5.1527    3.8116   -0.0002 C.1     1  LIG1       -0.0621
     39 C          -4.5440    2.7633   -0.0001 C.1     1  LIG1       -0.1137
     40 H          -3.9637    1.8702    0.0001 H       1  LIG1        0.1232
     41 O          -8.1679    3.8002   -0.0004 O.3     1  LIG1       -0.5028
     42 H          -7.5633    3.0420   -0.0003 H       1  LIG1        0.2923
@<TRIPOS>BOND
     1    37    35    1
     2    35    36   ar
     3    35    34   ar
     4    36    32   ar
     5    41    34    1
     6    41    42    1
     7    34    33   ar
     8    31    30    1
     9    32    33   ar
    10    32    25    1
    11    33    38    1
    12    25    24   ar
    13    25    26   ar
    14    30    24    1
    15    24    23   ar
    16    26    22   ar
    17    38    39    3
    18    29    28    1
    19    23    22   ar
    20    23    27    1
    21    22    15    1
    22     6     1    1
    23    39    40    1
    24    16    15   ar
    25    16    12   ar
    26     5     1   ar
    27     5     4   ar
    28    27    28    3
    29    15    14   ar
    30     1     2   ar
    31     4    12    1
    32     4     3   ar
    33    12    13   ar
    34    14    20    1
    35    14    13   ar
    36     2     3   ar
    37     2     7    1
    38    21    20    1
    39     3    10    1
    40     7     8    3
    41    13    17    1
    42     8     9    1
    43    10    11    1
    44    19    18    1
    45    17    18    3
