@<TRIPOS>MOLECULE
mol_data/opt/b3lyp/geoms/mol2/12ef6hh-13ea-13ha-.out
 45 48 0 0 0
SMALL
GASTEIGER

@<TRIPOS>ATOM
      1 C           0.4980    1.7594   -1.1929 C.ar    1  LIG1        0.1116
      2 C           1.4219    1.6439   -0.1868 C.ar    1  LIG1        0.1044
      3 C           1.6006    2.9845    0.3132 C.ar    1  LIG1        0.1785
      4 C           0.7932    3.8173   -0.4213 C.ar    1  LIG1        0.1806
      5 O           0.1055    3.0467   -1.3483 O.2     1  LIG1       -0.4578
      6 H           0.0497    1.0330   -1.8516 H       1  LIG1        0.1043
      7 C           2.0557    0.4633    0.2741 C.1     1  LIG1       -0.0628
      8 C           2.5978   -0.5430    0.6691 C.1     1  LIG1       -0.1137
      9 H           3.0776   -1.4263    1.0214 H       1  LIG1        0.1232
     10 O           2.4266    3.2846    1.3468 O.3     1  LIG1       -0.5024
     11 H           2.2072    4.1716    1.6678 H       1  LIG1        0.2923
     12 C          -0.6906    5.8682   -0.5903 C.ar    1  LIG1        0.1279
     13 C           0.5752    5.2543   -0.3695 C.ar    1  LIG1        0.0622
     14 C           1.6297    6.1063   -0.0303 C.ar    1  LIG1       -0.0248
     15 C           1.4685    7.4926    0.1193 C.ar    1  LIG1        0.0532
     16 C           0.1787    8.0070   -0.1614 C.ar    1  LIG1        0.1110
     17 N          -0.8452    7.1832   -0.4954 N.ar    1  LIG1       -0.2284
     18 H           2.6214    5.6833    0.1152 H       1  LIG1        0.0645
     19 N          -1.8307    5.1224   -0.8594 N.pl3   1  LIG1       -0.3426
     20 H          -2.5826    5.6838   -1.2345 H       1  LIG1        0.1437
     21 H          -1.6837    4.2492   -1.3444 H       1  LIG1        0.1437
     22 N           2.5207    8.2552    0.6164 N.pl3   1  LIG1       -0.3563
     23 H           3.4236    7.8061    0.5381 H       1  LIG1        0.1424
     24 H           2.5656    9.2231    0.3209 H       1  LIG1        0.1424
     25 C          -0.2300    9.4117   -0.0610 C.ar    1  LIG1        0.0829
     26 C           0.3719   10.6789   -0.1857 C.ar    1  LIG1        0.0521
     27 C          -0.6577   11.6590   -0.0261 C.ar    1  LIG1       -0.0188
     28 C          -1.8585   10.9926    0.1700 C.ar    1  LIG1        0.0664
     29 N          -1.5698    9.6467    0.1492 N.ar    1  LIG1       -0.3507
     30 H          -2.2239    8.8788    0.0821 H       1  LIG1        0.1660
     31 C           1.7122   11.0082   -0.5077 C.1     1  LIG1       -0.0675
     32 C           2.8443   11.3405   -0.7914 C.1     1  LIG1       -0.1138
     33 H           3.8303   11.6348   -1.0666 H       1  LIG1        0.1232
     34 H          -0.5106   12.7285   -0.0061 H       1  LIG1        0.0652
     35 C          -3.1951   11.4964    0.3687 C.ar    1  LIG1        0.0838
     36 C          -3.7910   12.6647   -0.1011 C.ar    1  LIG1        0.0516
     37 C          -5.1433   12.6664    0.3488 C.ar    1  LIG1       -0.0230
     38 C          -5.3400   11.5125    1.0774 C.ar    1  LIG1        0.0040
     39 N          -4.1757   10.7920    1.0670 N.ar    1  LIG1       -0.3580
     40 H          -3.9745   10.0259    1.6897 H       1  LIG1        0.1654
     41 H          -6.2156   11.1538    1.5973 H       1  LIG1        0.0807
     42 N          -3.1633   13.6640   -0.8588 N.pl3   1  LIG1       -0.3563
     43 H          -2.3743   13.3089   -1.3895 H       1  LIG1        0.1424
     44 H          -3.8052   14.1446   -1.4779 H       1  LIG1        0.1424
     45 H          -5.8845   13.4274    0.1478 H       1  LIG1        0.0651
@<TRIPOS>BOND
     1     6     1    1
     2    44    42    1
     3    43    42    1
     4     5     1   ar
     5     5     4   ar
     6    21    19    1
     7    20    19    1
     8     1     2   ar
     9    33    32    1
    10    19    12    1
    11    42    36    1
    12    32    31    3
    13    12    17   ar
    14    12    13   ar
    15    31    26    1
    16    17    16   ar
    17     4    13    1
    18     4     3   ar
    19    13    14   ar
    20     2     7    1
    21     2     3   ar
    22    26    25   ar
    23    26    27   ar
    24    16    25    1
    25    16    15   ar
    26    36    37   ar
    27    36    35   ar
    28    25    29   ar
    29    14    18    1
    30    14    15   ar
    31    27    34    1
    32    27    28   ar
    33    30    29    1
    34    15    22    1
    35    45    37    1
    36    29    28   ar
    37    28    35    1
    38     7     8    3
    39     3    10    1
    40    24    22    1
    41    37    38   ar
    42    35    39   ar
    43    23    22    1
    44     8     9    1
    45    39    38   ar
    46    39    40    1
    47    38    41    1
    48    10    11    1
