@<TRIPOS>MOLECULE
mol_data/opt/b3lyp/geoms/mol2/12ef12ef-12ef12ef.out
 42 45 0 0 0
SMALL
GASTEIGER

@<TRIPOS>ATOM
      1 C           0.2887    1.6553   -0.0001 C.ar    1  LIG1        0.1118
      2 C           1.6592    1.7516   -0.0000 C.ar    1  LIG1        0.1045
      3 C           1.9395    3.1647   -0.0000 C.ar    1  LIG1        0.1815
      4 C           0.7153    3.8081   -0.0001 C.ar    1  LIG1        0.2134
      5 O          -0.2956    2.8729   -0.0001 O.2     1  LIG1       -0.4547
      6 H          -0.3735    0.8042   -0.0001 H       1  LIG1        0.1043
      7 C           2.6002    0.6923    0.0000 C.1     1  LIG1       -0.0628
      8 C           3.4035   -0.2113    0.0000 C.1     1  LIG1       -0.1137
      9 H           4.1157   -1.0036   -0.0000 H       1  LIG1        0.1232
     10 O           3.1802    3.6724   -0.0000 O.3     1  LIG1       -0.5023
     11 H           3.1567    4.6462   -0.0000 H       1  LIG1        0.2923
     12 C           0.3937    5.1923   -0.0001 C.ar    1  LIG1        0.1934
     13 C          -0.7773    5.9355   -0.0001 C.ar    1  LIG1        0.1157
     14 C          -0.3625    7.3130   -0.0001 C.ar    1  LIG1        0.1823
     15 C           1.0151    7.3371   -0.0001 C.ar    1  LIG1        0.2144
     16 O           1.4692    6.0262   -0.0001 O.2     1  LIG1       -0.4434
     17 C          -2.1298    5.5288   -0.0001 C.1     1  LIG1       -0.0621
     18 C          -3.3175    5.2873   -0.0001 C.1     1  LIG1       -0.1137
     19 H          -4.3521    5.0323   -0.0001 H       1  LIG1        0.1232
     20 O          -1.1800    8.3810   -0.0001 O.3     1  LIG1       -0.5023
     21 H          -2.0937    8.0537   -0.0001 H       1  LIG1        0.2923
     22 C           2.0004    8.3631   -0.0001 C.ar    1  LIG1        0.1934
     23 C           3.3912    8.3253    0.0000 C.ar    1  LIG1        0.1157
     24 C           3.8114    9.6978   -0.0000 C.ar    1  LIG1        0.1823
     25 C           2.6673   10.4769   -0.0001 C.ar    1  LIG1        0.2144
     26 O           1.5615    9.6431   -0.0002 O.2     1  LIG1       -0.4434
     27 C           4.2541    7.2043    0.0001 C.1     1  LIG1       -0.0621
     28 C           5.0337    6.2764    0.0002 C.1     1  LIG1       -0.1137
     29 H           5.7270    5.4669    0.0003 H       1  LIG1        0.1232
     30 O           5.1090   10.0365    0.0000 O.3     1  LIG1       -0.5023
     31 H           5.2169   11.0065    0.0000 H       1  LIG1        0.2923
     32 C           2.4063   11.8833   -0.0002 C.ar    1  LIG1        0.1924
     33 C           3.2239   13.0110   -0.0002 C.ar    1  LIG1        0.1149
     34 C           2.3218   14.1364   -0.0003 C.ar    1  LIG1        0.1709
     35 C           1.0562   13.6375   -0.0004 C.ar    1  LIG1        0.1353
     36 O           1.1037   12.2610   -0.0003 O.2     1  LIG1       -0.4547
     37 H           0.0747   14.0817   -0.0004 H       1  LIG1        0.1068
     38 C           4.6342   13.0871   -0.0001 C.1     1  LIG1       -0.0621
     39 C           5.8442   13.1872   -0.0001 C.1     1  LIG1       -0.1137
     40 H           6.9049   13.2897   -0.0000 H       1  LIG1        0.1232
     41 O           2.7700   15.4169   -0.0003 O.3     1  LIG1       -0.5028
     42 H           2.0147   16.0191   -0.0004 H       1  LIG1        0.2923
@<TRIPOS>BOND
     1    37    35    1
     2    42    41    1
     3    35    34   ar
     4    35    36   ar
     5    41    34    1
     6    34    33   ar
     7    36    32   ar
     8    33    32   ar
     9    33    38    1
    10    32    25    1
    11    26    25   ar
    12    26    22   ar
    13    25    24   ar
    14    38    39    3
    15    15    16   ar
    16    15    14   ar
    17    15    22    1
    18    16    12   ar
    19    14    20    1
    20    14    13   ar
    21     5     4   ar
    22     5     1   ar
    23    20    21    1
    24    12    13   ar
    25    12     4    1
    26    13    17    1
    27     6     1    1
    28    22    23   ar
    29     4     3   ar
    30    17    18    3
    31    19    18    1
    32     1     2   ar
    33    39    40    1
    34     3     2   ar
    35     3    10    1
    36     9     8    1
    37     2     7    1
    38    24    23   ar
    39    24    30    1
    40    11    10    1
    41    31    30    1
    42     7     8    3
    43    23    27    1
    44    27    28    3
    45    28    29    1
