@<TRIPOS>MOLECULE
mol_data/opt/b3lyp/geoms/mol2/12ef12ef12ef12ef.out
 42 45 0 0 0
SMALL
GASTEIGER

@<TRIPOS>ATOM
      1 C           0.4588    1.6654   -0.0001 C.ar    1  LIG1        0.1118
      2 C           1.8299    1.7225   -0.0000 C.ar    1  LIG1        0.1045
      3 C           2.1529    3.1266   -0.0000 C.ar    1  LIG1        0.1815
      4 C           0.9485    3.8129   -0.0001 C.ar    1  LIG1        0.2134
      5 O          -0.0866    2.8956   -0.0001 O.2     1  LIG1       -0.4547
      6 H          -0.2279    0.8336   -0.0001 H       1  LIG1        0.1043
      7 C           2.7437    0.6397   -0.0000 C.1     1  LIG1       -0.0628
      8 C           3.5231   -0.2847    0.0000 C.1     1  LIG1       -0.1137
      9 H           4.2141   -1.0954    0.0002 H       1  LIG1        0.1232
     10 O           3.4200    3.5614   -0.0000 O.3     1  LIG1       -0.5023
     11 H           3.4562    4.5368    0.0000 H       1  LIG1        0.2923
     12 C           0.5772    5.1934   -0.0001 C.ar    1  LIG1        0.1934
     13 C           1.3057    6.3811   -0.0000 C.ar    1  LIG1        0.1157
     14 C           0.3354    7.4373   -0.0001 C.ar    1  LIG1        0.1823
     15 C          -0.9142    6.8402   -0.0001 C.ar    1  LIG1        0.2144
     16 O          -0.7470    5.4652   -0.0001 O.2     1  LIG1       -0.4434
     17 C           2.7075    6.5641    0.0000 C.1     1  LIG1       -0.0621
     18 C           3.9054    6.7569    0.0001 C.1     1  LIG1       -0.1137
     19 H           4.9553    6.9416    0.0003 H       1  LIG1        0.1232
     20 O           0.7017    8.7255   -0.0000 O.3     1  LIG1       -0.5023
     21 H          -0.0789    9.3127   -0.0001 H       1  LIG1        0.2923
     22 C          -2.2569    7.3219   -0.0001 C.ar    1  LIG1        0.1934
     23 C          -2.8160    8.5992   -0.0001 C.ar    1  LIG1        0.1157
     24 C          -4.2377    8.4053   -0.0002 C.ar    1  LIG1        0.1823
     25 C          -4.4615    7.0408   -0.0002 C.ar    1  LIG1        0.2144
     26 O          -3.2384    6.3908   -0.0002 O.2     1  LIG1       -0.4434
     27 C          -2.1648    9.8532   -0.0001 C.1     1  LIG1       -0.0621
     28 C          -1.6352   10.9453   -0.0001 C.1     1  LIG1       -0.1137
     29 H          -1.1869   11.9123   -0.0001 H       1  LIG1        0.1232
     30 O          -5.0873    9.4428   -0.0002 O.3     1  LIG1       -0.5023
     31 H          -6.0141    9.1357   -0.0002 H       1  LIG1        0.2923
     32 C          -5.6269    6.2113   -0.0003 C.ar    1  LIG1        0.1924
     33 C          -6.9935    6.4786   -0.0003 C.ar    1  LIG1        0.1149
     34 C          -7.6350    5.1867   -0.0003 C.ar    1  LIG1        0.1709
     35 C          -6.6496    4.2486   -0.0003 C.ar    1  LIG1        0.1353
     36 O          -5.4208    4.8712   -0.0003 O.2     1  LIG1       -0.4547
     37 H          -6.6392    3.1712   -0.0004 H       1  LIG1        0.1068
     38 C          -7.6545    7.7267   -0.0003 C.1     1  LIG1       -0.0621
     39 C          -8.2521    8.7837   -0.0003 C.1     1  LIG1       -0.1137
     40 H          -8.7917    9.7027   -0.0004 H       1  LIG1        0.1232
     41 O          -8.9850    5.0549   -0.0004 O.3     1  LIG1       -0.5028
     42 H          -9.2145    4.1166   -0.0004 H       1  LIG1        0.2923
@<TRIPOS>BOND
     1    40    39    1
     2    42    41    1
     3    41    34    1
     4    37    35    1
     5    35    34   ar
     6    35    36   ar
     7    34    33   ar
     8    36    32   ar
     9    33    32   ar
    10    33    38    1
    11    32    25    1
    12    38    39    3
    13    31    30    1
    14    25    24   ar
    15    25    26   ar
    16    30    24    1
    17    24    23   ar
    18    26    22   ar
    19    23    22   ar
    20    23    27    1
    21    22    15    1
    22     6     1    1
    23    15    16   ar
    24    15    14   ar
    25    16    12   ar
    26    27    28    3
    27     1     5   ar
    28     1     2   ar
    29     5     4   ar
    30    28    29    1
    31    12     4    1
    32    12    13   ar
    33    14    20    1
    34    14    13   ar
    35     4     3   ar
    36    21    20    1
    37     2     3   ar
    38     2     7    1
    39    13    17    1
    40     3    10    1
    41     7     8    3
    42    10    11    1
    43    17    18    3
    44     8     9    1
    45    18    19    1
