@<TRIPOS>MOLECULE
mol_data/opt/b3lyp/geoms/mol2/12ef12ef-12ef-12ef.out
 42 45 0 0 0
SMALL
GASTEIGER

@<TRIPOS>ATOM
      1 C           0.1363    1.6592   -0.0000 C.ar    1  LIG1        0.1118
      2 C           1.5098    1.7006   -0.0006 C.ar    1  LIG1        0.1045
      3 C           1.8432    3.1009   -0.0007 C.ar    1  LIG1        0.1815
      4 C           0.6485    3.7935   -0.0001 C.ar    1  LIG1        0.2134
      5 O          -0.3989    2.8998    0.0003 O.2     1  LIG1       -0.4547
      6 H          -0.5597    0.8355    0.0002 H       1  LIG1        0.1043
      7 C           2.4108    0.6070   -0.0010 C.1     1  LIG1       -0.0628
      8 C           3.1833   -0.3230   -0.0014 C.1     1  LIG1       -0.1137
      9 H           3.8677   -1.1395   -0.0019 H       1  LIG1        0.1232
     10 O           3.1012    3.5687   -0.0012 O.3     1  LIG1       -0.5023
     11 H           3.1020    4.5410   -0.0011 H       1  LIG1        0.2923
     12 C           0.3853    5.1901    0.0001 C.ar    1  LIG1        0.1934
     13 C          -0.7585    5.9722    0.0004 C.ar    1  LIG1        0.1157
     14 C          -0.2970    7.3329    0.0003 C.ar    1  LIG1        0.1823
     15 C           1.0809    7.3157    0.0000 C.ar    1  LIG1        0.2144
     16 O           1.4904    5.9863   -0.0001 O.2     1  LIG1       -0.4434
     17 C          -2.1247    5.6142    0.0007 C.1     1  LIG1       -0.0621
     18 C          -3.3207    5.4176    0.0010 C.1     1  LIG1       -0.1137
     19 H          -4.3639    5.2003    0.0012 H       1  LIG1        0.1232
     20 O          -1.0843    8.4243    0.0006 O.3     1  LIG1       -0.5023
     21 H          -2.0073    8.1242    0.0008 H       1  LIG1        0.2923
     22 C           2.1071    8.3057   -0.0002 C.ar    1  LIG1        0.1934
     23 C           2.1075    9.6969   -0.0006 C.ar    1  LIG1        0.1157
     24 C           3.4909   10.0832   -0.0006 C.ar    1  LIG1        0.1823
     25 C           4.2451    8.9320   -0.0003 C.ar    1  LIG1        0.2144
     26 O           3.3884    7.8477   -0.0000 O.2     1  LIG1       -0.4434
     27 C           1.0717   10.6573   -0.0009 C.1     1  LIG1       -0.0621
     28 C           0.3062   11.5978   -0.0012 C.1     1  LIG1       -0.1137
     29 H          -0.4165   12.3805   -0.0009 H       1  LIG1        0.1232
     30 O           3.9490   11.3506   -0.0009 O.3     1  LIG1       -0.5023
     31 H           3.1752   11.9373   -0.0011 H       1  LIG1        0.2923
     32 C           5.6532    8.6917   -0.0001 C.ar    1  LIG1        0.1924
     33 C           6.4337    7.5428    0.0006 C.ar    1  LIG1        0.1149
     34 C           7.7964    8.0180    0.0002 C.ar    1  LIG1        0.1709
     35 C           7.7531    9.3788   -0.0006 C.ar    1  LIG1        0.1353
     36 O           6.4436    9.7979   -0.0008 O.2     1  LIG1       -0.4547
     37 H           8.5030   10.1527   -0.0011 H       1  LIG1        0.1068
     38 C           6.0463    6.1836    0.0016 C.1     1  LIG1       -0.0621
     39 C           5.7930    4.9991    0.0025 C.1     1  LIG1       -0.1137
     40 H           5.5440    3.9626    0.0028 H       1  LIG1        0.1232
     41 O           8.8567    7.1708    0.0008 O.3     1  LIG1       -0.5028
     42 H           9.6739    7.6858    0.0004 H       1  LIG1        0.2923
@<TRIPOS>BOND
     1     9     8    1
     2     8     7    3
     3    10    11    1
     4    10     3    1
     5    28    29    1
     6    28    27    3
     7    31    30    1
     8    37    35    1
     9     7     2    1
    10    30    24    1
    11    27    23    1
    12    36    35   ar
    13    36    32   ar
    14     3     2   ar
    15     3     4   ar
    16    24    23   ar
    17    24    25   ar
    18     2     1   ar
    19    35    34   ar
    20    23    22   ar
    21    25    32    1
    22    25    26   ar
    23    22    26   ar
    24    22    15    1
    25    32    33   ar
    26    16    15   ar
    27    16    12   ar
    28     4    12    1
    29     4     5   ar
    30     1     6    1
    31     1     5   ar
    32    15    14   ar
    33    12    13   ar
    34    34    33   ar
    35    34    41    1
    36    14    13   ar
    37    14    20    1
    38    13    17    1
    39    42    41    1
    40    33    38    1
    41    20    21    1
    42    17    18    3
    43    18    19    1
    44    38    39    3
    45    39    40    1
