@<TRIPOS>MOLECULE
mol_data/opt/b3lyp/geoms/mol2/12ef12ef12ef.out
 32 34 0 0 0
SMALL
GASTEIGER

@<TRIPOS>ATOM
      1 C           0.2642    1.6969   -0.0000 C.ar    1  LIG1        0.1118
      2 C           1.6360    1.7244    0.0000 C.ar    1  LIG1        0.1045
      3 C           1.9896    3.1215    0.0000 C.ar    1  LIG1        0.1815
      4 C           0.8010    3.8336   -0.0000 C.ar    1  LIG1        0.2134
      5 O          -0.2541    2.9393   -0.0001 O.2     1  LIG1       -0.4547
      6 H          -0.4407    0.8804   -0.0000 H       1  LIG1        0.1043
      7 C           2.5256    0.6216    0.0000 C.1     1  LIG1       -0.0628
      8 C           3.2839   -0.3202    0.0001 C.1     1  LIG1       -0.1137
      9 H           3.9562   -1.1465    0.0001 H       1  LIG1        0.1232
     10 O           3.2663    3.5289    0.0001 O.3     1  LIG1       -0.5023
     11 H           3.3228    4.5033    0.0001 H       1  LIG1        0.2923
     12 C           0.4601    5.2229   -0.0000 C.ar    1  LIG1        0.1934
     13 C           1.2127    6.3943   -0.0000 C.ar    1  LIG1        0.1157
     14 C           0.2632    7.4714   -0.0001 C.ar    1  LIG1        0.1823
     15 C          -0.9959    6.9014   -0.0001 C.ar    1  LIG1        0.2144
     16 O          -0.8585    5.5234   -0.0001 O.2     1  LIG1       -0.4434
     17 C           2.6180    6.5476    0.0001 C.1     1  LIG1       -0.0621
     18 C           3.8198    6.7147    0.0001 C.1     1  LIG1       -0.1137
     19 H           4.8733    6.8769    0.0001 H       1  LIG1        0.1232
     20 O           0.6565    8.7534   -0.0000 O.3     1  LIG1       -0.5023
     21 H          -0.1128    9.3547   -0.0001 H       1  LIG1        0.2923
     22 C          -2.3333    7.4104   -0.0002 C.ar    1  LIG1        0.1924
     23 C          -2.8692    8.6953   -0.0002 C.ar    1  LIG1        0.1149
     24 C          -4.2999    8.5120   -0.0003 C.ar    1  LIG1        0.1709
     25 C          -4.5334    7.1717   -0.0003 C.ar    1  LIG1        0.1353
     26 O          -3.3335    6.4950   -0.0003 O.2     1  LIG1       -0.4547
     27 H          -5.4239    6.5651   -0.0004 H       1  LIG1        0.1068
     28 C          -2.1971    9.9376   -0.0001 C.1     1  LIG1       -0.0621
     29 C          -1.6493   11.0212   -0.0001 C.1     1  LIG1       -0.1137
     30 H          -1.1838   11.9799    0.0000 H       1  LIG1        0.1232
     31 O          -5.1589    9.5617   -0.0003 O.3     1  LIG1       -0.5028
     32 H          -6.0667    9.2316   -0.0004 H       1  LIG1        0.2923
@<TRIPOS>BOND
     1    27    25    1
     2    32    31    1
     3    31    24    1
     4    25    24   ar
     5    25    26   ar
     6    24    23   ar
     7    26    22   ar
     8    23    22   ar
     9    23    28    1
    10    22    15    1
    11    28    29    3
    12    15    16   ar
    13    15    14   ar
    14    16    12   ar
    15    29    30    1
    16     5     4   ar
    17     5     1   ar
    18    21    20    1
    19    14    20    1
    20    14    13   ar
    21    12     4    1
    22    12    13   ar
    23     6     1    1
    24     4     3   ar
    25     1     2   ar
    26    13    17    1
    27     2     3   ar
    28     2     7    1
    29     3    10    1
    30     7     8    3
    31    19    18    1
    32    10    11    1
    33     8     9    1
    34    17    18    3
