@<TRIPOS>MOLECULE
mol_data/opt/b3lyp/geoms/mol2/12eg12eg12eg-.out
 32 34 0 0 0
SMALL
GASTEIGER

@<TRIPOS>ATOM
      1 C           0.4186    1.9273    1.1041 C.ar    1  LIG1        0.1092
      2 C           1.5728    1.7574    0.3854 C.ar    1  LIG1        0.0762
      3 C           1.8836    3.0569   -0.1732 C.ar    1  LIG1        0.0691
      4 C           0.8902    3.9074    0.2642 C.ar    1  LIG1        0.1852
      5 O          -0.0028    3.2055    1.0506 O.2     1  LIG1       -0.4574
      6 H          -0.1796    1.2438    1.6858 H       1  LIG1        0.1042
      7 C           2.3008    0.5542    0.2086 C.1     1  LIG1       -0.0654
      8 C           2.9266   -0.4684    0.0497 C.1     1  LIG1       -0.1138
      9 H           3.4795   -1.3685   -0.0892 H       1  LIG1        0.1232
     10 S           3.2286    3.2887   -1.2888 S.3     1  LIG1       -0.1377
     11 H           3.3720    4.6185   -1.1028 H       1  LIG1        0.1073
     12 C           0.5621    5.2933    0.0544 C.ar    1  LIG1        0.1882
     13 C           1.3057    6.4511   -0.1115 C.ar    1  LIG1        0.0874
     14 C           0.3541    7.5206   -0.3058 C.ar    1  LIG1        0.0699
     15 C          -0.8938    6.9463   -0.2088 C.ar    1  LIG1        0.1863
     16 O          -0.7622    5.5926    0.0123 O.2     1  LIG1       -0.4461
     17 C           2.7103    6.6008   -0.0391 C.1     1  LIG1       -0.0646
     18 C           3.9106    6.7550    0.0226 C.1     1  LIG1       -0.1138
     19 H           4.9637    6.8943    0.1088 H       1  LIG1        0.1232
     20 S           0.8650    9.1622   -0.6981 S.3     1  LIG1       -0.1377
     21 H          -0.2340    9.7950   -0.2340 H       1  LIG1        0.1073
     22 C          -2.2480    7.4209   -0.3268 C.ar    1  LIG1        0.1872
     23 C          -2.8941    8.5999    0.0116 C.ar    1  LIG1        0.0866
     24 C          -4.2684    8.4336   -0.4090 C.ar    1  LIG1        0.0587
     25 C          -4.3537    7.1827   -0.9370 C.ar    1  LIG1        0.1071
     26 O          -3.1382    6.5609   -0.8960 O.2     1  LIG1       -0.4574
     27 H          -5.1639    6.6110   -1.3600 H       1  LIG1        0.1041
     28 C          -2.3757    9.7168    0.7062 C.1     1  LIG1       -0.0647
     29 C          -1.9667   10.6884    1.3045 C.1     1  LIG1       -0.1138
     30 H          -1.6108   11.5269    1.8578 H       1  LIG1        0.1232
     31 S          -5.5088    9.6767   -0.1954 S.3     1  LIG1       -0.1384
     32 H          -6.5121    8.9660   -0.7475 H       1  LIG1        0.1072
@<TRIPOS>BOND
     1    27    25    1
     2    10    11    1
     3    10     3    1
     4    25    26   ar
     5    25    24   ar
     6    26    22   ar
     7    32    31    1
     8    20    14    1
     9    20    21    1
    10    24    31    1
    11    24    23   ar
    12    22    15    1
    13    22    23   ar
    14    14    15   ar
    15    14    13   ar
    16    15    16   ar
    17     3     4   ar
    18     3     2   ar
    19    13    17    1
    20    13    12   ar
    21     9     8    1
    22    17    18    3
    23    23    28    1
    24    16    12   ar
    25    18    19    1
    26     8     7    3
    27    12     4    1
    28     7     2    1
    29     4     5   ar
    30     2     1   ar
    31    28    29    3
    32     5     1   ar
    33     1     6    1
    34    29    30    1
