@<TRIPOS>MOLECULE
mol_data/opt/b3lyp/geoms/mol2/12eg12eg-12eg-12eg.out
 42 45 0 0 0
SMALL
GASTEIGER

@<TRIPOS>ATOM
      1 C           0.5820    2.1435    1.7359 C.ar    1  LIG1        0.1092
      2 C           1.6313    1.8400    0.9085 C.ar    1  LIG1        0.0762
      3 C           1.8800    3.0374    0.1329 C.ar    1  LIG1        0.0691
      4 C           0.9603    3.9695    0.5653 C.ar    1  LIG1        0.1852
      5 O           0.1698    3.4121    1.5518 O.2     1  LIG1       -0.4574
      6 H           0.0579    1.5671    2.4819 H       1  LIG1        0.1042
      7 C           2.3184    0.6037    0.8161 C.1     1  LIG1       -0.0654
      8 C           2.9085   -0.4482    0.7277 C.1     1  LIG1       -0.1138
      9 H           3.4301   -1.3740    0.6509 H       1  LIG1        0.1232
     10 S           3.0717    3.0663   -1.1651 S.3     1  LIG1       -0.1377
     11 H           3.2327    4.4059   -1.2145 H       1  LIG1        0.1073
     12 C           0.6188    5.3192    0.1994 C.ar    1  LIG1        0.1882
     13 C           1.3429    6.4198   -0.2322 C.ar    1  LIG1        0.0874
     14 C           0.3837    7.4768   -0.4519 C.ar    1  LIG1        0.0699
     15 C          -0.8452    6.9579   -0.1053 C.ar    1  LIG1        0.1863
     16 O          -0.6956    5.6459    0.2900 O.2     1  LIG1       -0.4461
     17 C           2.7453    6.5396   -0.3714 C.1     1  LIG1       -0.0646
     18 C           3.9437    6.6692   -0.4948 C.1     1  LIG1       -0.1138
     19 H           4.9997    6.7910   -0.5726 H       1  LIG1        0.1232
     20 S           0.8570    9.0258   -1.1469 S.3     1  LIG1       -0.1377
     21 H          -0.1855    9.7444   -0.6771 H       1  LIG1        0.1073
     22 C          -2.1999    7.4421   -0.1130 C.ar    1  LIG1        0.1882
     23 C          -2.7923    8.6741    0.1193 C.ar    1  LIG1        0.0874
     24 C          -4.2107    8.4860   -0.0776 C.ar    1  LIG1        0.0699
     25 C          -4.3829    7.1527   -0.3780 C.ar    1  LIG1        0.1863
     26 O          -3.1588    6.5222   -0.3955 O.2     1  LIG1       -0.4461
     27 C          -2.1721    9.8735    0.5396 C.1     1  LIG1       -0.0646
     28 C          -1.6659   10.9122    0.9048 C.1     1  LIG1       -0.1138
     29 H          -1.2248   11.8163    1.2569 H       1  LIG1        0.1232
     30 S          -5.3467    9.8341   -0.0227 S.3     1  LIG1       -0.1377
     31 H          -6.4428    9.1156    0.3036 H       1  LIG1        0.1073
     32 C          -5.5091    6.3176   -0.7059 C.ar    1  LIG1        0.1872
     33 C          -6.8345    6.2763   -0.3016 C.ar    1  LIG1        0.0866
     34 C          -7.4419    5.1935   -1.0444 C.ar    1  LIG1        0.0587
     35 C          -6.4520    4.6573   -1.8085 C.ar    1  LIG1        0.1071
     36 O          -5.2791    5.3295   -1.6150 O.2     1  LIG1       -0.4574
     37 H          -6.4170    3.8351   -2.5049 H       1  LIG1        0.1041
     38 C          -7.4734    7.0515    0.6933 C.1     1  LIG1       -0.0647
     39 C          -8.0521    7.6926    1.5438 C.1     1  LIG1       -0.1138
     40 H          -8.5489    8.2376    2.3133 H       1  LIG1        0.1232
     41 S          -9.1426    4.7355   -0.8808 S.3     1  LIG1       -0.1384
     42 H          -9.0940    3.7105   -1.7545 H       1  LIG1        0.1072
@<TRIPOS>BOND
     1    37    35    1
     2    35    36   ar
     3    35    34   ar
     4    42    41    1
     5    36    32   ar
     6    11    10    1
     7    10     3    1
     8    20    21    1
     9    20    14    1
    10    34    41    1
    11    34    33   ar
    12    32    25    1
    13    32    33   ar
    14    19    18    1
    15    18    17    3
    16    14    13   ar
    17    14    15   ar
    18    26    25   ar
    19    26    22   ar
    20    25    24   ar
    21    17    13    1
    22    33    38    1
    23    13    12   ar
    24    22    15    1
    25    22    23   ar
    26    15    16   ar
    27    24    30    1
    28    24    23   ar
    29    30    31    1
    30    23    27    1
    31     3     4   ar
    32     3     2   ar
    33    12    16   ar
    34    12     4    1
    35    27    28    3
    36     4     5   ar
    37     9     8    1
    38    38    39    3
    39     8     7    3
    40     7     2    1
    41    28    29    1
    42     2     1   ar
    43    39    40    1
    44     5     1   ar
    45     1     6    1
