@<TRIPOS>MOLECULE
mol_data/opt/b3lyp/geoms/mol2/12eg12eg-12eg12eg-.out
 42 45 0 0 0
SMALL
GASTEIGER

@<TRIPOS>ATOM
      1 C          -0.0848    1.8945   -0.0009 C.ar    1  LIG1        0.1092
      2 C           1.2681    1.6853   -0.0006 C.ar    1  LIG1        0.0762
      3 C           1.8722    3.0004   -0.0001 C.ar    1  LIG1        0.0691
      4 C           0.8249    3.9057   -0.0002 C.ar    1  LIG1        0.1852
      5 O          -0.3704    3.2068   -0.0007 O.2     1  LIG1       -0.4574
      6 H          -0.9230    1.2156   -0.0013 H       1  LIG1        0.1042
      7 C           1.9453    0.4404   -0.0006 C.1     1  LIG1       -0.0654
      8 C           2.5356   -0.6152   -0.0006 C.1     1  LIG1       -0.1138
      9 H           3.0547   -1.5457   -0.0007 H       1  LIG1        0.1232
     10 S           3.6236    3.1542    0.0005 S.3     1  LIG1       -0.1377
     11 H           3.6725    4.5031    0.0008 H       1  LIG1        0.1073
     12 C           0.6432    5.3355   -0.0000 C.ar    1  LIG1        0.1882
     13 C           1.4509    6.4690    0.0004 C.ar    1  LIG1        0.0874
     14 C           0.5608    7.6057    0.0004 C.ar    1  LIG1        0.0699
     15 C          -0.7249    7.0997   -0.0000 C.ar    1  LIG1        0.1863
     16 O          -0.6553    5.7220   -0.0002 O.2     1  LIG1       -0.4461
     17 C           2.8587    6.6123    0.0008 C.1     1  LIG1       -0.0646
     18 C           4.0450    6.8628    0.0011 C.1     1  LIG1       -0.1138
     19 H           5.0918    7.0639    0.0018 H       1  LIG1        0.1232
     20 S           1.2243    9.2350    0.0011 S.3     1  LIG1       -0.1377
     21 H           0.0429    9.8884    0.0008 H       1  LIG1        0.1073
     22 C          -2.0744    7.6002   -0.0002 C.ar    1  LIG1        0.1882
     23 C          -2.7073    8.8408   -0.0005 C.ar    1  LIG1        0.0874
     24 C          -4.1268    8.5754   -0.0005 C.ar    1  LIG1        0.0699
     25 C          -4.2715    7.2028   -0.0002 C.ar    1  LIG1        0.1863
     26 O          -3.0191    6.6271   -0.0000 O.2     1  LIG1       -0.4461
     27 C          -2.1860   10.1559   -0.0010 C.1     1  LIG1       -0.0646
     28 C          -1.8625   11.3247   -0.0014 C.1     1  LIG1       -0.1138
     29 H          -1.5591   12.3464   -0.0015 H       1  LIG1        0.1232
     30 S          -5.2694    9.9148   -0.0009 S.3     1  LIG1       -0.1377
     31 H          -6.3933    9.1670   -0.0007 H       1  LIG1        0.1073
     32 C          -5.3421    6.2371   -0.0000 C.ar    1  LIG1        0.1872
     33 C          -6.7356    6.2510   -0.0001 C.ar    1  LIG1        0.0866
     34 C          -7.1449    4.8616    0.0002 C.ar    1  LIG1        0.0587
     35 C          -6.0039    4.1249    0.0005 C.ar    1  LIG1        0.1071
     36 O          -4.9127    4.9432    0.0004 O.2     1  LIG1       -0.4574
     37 H          -5.8020    3.0662    0.0008 H       1  LIG1        0.1041
     38 C          -7.6671    7.3152   -0.0005 C.1     1  LIG1       -0.0647
     39 C          -8.5620    8.1340   -0.0008 C.1     1  LIG1       -0.1138
     40 H          -9.3326    8.8702   -0.0013 H       1  LIG1        0.1232
     41 S          -8.8388    4.3509    0.0003 S.3     1  LIG1       -0.1384
     42 H          -8.5796    3.0283    0.0007 H       1  LIG1        0.1072
@<TRIPOS>BOND
     1    29    28    1
     2    28    27    3
     3    40    39    1
     4     6     1    1
     5    27    23    1
     6     1     5   ar
     7     1     2   ar
     8    30    31    1
     9    30    24    1
    10    39    38    3
    11     5     4   ar
    12     9     8    1
    13     8     7    3
    14     7     2    1
    15     2     3   ar
    16    23    24   ar
    17    23    22   ar
    18    24    25   ar
    19    38    33    1
    20    16    12   ar
    21    16    15   ar
    22     4     3   ar
    23     4    12    1
    24    22    26   ar
    25    22    15    1
    26    25    26   ar
    27    25    32    1
    28    33    32   ar
    29    33    34   ar
    30     3    10    1
    31    32    36   ar
    32    12    13   ar
    33    15    14   ar
    34    34    41    1
    35    34    35   ar
    36    41    42    1
    37    36    35   ar
    38    13    14   ar
    39    13    17    1
    40    14    20    1
    41    10    11    1
    42    35    37    1
    43    17    18    3
    44    21    20    1
    45    18    19    1
