@<TRIPOS>MOLECULE
mol_data/opt/b3lyp/geoms/mol2/12eg12eg12eg12eg-.out
 42 45 0 0 0
SMALL
GASTEIGER

@<TRIPOS>ATOM
      1 C           0.4765    1.7003    0.0420 C.ar    1  LIG1        0.1092
      2 C           1.8062    1.7775   -0.2801 C.ar    1  LIG1        0.0762
      3 C           2.1342    3.1877   -0.2629 C.ar    1  LIG1        0.0691
      4 C           0.9705    3.8455    0.0782 C.ar    1  LIG1        0.1852
      5 O          -0.0407    2.9231    0.2659 O.2     1  LIG1       -0.4574
      6 H          -0.1948    0.8630    0.1496 H       1  LIG1        0.1042
      7 C           2.6760    0.7011   -0.5866 C.1     1  LIG1       -0.0654
      8 C           3.4247   -0.2106   -0.8526 C.1     1  LIG1       -0.1138
      9 H           4.0854   -1.0133   -1.0855 H       1  LIG1        0.1232
     10 S           3.7243    3.7716   -0.7481 S.3     1  LIG1       -0.1377
     11 H           3.6542    4.9744   -0.1393 H       1  LIG1        0.1073
     12 C           0.5762    5.2214    0.2258 C.ar    1  LIG1        0.1882
     13 C           1.2154    6.3717    0.6623 C.ar    1  LIG1        0.0874
     14 C           0.2544    7.4421    0.5422 C.ar    1  LIG1        0.0699
     15 C          -0.9016    6.8673    0.0583 C.ar    1  LIG1        0.1863
     16 O          -0.6972    5.5187   -0.1393 O.2     1  LIG1       -0.4461
     17 C           2.5066    6.4897    1.2276 C.1     1  LIG1       -0.0646
     18 C           3.6041    6.6184    1.7245 C.1     1  LIG1       -0.1138
     19 H           4.5588    6.7235    2.1867 H       1  LIG1        0.1232
     20 S           0.6092    9.0704    1.1177 S.3     1  LIG1       -0.1377
     21 H          -0.3286    9.7103    0.3865 H       1  LIG1        0.1073
     22 C          -2.2328    7.3327   -0.2231 C.ar    1  LIG1        0.1882
     23 C          -2.7635    8.5250   -0.6925 C.ar    1  LIG1        0.0874
     24 C          -4.1954    8.3445   -0.7314 C.ar    1  LIG1        0.0699
     25 C          -4.4320    7.0573   -0.3015 C.ar    1  LIG1        0.1863
     26 O          -3.2368    6.4495    0.0143 O.2     1  LIG1       -0.4461
     27 C          -2.0674    9.6635   -1.1604 C.1     1  LIG1       -0.0646
     28 C          -1.4958   10.6476   -1.5767 C.1     1  LIG1       -0.1138
     29 H          -0.9913   11.5002   -1.9700 H       1  LIG1        0.1232
     30 S          -5.2698    9.5777   -1.3927 S.3     1  LIG1       -0.1377
     31 H          -6.3912    9.1746   -0.7578 H       1  LIG1        0.1073
     32 C          -5.6006    6.2290   -0.1580 C.ar    1  LIG1        0.1872
     33 C          -6.9167    6.4680    0.2071 C.ar    1  LIG1        0.0866
     34 C          -7.5883    5.1890    0.1259 C.ar    1  LIG1        0.0587
     35 C          -6.6416    4.2876   -0.2512 C.ar    1  LIG1        0.1071
     36 O          -5.4355    4.9043   -0.4281 O.2     1  LIG1       -0.4574
     37 H          -6.6595    3.2240   -0.4261 H       1  LIG1        0.1041
     38 C          -7.4968    7.6758    0.6578 C.1     1  LIG1       -0.0647
     39 C          -8.0254    8.6927    1.0524 C.1     1  LIG1       -0.1138
     40 H          -8.4779    9.5814    1.4286 H       1  LIG1        0.1232
     41 S          -9.3034    4.9660    0.4970 S.3     1  LIG1       -0.1384
     42 H          -9.3191    3.6357    0.2817 H       1  LIG1        0.1072
@<TRIPOS>BOND
     1    29    28    1
     2    28    27    3
     3    30    31    1
     4    30    24    1
     5    27    23    1
     6     9     8    1
     7     8     7    3
     8    10     3    1
     9    10    11    1
    10    24    23   ar
    11    24    25   ar
    12    23    22   ar
    13     7     2    1
    14    36    35   ar
    15    36    32   ar
    16    37    35    1
    17    25    32    1
    18    25    26   ar
    19     2     3   ar
    20     2     1   ar
    21     3     4   ar
    22    35    34   ar
    23    22    26   ar
    24    22    15    1
    25    32    33   ar
    26    16    15   ar
    27    16    12   ar
    28     1     6    1
    29     1     5   ar
    30    15    14   ar
    31     4    12    1
    32     4     5   ar
    33    34    33   ar
    34    34    41    1
    35    33    38    1
    36    12    13   ar
    37    42    41    1
    38    21    20    1
    39    14    13   ar
    40    14    20    1
    41    38    39    3
    42    13    17    1
    43    39    40    1
    44    17    18    3
    45    18    19    1
