@<TRIPOS>MOLECULE
mol_data/opt/b3lyp/geoms/mol2/12eg12eg-.out
 22 23 0 0 0
SMALL
GASTEIGER

@<TRIPOS>ATOM
      1 C           0.0977    1.7909    0.0003 C.ar    1  LIG1        0.1092
      2 C           1.4633    1.7039    0.0001 C.ar    1  LIG1        0.0762
      3 C           1.9476    3.0689   -0.0001 C.ar    1  LIG1        0.0691
      4 C           0.8259    3.8761    0.0000 C.ar    1  LIG1        0.1852
      5 O          -0.3029    3.0744    0.0003 O.2     1  LIG1       -0.4574
      6 H          -0.6771    1.0406    0.0005 H       1  LIG1        0.1042
      7 C           2.2494    0.5247    0.0001 C.1     1  LIG1       -0.0654
      8 C           2.9318   -0.4740    0.0000 C.1     1  LIG1       -0.1138
      9 H           3.5325   -1.3538   -0.0001 H       1  LIG1        0.1232
     10 S           3.6790    3.3824   -0.0005 S.3     1  LIG1       -0.1377
     11 H           3.6045    4.7301   -0.0005 H       1  LIG1        0.1073
     12 C           0.5191    5.2874   -0.0001 C.ar    1  LIG1        0.1872
     13 C           1.2234    6.4880   -0.0000 C.ar    1  LIG1        0.0866
     14 C           0.2214    7.5350   -0.0002 C.ar    1  LIG1        0.0587
     15 C          -0.9851    6.9123   -0.0004 C.ar    1  LIG1        0.1071
     16 O          -0.8171    5.5577   -0.0003 O.2     1  LIG1       -0.4574
     17 H          -2.0042    7.2634   -0.0006 H       1  LIG1        0.1041
     18 C           2.6107    6.7652    0.0003 C.1     1  LIG1       -0.0647
     19 C           3.7667    7.1320    0.0006 C.1     1  LIG1       -0.1138
     20 H           4.7893    7.4324    0.0007 H       1  LIG1        0.1232
     21 S           0.6207    9.2591   -0.0002 S.3     1  LIG1       -0.1384
     22 H          -0.6560    9.6911   -0.0004 H       1  LIG1        0.1072
@<TRIPOS>BOND
     1    17    15    1
     2    11    10    1
     3    10     3    1
     4    22    21    1
     5    15    16   ar
     6    15    14   ar
     7    16    12   ar
     8    21    14    1
     9    14    13   ar
    10     9     8    1
    11     3     4   ar
    12     3     2   ar
    13    12    13   ar
    14    12     4    1
    15    13    18    1
    16     4     5   ar
    17     8     7    3
    18     7     2    1
    19     2     1   ar
    20     5     1   ar
    21     1     6    1
    22    18    19    3
    23    19    20    1
