@<TRIPOS>MOLECULE
mol_data/opt/b3lyp/geoms/mol2/12eg12eg12eg-12eg-.out
 42 45 0 0 0
SMALL
GASTEIGER

@<TRIPOS>ATOM
      1 C           0.5716    2.1497    1.7327 C.ar    1  LIG1        0.1092
      2 C           1.6262    1.8435    0.9131 C.ar    1  LIG1        0.0762
      3 C           1.8798    3.0381    0.1349 C.ar    1  LIG1        0.0691
      4 C           0.9572    3.9717    0.5581 C.ar    1  LIG1        0.1852
      5 O           0.1604    3.4177    1.5414 O.2     1  LIG1       -0.4574
      6 H           0.0427    1.5759    2.4773 H       1  LIG1        0.1042
      7 C           2.3140    0.6070    0.8295 C.1     1  LIG1       -0.0654
      8 C           2.9048   -0.4452    0.7485 C.1     1  LIG1       -0.1138
      9 H           3.4270   -1.3712    0.6781 H       1  LIG1        0.1232
     10 S           3.0798    3.0624   -1.1553 S.3     1  LIG1       -0.1377
     11 H           3.2398    4.4020   -1.2098 H       1  LIG1        0.1073
     12 C           0.6178    5.3200    0.1851 C.ar    1  LIG1        0.1882
     13 C           1.3445    6.4191   -0.2458 C.ar    1  LIG1        0.0874
     14 C           0.3865    7.4752   -0.4751 C.ar    1  LIG1        0.0699
     15 C          -0.8445    6.9573   -0.1346 C.ar    1  LIG1        0.1863
     16 O          -0.6972    5.6468    0.2663 O.2     1  LIG1       -0.4461
     17 C           2.7477    6.5387   -0.3766 C.1     1  LIG1       -0.0646
     18 C           3.9469    6.6679   -0.4929 C.1     1  LIG1       -0.1138
     19 H           5.0033    6.7896   -0.5644 H       1  LIG1        0.1232
     20 S           0.8639    9.0219   -1.1728 S.3     1  LIG1       -0.1377
     21 H          -0.1807    9.7424   -0.7104 H       1  LIG1        0.1073
     22 C          -2.1991    7.4414   -0.1525 C.ar    1  LIG1        0.1882
     23 C          -2.7929    8.6741    0.0724 C.ar    1  LIG1        0.0874
     24 C          -4.2100    8.4855   -0.1331 C.ar    1  LIG1        0.0699
     25 C          -4.3803    7.1514   -0.4306 C.ar    1  LIG1        0.1863
     26 O          -3.1562    6.5208   -0.4385 O.2     1  LIG1       -0.4461
     27 C          -2.1753    9.8747    0.4932 C.1     1  LIG1       -0.0646
     28 C          -1.6712   10.9143    0.8587 C.1     1  LIG1       -0.1138
     29 H          -1.2322   11.8194    1.2110 H       1  LIG1        0.1232
     30 S          -5.3462    9.8339   -0.0895 S.3     1  LIG1       -0.1377
     31 H          -6.4444    9.1164    0.2320 H       1  LIG1        0.1073
     32 C          -5.5044    6.3153   -0.7634 C.ar    1  LIG1        0.1872
     33 C          -6.8325    6.2754   -0.3680 C.ar    1  LIG1        0.0866
     34 C          -7.4350    5.1902   -1.1113 C.ar    1  LIG1        0.0587
     35 C          -6.4399    4.6514   -1.8670 C.ar    1  LIG1        0.1071
     36 O          -5.2684    5.3243   -1.6677 O.2     1  LIG1       -0.4574
     37 H          -6.4003    3.8270   -2.5606 H       1  LIG1        0.1041
     38 C          -7.4781    7.0537    0.6201 C.1     1  LIG1       -0.0647
     39 C          -8.0627    7.6974    1.4646 C.1     1  LIG1       -0.1138
     40 H          -8.5647    8.2446    2.2291 H       1  LIG1        0.1232
     41 S          -9.1367    4.7328   -0.9578 S.3     1  LIG1       -0.1384
     42 H          -9.0824    3.7056   -1.8284 H       1  LIG1        0.1072
@<TRIPOS>BOND
     1    37    35    1
     2    35    36   ar
     3    35    34   ar
     4    42    41    1
     5    36    32   ar
     6    11    10    1
     7    20    21    1
     8    20    14    1
     9    10     3    1
    10    34    41    1
    11    34    33   ar
    12    32    25    1
    13    32    33   ar
    14    19    18    1
    15    18    17    3
    16    14    13   ar
    17    14    15   ar
    18    26    25   ar
    19    26    22   ar
    20    25    24   ar
    21    17    13    1
    22    33    38    1
    23    13    12   ar
    24    22    15    1
    25    22    23   ar
    26    15    16   ar
    27    24    30    1
    28    24    23   ar
    29    30    31    1
    30    23    27    1
    31     3     4   ar
    32     3     2   ar
    33    12    16   ar
    34    12     4    1
    35    27    28    3
    36     4     5   ar
    37    38    39    3
    38     9     8    1
    39     8     7    3
    40     7     2    1
    41    28    29    1
    42     2     1   ar
    43    39    40    1
    44     5     1   ar
    45     1     6    1
