@<TRIPOS>MOLECULE
mol_data/opt/b3lyp/geoms/mol2/12eg12eg.out
 22 23 0 0 0
SMALL
GASTEIGER

@<TRIPOS>ATOM
      1 C           0.2527    1.8265    0.5991 C.ar    1  LIG1        0.1092
      2 C           1.5180    1.7642    0.0774 C.ar    1  LIG1        0.0762
      3 C           1.8705    3.1273   -0.2634 C.ar    1  LIG1        0.0691
      4 C           0.7871    3.9015    0.0903 C.ar    1  LIG1        0.1852
      5 O          -0.1999    3.0957    0.6236 O.2     1  LIG1       -0.4574
      6 H          -0.4109    1.0678    0.9829 H       1  LIG1        0.1042
      7 C           2.3094    0.6031   -0.1090 C.1     1  LIG1       -0.0654
      8 C           2.9898   -0.3829   -0.2746 C.1     1  LIG1       -0.1138
      9 H           3.5908   -1.2506   -0.4194 H       1  LIG1        0.1232
     10 S           3.3775    3.5211   -1.0910 S.3     1  LIG1       -0.1377
     11 H           3.4454    4.8140   -0.7084 H       1  LIG1        0.1073
     12 C           0.4533    5.2996   -0.0086 C.ar    1  LIG1        0.1872
     13 C           1.1755    6.4767    0.1044 C.ar    1  LIG1        0.0866
     14 C           0.2302    7.5466   -0.1334 C.ar    1  LIG1        0.0587
     15 C          -0.9731    6.9486   -0.3441 C.ar    1  LIG1        0.1071
     16 O          -0.8512    5.5890   -0.2751 O.2     1  LIG1       -0.4574
     17 H          -1.9632    7.3258   -0.5431 H       1  LIG1        0.1041
     18 C           2.5334    6.6412    0.4622 C.1     1  LIG1       -0.0647
     19 C           3.6921    6.8185    0.7704 C.1     1  LIG1       -0.1138
     20 H           4.7035    6.9694    1.0706 H       1  LIG1        0.1232
     21 S           0.6713    9.2595   -0.1001 S.3     1  LIG1       -0.1384
     22 H          -0.5628    9.7251   -0.3771 H       1  LIG1        0.1072
@<TRIPOS>BOND
     1    10    11    1
     2    10     3    1
     3    17    15    1
     4     9     8    1
     5    22    21    1
     6    15    16   ar
     7    15    14   ar
     8    16    12   ar
     9     8     7    3
    10     3     2   ar
    11     3     4   ar
    12    14    21    1
    13    14    13   ar
    14     7     2    1
    15    12     4    1
    16    12    13   ar
    17     2     1   ar
    18     4     5   ar
    19    13    18    1
    20    18    19    3
    21     1     5   ar
    22     1     6    1
    23    19    20    1
