@<TRIPOS>MOLECULE
mol_data/opt/b3lyp/geoms/mol2/12eg12eg12eg-12eg.out
 42 45 0 0 0
SMALL
GASTEIGER

@<TRIPOS>ATOM
      1 C           0.5682    2.1440    1.7296 C.ar    1  LIG1        0.1092
      2 C           1.6239    1.8397    0.9108 C.ar    1  LIG1        0.0762
      3 C           1.8790    3.0363    0.1362 C.ar    1  LIG1        0.0691
      4 C           0.9559    3.9690    0.5605 C.ar    1  LIG1        0.1852
      5 O           0.1575    3.4125    1.5411 O.2     1  LIG1       -0.4574
      6 H           0.0381    1.5683    2.4719 H       1  LIG1        0.1042
      7 C           2.3116    0.6032    0.8250 C.1     1  LIG1       -0.0654
      8 C           2.9024   -0.4488    0.7420 C.1     1  LIG1       -0.1138
      9 H           3.4244   -1.3747    0.6699 H       1  LIG1        0.1232
     10 S           3.0810    3.0637   -1.1521 S.3     1  LIG1       -0.1377
     11 H           3.2408    4.4034   -1.2034 H       1  LIG1        0.1073
     12 C           0.6173    5.3183    0.1905 C.ar    1  LIG1        0.1882
     13 C           1.3449    6.4185   -0.2365 C.ar    1  LIG1        0.0874
     14 C           0.3875    7.4754   -0.4642 C.ar    1  LIG1        0.0699
     15 C          -0.8441    6.9569   -0.1267 C.ar    1  LIG1        0.1863
     16 O          -0.6977    5.6452    0.2709 O.2     1  LIG1       -0.4461
     17 C           2.7483    6.5380   -0.3651 C.1     1  LIG1       -0.0646
     18 C           3.9476    6.6673   -0.4795 C.1     1  LIG1       -0.1138
     19 H           5.0041    6.7889   -0.5495 H       1  LIG1        0.1232
     20 S           0.8660    9.0239   -1.1573 S.3     1  LIG1       -0.1377
     21 H          -0.1786    9.7435   -0.6935 H       1  LIG1        0.1073
     22 C          -2.1986    7.4415   -0.1452 C.ar    1  LIG1        0.1882
     23 C          -2.7922    8.6737    0.0825 C.ar    1  LIG1        0.0874
     24 C          -4.2091    8.4863   -0.1256 C.ar    1  LIG1        0.0699
     25 C          -4.3795    7.1532   -0.4275 C.ar    1  LIG1        0.1863
     26 O          -3.1556    6.5221   -0.4354 O.2     1  LIG1       -0.4461
     27 C          -2.1747    9.8727    0.5080 C.1     1  LIG1       -0.0646
     28 C          -1.6706   10.9109    0.8773 C.1     1  LIG1       -0.1138
     29 H          -1.2317   11.8147    1.2330 H       1  LIG1        0.1232
     30 S          -5.3448    9.8350   -0.0797 S.3     1  LIG1       -0.1377
     31 H          -6.4438    9.1171    0.2381 H       1  LIG1        0.1073
     32 C          -5.5035    6.3186   -0.7645 C.ar    1  LIG1        0.1872
     33 C          -6.8322    6.2782   -0.3713 C.ar    1  LIG1        0.0866
     34 C          -7.4340    5.1954   -1.1188 C.ar    1  LIG1        0.0587
     35 C          -6.4381    4.6585   -1.8745 C.ar    1  LIG1        0.1071
     36 O          -5.2665    5.3302   -1.6714 O.2     1  LIG1       -0.4574
     37 H          -6.3978    3.8361   -2.5705 H       1  LIG1        0.1041
     38 C          -7.4790    7.0538    0.6182 C.1     1  LIG1       -0.0647
     39 C          -8.0645    7.6952    1.4637 C.1     1  LIG1       -0.1138
     40 H          -8.5675    8.2404    2.2291 H       1  LIG1        0.1232
     41 S          -9.1361    4.7385   -0.9693 S.3     1  LIG1       -0.1384
     42 H          -9.0809    3.7133   -1.8423 H       1  LIG1        0.1072
@<TRIPOS>BOND
     1    37    35    1
     2    35    36   ar
     3    35    34   ar
     4    42    41    1
     5    36    32   ar
     6    11    10    1
     7    20    21    1
     8    20    14    1
     9    10     3    1
    10    34    41    1
    11    34    33   ar
    12    32    25    1
    13    32    33   ar
    14    19    18    1
    15    18    17    3
    16    14    13   ar
    17    14    15   ar
    18    26    25   ar
    19    26    22   ar
    20    25    24   ar
    21    33    38    1
    22    17    13    1
    23    13    12   ar
    24    22    15    1
    25    22    23   ar
    26    15    16   ar
    27    24    30    1
    28    24    23   ar
    29    30    31    1
    30    23    27    1
    31     3     4   ar
    32     3     2   ar
    33    12    16   ar
    34    12     4    1
    35    27    28    3
    36     4     5   ar
    37    38    39    3
    38     9     8    1
    39     8     7    3
    40     7     2    1
    41    28    29    1
    42     2     1   ar
    43    39    40    1
    44     5     1   ar
    45     1     6    1
