@<TRIPOS>MOLECULE
mol_data/opt/b3lyp/geoms/mol2/12eg12eg12eg12eg.out
 42 45 0 0 0
SMALL
GASTEIGER

@<TRIPOS>ATOM
      1 C           0.4722    1.6969    0.0388 C.ar    1  LIG1        0.1092
      2 C           1.8028    1.7740   -0.2795 C.ar    1  LIG1        0.0762
      3 C           2.1319    3.1839   -0.2565 C.ar    1  LIG1        0.0691
      4 C           0.9679    3.8415    0.0835 C.ar    1  LIG1        0.1852
      5 O          -0.0446    2.9194    0.2654 O.2     1  LIG1       -0.4574
      6 H          -0.2002    0.8598    0.1417 H       1  LIG1        0.1042
      7 C           2.6724    0.6979   -0.5872 C.1     1  LIG1       -0.0654
      8 C           3.4210   -0.2137   -0.8542 C.1     1  LIG1       -0.1138
      9 H           4.0815   -1.0163   -1.0878 H       1  LIG1        0.1232
     10 S           3.7238    3.7682   -0.7356 S.3     1  LIG1       -0.1377
     11 H           3.6536    4.9684   -0.1215 H       1  LIG1        0.1073
     12 C           0.5745    5.2173    0.2347 C.ar    1  LIG1        0.1882
     13 C           1.2136    6.3653    0.6774 C.ar    1  LIG1        0.0874
     14 C           0.2542    7.4372    0.5580 C.ar    1  LIG1        0.0699
     15 C          -0.9009    6.8654    0.0683 C.ar    1  LIG1        0.1863
     16 O          -0.6973    5.5173   -0.1334 O.2     1  LIG1       -0.4461
     17 C           2.5031    6.4797    1.2472 C.1     1  LIG1       -0.0646
     18 C           3.5992    6.6053    1.7481 C.1     1  LIG1       -0.1138
     19 H           4.5524    6.7075    2.2138 H       1  LIG1        0.1232
     20 S           0.6090    9.0630    1.1403 S.3     1  LIG1       -0.1377
     21 H          -0.3261    9.7065    0.4088 H       1  LIG1        0.1073
     22 C          -2.2306    7.3335   -0.2157 C.ar    1  LIG1        0.1882
     23 C          -2.7582    8.5279   -0.6831 C.ar    1  LIG1        0.0874
     24 C          -4.1902    8.3495   -0.7272 C.ar    1  LIG1        0.0699
     25 C          -4.4299    7.0612   -0.3021 C.ar    1  LIG1        0.1863
     26 O          -3.2365    6.4508    0.0158 O.2     1  LIG1       -0.4461
     27 C          -2.0590    9.6669   -1.1450 C.1     1  LIG1       -0.0646
     28 C          -1.4846   10.6515   -1.5563 C.1     1  LIG1       -0.1138
     29 H          -0.9774   11.5046   -1.9450 H       1  LIG1        0.1232
     30 S          -5.2605    9.5861   -1.3884 S.3     1  LIG1       -0.1377
     31 H          -6.3850    9.1820   -0.7595 H       1  LIG1        0.1073
     32 C          -5.6001    6.2341   -0.1647 C.ar    1  LIG1        0.1872
     33 C          -6.9171    6.4737    0.1964 C.ar    1  LIG1        0.0866
     34 C          -7.5900    5.1957    0.1097 C.ar    1  LIG1        0.0587
     35 C          -6.6430    4.2941   -0.2662 C.ar    1  LIG1        0.1071
     36 O          -5.4355    4.9098   -0.4373 O.2     1  LIG1       -0.4574
     37 H          -6.6614    3.2309   -0.4436 H       1  LIG1        0.1041
     38 C          -7.4974    7.6810    0.6480 C.1     1  LIG1       -0.0647
     39 C          -8.0263    8.6975    1.0433 C.1     1  LIG1       -0.1138
     40 H          -8.4792    9.5858    1.4199 H       1  LIG1        0.1232
     41 S          -9.3066    4.9738    0.4741 S.3     1  LIG1       -0.1384
     42 H          -9.3224    3.6435    0.2591 H       1  LIG1        0.1072
@<TRIPOS>BOND
     1    29    28    1
     2    28    27    3
     3    30    31    1
     4    30    24    1
     5    27    23    1
     6     9     8    1
     7     8     7    3
     8    10     3    1
     9    10    11    1
    10    24    23   ar
    11    24    25   ar
    12    23    22   ar
    13     7     2    1
    14    37    35    1
    15    36    35   ar
    16    36    32   ar
    17    25    32    1
    18    25    26   ar
    19     2     3   ar
    20     2     1   ar
    21    35    34   ar
    22     3     4   ar
    23    22    26   ar
    24    22    15    1
    25    32    33   ar
    26    16    15   ar
    27    16    12   ar
    28     1     6    1
    29     1     5   ar
    30    15    14   ar
    31     4    12    1
    32     4     5   ar
    33    34    33   ar
    34    34    41    1
    35    33    38    1
    36    12    13   ar
    37    42    41    1
    38    21    20    1
    39    14    13   ar
    40    14    20    1
    41    38    39    3
    42    13    17    1
    43    39    40    1
    44    17    18    3
    45    18    19    1
