@<TRIPOS>MOLECULE
mol_data/opt/b3lyp/geoms/mol2/12eg12eg-12eg12eg.out
 42 45 0 0 0
SMALL
GASTEIGER

@<TRIPOS>ATOM
      1 C           0.4699    1.6952    0.0408 C.ar    1  LIG1        0.1092
      2 C           1.7965    1.7714   -0.2943 C.ar    1  LIG1        0.0762
      3 C           2.1268    3.1810   -0.2763 C.ar    1  LIG1        0.0691
      4 C           0.9675    3.8395    0.0780 C.ar    1  LIG1        0.1852
      5 O          -0.0432    2.9182    0.2731 O.2     1  LIG1       -0.4574
      6 H          -0.2016    0.8586    0.1526 H       1  LIG1        0.1042
      7 C           2.6615    0.6945   -0.6123 C.1     1  LIG1       -0.0654
      8 C           3.4061   -0.2177   -0.8882 C.1     1  LIG1       -0.1138
      9 H           4.0631   -1.0208   -1.1298 H       1  LIG1        0.1232
     10 S           3.7129    3.7641   -0.7757 S.3     1  LIG1       -0.1377
     11 H           3.6512    4.9646   -0.1614 H       1  LIG1        0.1073
     12 C           0.5770    5.2157    0.2332 C.ar    1  LIG1        0.1882
     13 C           1.2223    6.3635    0.6674 C.ar    1  LIG1        0.0874
     14 C           0.2623    7.4360    0.5593 C.ar    1  LIG1        0.0699
     15 C          -0.8992    6.8648    0.0843 C.ar    1  LIG1        0.1863
     16 O          -0.6991    5.5165   -0.1192 O.2     1  LIG1       -0.4461
     17 C           2.5188    6.4773    1.2210 C.1     1  LIG1       -0.0646
     18 C           3.6212    6.6023    1.7083 C.1     1  LIG1       -0.1138
     19 H           4.5802    6.7041    2.1620 H       1  LIG1        0.1232
     20 S           0.6255    9.0618    1.1363 S.3     1  LIG1       -0.1377
     21 H          -0.3186    9.7055    0.4168 H       1  LIG1        0.1073
     22 C          -2.2320    7.3336   -0.1834 C.ar    1  LIG1        0.1882
     23 C          -2.7647    8.5282   -0.6444 C.ar    1  LIG1        0.0874
     24 C          -4.1973    8.3508   -0.6706 C.ar    1  LIG1        0.0699
     25 C          -4.4325    7.0628   -0.2422 C.ar    1  LIG1        0.1863
     26 O          -3.2356    6.4517    0.0609 O.2     1  LIG1       -0.4461
     27 C          -2.0706    9.6667   -1.1155 C.1     1  LIG1       -0.0646
     28 C          -1.5008   10.6508   -1.5343 C.1     1  LIG1       -0.1138
     29 H          -0.9981   11.5035   -1.9296 H       1  LIG1        0.1232
     30 S          -5.2750    9.5879   -1.3186 S.3     1  LIG1       -0.1377
     31 H          -6.3917    9.1846   -0.6755 H       1  LIG1        0.1073
     32 C          -5.6013    6.2364   -0.0900 C.ar    1  LIG1        0.1872
     33 C          -6.9136    6.4769    0.2874 C.ar    1  LIG1        0.0866
     34 C          -7.5884    5.1994    0.2092 C.ar    1  LIG1        0.0587
     35 C          -6.6468    4.2971   -0.1784 C.ar    1  LIG1        0.1071
     36 O          -5.4411    4.9120   -0.3646 O.2     1  LIG1       -0.4574
     37 H          -6.6682    3.2340   -0.3556 H       1  LIG1        0.1041
     38 C          -7.4875    7.6847    0.7461 C.1     1  LIG1       -0.0647
     39 C          -8.0108    8.7016    1.1479 C.1     1  LIG1       -0.1138
     40 H          -8.4583    9.5901    1.5301 H       1  LIG1        0.1232
     41 S          -9.3005    4.9787    0.5951 S.3     1  LIG1       -0.1384
     42 H          -9.3202    3.6486    0.3791 H       1  LIG1        0.1072
@<TRIPOS>BOND
     1    29    28    1
     2    28    27    3
     3    30    31    1
     4    30    24    1
     5     9     8    1
     6    27    23    1
     7     8     7    3
     8    10     3    1
     9    10    11    1
    10    24    23   ar
    11    24    25   ar
    12    23    22   ar
    13     7     2    1
    14    36    35   ar
    15    36    32   ar
    16    37    35    1
    17     2     3   ar
    18     2     1   ar
    19     3     4   ar
    20    25    32    1
    21    25    26   ar
    22    22    26   ar
    23    22    15    1
    24    35    34   ar
    25    16    15   ar
    26    16    12   ar
    27    32    33   ar
    28     1     6    1
    29     1     5   ar
    30     4    12    1
    31     4     5   ar
    32    15    14   ar
    33    34    33   ar
    34    34    41    1
    35    12    13   ar
    36    33    38    1
    37    42    41    1
    38    21    20    1
    39    14    13   ar
    40    14    20    1
    41    13    17    1
    42    38    39    3
    43    39    40    1
    44    17    18    3
    45    18    19    1
