@<TRIPOS>MOLECULE
mol_data/opt/b3lyp/geoms/mol2/12eg12eg-12eg.out
 32 34 0 0 0
SMALL
GASTEIGER

@<TRIPOS>ATOM
      1 C           0.0699    1.8220    0.0005 C.ar    1  LIG1        0.1092
      2 C           1.4303    1.6697    0.0002 C.ar    1  LIG1        0.0762
      3 C           1.9792    3.0090   -0.0001 C.ar    1  LIG1        0.0691
      4 C           0.8957    3.8698    0.0001 C.ar    1  LIG1        0.1852
      5 O          -0.2697    3.1218    0.0005 O.2     1  LIG1       -0.4574
      6 H          -0.7394    1.1090    0.0008 H       1  LIG1        0.1042
      7 C           2.1591    0.4542    0.0001 C.1     1  LIG1       -0.0654
      8 C           2.7930   -0.5758    0.0001 C.1     1  LIG1       -0.1138
      9 H           3.3507   -1.4836   -0.0000 H       1  LIG1        0.1232
     10 S           3.7229    3.2364   -0.0007 S.3     1  LIG1       -0.1377
     11 H           3.7149    4.5861   -0.0008 H       1  LIG1        0.1073
     12 C           0.6546    5.2913   -0.0000 C.ar    1  LIG1        0.1882
     13 C           1.4118    6.4582   -0.0001 C.ar    1  LIG1        0.0874
     14 C           0.4718    7.5558   -0.0002 C.ar    1  LIG1        0.0699
     15 C          -0.7886    6.9948   -0.0002 C.ar    1  LIG1        0.1863
     16 O          -0.6603    5.6220   -0.0001 O.2     1  LIG1       -0.4461
     17 C           2.8120    6.6619    0.0001 C.1     1  LIG1       -0.0646
     18 C           3.9868    6.9623    0.0002 C.1     1  LIG1       -0.1138
     19 H           5.0240    7.2077    0.0004 H       1  LIG1        0.1232
     20 S           1.0607    9.2148   -0.0004 S.3     1  LIG1       -0.1377
     21 H          -0.1489    9.8138   -0.0004 H       1  LIG1        0.1073
     22 C          -2.1612    7.4370   -0.0003 C.ar    1  LIG1        0.1872
     23 C          -2.8480    8.6493   -0.0002 C.ar    1  LIG1        0.0866
     24 C          -4.2554    8.3065   -0.0004 C.ar    1  LIG1        0.0587
     25 C          -4.3208    6.9500   -0.0006 C.ar    1  LIG1        0.1071
     26 O          -3.0652    6.4164   -0.0005 O.2     1  LIG1       -0.4574
     27 H          -5.1354    6.2440   -0.0008 H       1  LIG1        0.1041
     28 C          -2.3936    9.9885    0.0001 C.1     1  LIG1       -0.0647
     29 C          -2.1325   11.1731    0.0004 C.1     1  LIG1       -0.1138
     30 H          -1.8808   12.2087    0.0007 H       1  LIG1        0.1232
     31 S          -5.5472    9.5156   -0.0004 S.3     1  LIG1       -0.1384
     32 H          -6.5608    8.6273   -0.0006 H       1  LIG1        0.1072
@<TRIPOS>BOND
     1    11    10    1
     2    27    25    1
     3    10     3    1
     4    32    31    1
     5    25    26   ar
     6    25    24   ar
     7    26    22   ar
     8    21    20    1
     9    24    31    1
    10    24    23   ar
    11    20    14    1
    12    22    15    1
    13    22    23   ar
    14    14    15   ar
    15    14    13   ar
    16    15    16   ar
    17    23    28    1
    18     3     4   ar
    19     3     2   ar
    20    16    12   ar
    21    13    12   ar
    22    13    17    1
    23     9     8    1
    24    12     4    1
    25     8     7    3
    26    17    18    3
    27     4     5   ar
    28     7     2    1
    29    28    29    3
    30     2     1   ar
    31    18    19    1
    32    29    30    1
    33     5     1   ar
    34     1     6    1
