@<TRIPOS>MOLECULE
mol_data/opt/b3lyp/geoms/mol2/12eg12eg12eg.out
 32 34 0 0 0
SMALL
GASTEIGER

@<TRIPOS>ATOM
      1 C           0.3385    1.7385    0.3859 C.ar    1  LIG1        0.1092
      2 C           1.5809    1.7532   -0.1920 C.ar    1  LIG1        0.0762
      3 C           1.9255    3.1509   -0.3489 C.ar    1  LIG1        0.0691
      4 C           0.8603    3.8653    0.1579 C.ar    1  LIG1        0.1852
      5 O          -0.1079    2.9894    0.6093 O.2     1  LIG1       -0.4574
      6 H          -0.3110    0.9314    0.6859 H       1  LIG1        0.1042
      7 C           2.3590    0.6322   -0.5753 C.1     1  LIG1       -0.0654
      8 C           3.0287   -0.3181   -0.9086 C.1     1  LIG1       -0.1138
      9 H           3.6199   -1.1549   -1.2008 H       1  LIG1        0.1232
     10 S           3.3970    3.6537   -1.1786 S.3     1  LIG1       -0.1377
     11 H           3.4726    4.8939   -0.6503 H       1  LIG1        0.1073
     12 C           0.5254    5.2603    0.2727 C.ar    1  LIG1        0.1882
     13 C           1.2560    6.4160    0.4997 C.ar    1  LIG1        0.0874
     14 C           0.3092    7.5062    0.4801 C.ar    1  LIG1        0.0699
     15 C          -0.9260    6.9380    0.2595 C.ar    1  LIG1        0.1863
     16 O          -0.7879    5.5736    0.1245 O.2     1  LIG1       -0.4461
     17 C           2.6321    6.5285    0.8064 C.1     1  LIG1       -0.0646
     18 C           3.8061    6.6516    1.0801 C.1     1  LIG1       -0.1138
     19 H           4.8324    6.7542    1.3484 H       1  LIG1        0.1232
     20 S           0.7907    9.1609    0.8570 S.3     1  LIG1       -0.1377
     21 H          -0.2412    9.7761    0.2407 H       1  LIG1        0.1073
     22 C          -2.2772    7.4291    0.1861 C.ar    1  LIG1        0.1872
     23 C          -2.8596    8.5937   -0.2903 C.ar    1  LIG1        0.0866
     24 C          -4.2782    8.4581   -0.0395 C.ar    1  LIG1        0.0587
     25 C          -4.4460    7.2370    0.5359 C.ar    1  LIG1        0.1071
     26 O          -3.2431    6.6051    0.6797 O.2     1  LIG1       -0.4574
     27 H          -5.3105    6.6935    0.8817 H       1  LIG1        0.1041
     28 C          -2.2427    9.6708   -0.9669 C.1     1  LIG1       -0.0647
     29 C          -1.7482   10.6089   -1.5541 C.1     1  LIG1       -0.1138
     30 H          -1.3135   11.4164   -2.0972 H       1  LIG1        0.1232
     31 S          -5.4647    9.6975   -0.4696 S.3     1  LIG1       -0.1384
     32 H          -6.5434    9.0071   -0.0500 H       1  LIG1        0.1072
@<TRIPOS>BOND
     1    30    29    1
     2    29    28    3
     3     9     8    1
     4    10    11    1
     5    10     3    1
     6    28    23    1
     7     8     7    3
     8     7     2    1
     9    31    32    1
    10    31    24    1
    11     3     2   ar
    12     3     4   ar
    13    23    24   ar
    14    23    22   ar
    15     2     1   ar
    16    24    25   ar
    17    16    15   ar
    18    16    12   ar
    19     4    12    1
    20     4     5   ar
    21    22    15    1
    22    22    26   ar
    23    21    20    1
    24    15    14   ar
    25    12    13   ar
    26     1     5   ar
    27     1     6    1
    28    14    13   ar
    29    14    20    1
    30    13    17    1
    31    25    26   ar
    32    25    27    1
    33    17    18    3
    34    18    19    1
