@<TRIPOS>MOLECULE
mol_data/opt/b3lyp/geoms/mol2/12eg12eg-12eg-12eg-.out
 42 45 0 0 0
SMALL
GASTEIGER

@<TRIPOS>ATOM
      1 C           0.4762    1.6987   -0.0558 C.ar    1  LIG1        0.1092
      2 C           1.7969    1.7726    0.3020 C.ar    1  LIG1        0.0762
      3 C           2.1253    3.1828    0.3058 C.ar    1  LIG1        0.0691
      4 C           0.9710    3.8439   -0.0599 C.ar    1  LIG1        0.1852
      5 O          -0.0349    2.9236   -0.2824 O.2     1  LIG1       -0.4574
      6 H          -0.1922    0.8625   -0.1884 H       1  LIG1        0.1042
      7 C           2.6581    0.6933    0.6218 C.1     1  LIG1       -0.0654
      8 C           3.3994   -0.2211    0.8994 C.1     1  LIG1       -0.1138
      9 H           4.0534   -1.0262    1.1425 H       1  LIG1        0.1232
     10 S           3.7020    3.7624    0.8384 S.3     1  LIG1       -0.1377
     11 H           3.6495    4.9690    0.2353 H       1  LIG1        0.1073
     12 C           0.5812    5.2213   -0.2058 C.ar    1  LIG1        0.1882
     13 C           1.2320    6.3747   -0.6161 C.ar    1  LIG1        0.0874
     14 C           0.2689    7.4448   -0.5115 C.ar    1  LIG1        0.0699
     15 C          -0.8995    6.8669   -0.0622 C.ar    1  LIG1        0.1863
     16 O          -0.7010    5.5165    0.1290 O.2     1  LIG1       -0.4461
     17 C           2.5373    6.4962   -1.1471 C.1     1  LIG1       -0.0646
     18 C           3.6473    6.6281   -1.6148 C.1     1  LIG1       -0.1138
     19 H           4.6135    6.7362   -2.0515 H       1  LIG1        0.1232
     20 S           0.6396    9.0776   -1.0636 S.3     1  LIG1       -0.1377
     21 H          -0.3182    9.7117   -0.3537 H       1  LIG1        0.1073
     22 C          -2.2372    7.3310    0.1885 C.ar    1  LIG1        0.1882
     23 C          -2.7791    8.5196    0.6543 C.ar    1  LIG1        0.0874
     24 C          -4.2117    8.3401    0.6545 C.ar    1  LIG1        0.0699
     25 C          -4.4379    7.0568    0.2077 C.ar    1  LIG1        0.1863
     26 O          -3.2353    6.4507   -0.0826 O.2     1  LIG1       -0.4461
     27 C          -2.0944    9.6534    1.1495 C.1     1  LIG1       -0.0646
     28 C          -1.5327   10.6333    1.5886 C.1     1  LIG1       -0.1138
     29 H          -1.0375   11.4820    2.0017 H       1  LIG1        0.1232
     30 S          -5.3020    9.5679    1.2994 S.3     1  LIG1       -0.1377
     31 H          -6.4061    9.1740    0.6293 H       1  LIG1        0.1073
     32 C          -5.6029    6.2310    0.0261 C.ar    1  LIG1        0.1872
     33 C          -6.9091    6.4746   -0.3702 C.ar    1  LIG1        0.0866
     34 C          -7.5834    5.1955   -0.3185 C.ar    1  LIG1        0.0587
     35 C          -6.6473    4.2897    0.0741 C.ar    1  LIG1        0.1071
     36 O          -5.4457    4.9036    0.2876 O.2     1  LIG1       -0.4574
     37 H          -6.6703    3.2245    0.2383 H       1  LIG1        0.1041
     38 C          -7.4767    7.6870   -0.8245 C.1     1  LIG1       -0.0647
     39 C          -7.9945    8.7078   -1.2234 C.1     1  LIG1       -0.1138
     40 H          -8.4370    9.6001   -1.6028 H       1  LIG1        0.1232
     41 S          -9.2885    4.9776   -0.7355 S.3     1  LIG1       -0.1384
     42 H          -9.3098    3.6448   -0.5370 H       1  LIG1        0.1072
@<TRIPOS>BOND
     1    19    18    1
     2    18    17    3
     3    40    39    1
     4    39    38    3
     5    17    13    1
     6    20    14    1
     7    20    21    1
     8    38    33    1
     9    41    42    1
    10    41    34    1
    11    13    14   ar
    12    13    12   ar
    13    14    15   ar
    14    33    34   ar
    15    33    32   ar
    16    34    35   ar
    17     5     4   ar
    18     5     1   ar
    19    12     4    1
    20    12    16   ar
    21     6     1    1
    22    26    22   ar
    23    26    25   ar
    24    15    16   ar
    25    15    22    1
    26     4     3   ar
    27     1     2   ar
    28    32    25    1
    29    32    36   ar
    30    35    37    1
    31    35    36   ar
    32    22    23   ar
    33    25    24   ar
    34    11    10    1
    35     2     3   ar
    36     2     7    1
    37     3    10    1
    38     7     8    3
    39    31    30    1
    40    23    24   ar
    41    23    27    1
    42    24    30    1
    43     8     9    1
    44    27    28    3
    45    28    29    1
