@<TRIPOS>MOLECULE
mol_data/opt/b3lyp/geoms/mol2/12eg12eg-12eg-.out
 32 34 0 0 0
SMALL
GASTEIGER

@<TRIPOS>ATOM
      1 C           0.3485    1.7418   -0.4153 C.ar    1  LIG1        0.1092
      2 C           1.5858    1.7551    0.1733 C.ar    1  LIG1        0.0762
      3 C           1.9269    3.1525    0.3411 C.ar    1  LIG1        0.0691
      4 C           0.8649    3.8681   -0.1707 C.ar    1  LIG1        0.1852
      5 O          -0.0980    2.9933   -0.6354 O.2     1  LIG1       -0.4574
      6 H          -0.2972    0.9354   -0.7255 H       1  LIG1        0.1042
      7 C           2.3625    0.6331    0.5568 C.1     1  LIG1       -0.0654
      8 C           3.0308   -0.3180    0.8904 C.1     1  LIG1       -0.1138
      9 H           3.6207   -1.1556    1.1829 H       1  LIG1        0.1232
     10 S           3.3906    3.6529    1.1859 S.3     1  LIG1       -0.1377
     11 H           3.4683    4.8963    0.6656 H       1  LIG1        0.1073
     12 C           0.5286    5.2632   -0.2801 C.ar    1  LIG1        0.1882
     13 C           1.2591    6.4213   -0.4947 C.ar    1  LIG1        0.0874
     14 C           0.3103    7.5099   -0.4765 C.ar    1  LIG1        0.0699
     15 C          -0.9257    6.9384   -0.2691 C.ar    1  LIG1        0.1863
     16 O          -0.7864    5.5734   -0.1408 O.2     1  LIG1       -0.4461
     17 C           2.6375    6.5380   -0.7895 C.1     1  LIG1       -0.0646
     18 C           3.8134    6.6648   -1.0525 C.1     1  LIG1       -0.1138
     19 H           4.8418    6.7707   -1.3116 H       1  LIG1        0.1232
     20 S           0.7917    9.1675   -0.8402 S.3     1  LIG1       -0.1377
     21 H          -0.2461    9.7775   -0.2286 H       1  LIG1        0.1073
     22 C          -2.2782    7.4269   -0.2033 C.ar    1  LIG1        0.1872
     23 C          -2.8660    8.5879    0.2753 C.ar    1  LIG1        0.0866
     24 C          -4.2825    8.4516    0.0128 C.ar    1  LIG1        0.0587
     25 C          -4.4439    7.2337   -0.5713 C.ar    1  LIG1        0.1071
     26 O          -3.2390    6.6045   -0.7094 O.2     1  LIG1       -0.4574
     27 H          -5.3049    6.6911   -0.9270 H       1  LIG1        0.1041
     28 C          -2.2560    9.6617    0.9633 C.1     1  LIG1       -0.0647
     29 C          -1.7671   10.5966    1.5601 C.1     1  LIG1       -0.1138
     30 H          -1.3377   11.4011    2.1117 H       1  LIG1        0.1232
     31 S          -5.4743    9.6867    0.4409 S.3     1  LIG1       -0.1384
     32 H          -6.5490    8.9951    0.0132 H       1  LIG1        0.1072
@<TRIPOS>BOND
     1    19    18    1
     2    18    17    3
     3    27    25    1
     4    20    14    1
     5    20    21    1
     6    17    13    1
     7     6     1    1
     8    26    25   ar
     9    26    22   ar
    10     5     1   ar
    11     5     4   ar
    12    25    24   ar
    13    13    14   ar
    14    13    12   ar
    15    14    15   ar
    16     1     2   ar
    17    12     4    1
    18    12    16   ar
    19    15    22    1
    20    15    16   ar
    21    22    23   ar
    22     4     3   ar
    23    24    23   ar
    24    24    31    1
    25    32    31    1
    26     2     3   ar
    27     2     7    1
    28    23    28    1
    29     3    10    1
    30     7     8    3
    31    11    10    1
    32     8     9    1
    33    28    29    3
    34    29    30    1
