@<TRIPOS>MOLECULE
mol_data/opt/b3lyp/geoms/mol2/12eh12fh-4hf12ll.out
 51 54 0 0 0
SMALL
GASTEIGER

@<TRIPOS>ATOM
      1 C           0.5505    1.5348   -0.6831 C.ar    1  LIG1        0.1099
      2 C           1.8951    1.5529   -0.4116 C.ar    1  LIG1        0.0837
      3 C           2.2273    2.9338   -0.1334 C.ar    1  LIG1        0.0898
      4 C           1.0484    3.6420   -0.2705 C.ar    1  LIG1        0.1951
      5 O           0.0233    2.7705   -0.6021 O.2     1  LIG1       -0.4565
      6 H          -0.1249    0.7346   -0.9416 H       1  LIG1        0.1043
      7 C           2.8062    0.4681   -0.4041 C.1     1  LIG1       -0.0646
      8 C           3.6220   -0.4268   -0.3956 C.1     1  LIG1       -0.1138
      9 H           4.3216   -1.2300   -0.3832 H       1  LIG1        0.1232
     10 N           3.4743    3.3764    0.2575 N.pl3   1  LIG1       -0.3540
     11 H           4.2383    2.7922   -0.0539 H       1  LIG1        0.1425
     12 H           3.6304    4.3714    0.1450 H       1  LIG1        0.1425
     13 C           0.7101    5.0301   -0.1453 C.ar    1  LIG1        0.2154
     14 C           1.4461    6.1713    0.0773 C.ar    1  LIG1        0.1877
     15 C           0.5506    7.2840    0.0817 C.ar    1  LIG1        0.1139
     16 C          -0.7098    6.7625   -0.1610 C.ar    1  LIG1        0.1620
     17 O          -0.5978    5.3808   -0.2896 O.2     1  LIG1       -0.4459
     18 O           2.8167    6.2740    0.2433 O.3     1  LIG1       -0.5019
     19 H           2.9808    6.6377    1.1270 H       1  LIG1        0.2924
     20 N           0.9516    8.5753    0.4112 N.pl3   1  LIG1       -0.3522
     21 H           1.8822    8.7806    0.0625 H       1  LIG1        0.1425
     22 H           0.2735    9.2774    0.1107 H       1  LIG1        0.1425
     23 C          -2.3813    8.6006   -0.5832 C.ar    1  LIG1        0.0363
     24 C          -3.6928    9.0550   -0.4908 C.ar    1  LIG1       -0.0260
     25 C          -2.0629    7.2905   -0.1518 C.ar    1  LIG1        0.0433
     26 C          -4.7469    8.2593   -0.0048 C.ar    1  LIG1        0.0642
     27 H          -3.9253   10.0609   -0.8244 H       1  LIG1        0.0644
     28 C          -3.1218    6.4762    0.2879 C.ar    1  LIG1       -0.0070
     29 C          -4.4334    6.9319    0.3708 C.ar    1  LIG1        0.1284
     30 H          -2.8931    5.4622    0.6040 H       1  LIG1        0.0662
     31 N          -1.3617    9.4434   -1.1132 N.pl3   1  LIG1       -0.3574
     32 H          -0.8316    8.9594   -1.8351 H       1  LIG1        0.1423
     33 H          -1.7552   10.2888   -1.5131 H       1  LIG1        0.1423
     34 O          -5.4307    6.1242    0.8444 O.3     1  LIG1       -0.5060
     35 H          -5.0428    5.2696    1.0744 H       1  LIG1        0.2922
     36 C          -6.0821    8.8343    0.0832 C.ar    1  LIG1        0.1836
     37 C          -6.5259   10.1402    0.1160 C.ar    1  LIG1        0.2079
     38 C          -7.9606   10.0973    0.1778 C.ar    1  LIG1        0.2003
     39 C          -8.2999    8.7772    0.1765 C.ar    1  LIG1        0.1379
     40 O          -7.1772    8.0087    0.1202 O.2     1  LIG1       -0.4553
     41 H          -9.2431    8.2581    0.2277 H       1  LIG1        0.1069
     42 O          -5.7575   11.2748    0.0720 O.3     1  LIG1       -0.4884
     43 C          -5.7674   12.0248    1.2962 C.3     1  LIG1        0.0791
     44 H          -5.1667   12.9184    1.1152 H       1  LIG1        0.0660
     45 H          -6.7871   12.3139    1.5707 H       1  LIG1        0.0660
     46 H          -5.3226   11.4420    2.1111 H       1  LIG1        0.0660
     47 O          -8.8123   11.1623    0.2782 O.3     1  LIG1       -0.4888
     48 C          -8.8227   12.0071   -0.8792 C.3     1  LIG1        0.0791
     49 H          -9.5041   12.8297   -0.6531 H       1  LIG1        0.0660
     50 H          -7.8240   12.4025   -1.0931 H       1  LIG1        0.0660
     51 H          -9.1889   11.4600   -1.7567 H       1  LIG1        0.0660
@<TRIPOS>BOND
     1    32    31    1
     2    51    48    1
     3    33    31    1
     4    31    23    1
     5    50    48    1
     6     6     1    1
     7    48    49    1
     8    48    47    1
     9    27    24    1
    10     1     5   ar
    11     1     2   ar
    12     5     4   ar
    13    23    24   ar
    14    23    25   ar
    15    24    26   ar
    16     2     7    1
    17     2     3   ar
    18     7     8    3
    19     8     9    1
    20    17    16   ar
    21    17    13   ar
    22     4    13    1
    23     4     3   ar
    24    16    25    1
    25    16    15   ar
    26    25    28   ar
    27    13    14   ar
    28     3    10    1
    29    11    10    1
    30    26    36    1
    31    26    29   ar
    32    21    20    1
    33    42    37    1
    34    42    43    1
    35    14    15   ar
    36    14    18    1
    37    15    20    1
    38    36    37   ar
    39    36    40   ar
    40    22    20    1
    41    37    38   ar
    42    40    39   ar
    43    12    10    1
    44    39    38   ar
    45    39    41    1
    46    38    47    1
    47    18    19    1
    48    28    29   ar
    49    28    30    1
    50    29    34    1
    51    34    35    1
    52    44    43    1
    53    43    45    1
    54    43    46    1
