@<TRIPOS>MOLECULE
mol_data/opt/b3lyp/geoms/mol2/12eh13le13fh12hf-.out
 48 51 0 0 0
SMALL
GASTEIGER

@<TRIPOS>ATOM
      1 C           0.0585    1.5645   -0.5968 C.ar    1  LIG1        0.1099
      2 C           1.4232    1.4688   -0.5138 C.ar    1  LIG1        0.0837
      3 C           1.9148    2.8188   -0.3261 C.ar    1  LIG1        0.0881
      4 C           0.8010    3.6307   -0.3117 C.ar    1  LIG1        0.1762
      5 O          -0.3384    2.8506   -0.4749 O.2     1  LIG1       -0.4582
      6 H          -0.7150    0.8266   -0.7371 H       1  LIG1        0.1043
      7 C           2.2254    0.3042   -0.6044 C.1     1  LIG1       -0.0646
      8 C           2.9485   -0.6635   -0.6862 C.1     1  LIG1       -0.1138
      9 H           3.5682   -1.5276   -0.7499 H       1  LIG1        0.1232
     10 N           3.2427    3.1557   -0.1392 N.pl3   1  LIG1       -0.3540
     11 H           3.8945    2.5153   -0.5727 H       1  LIG1        0.1425
     12 H           3.4486    4.1349   -0.3020 H       1  LIG1        0.1425
     13 C           0.5733    5.0454   -0.1974 C.ar    1  LIG1        0.1279
     14 C           1.4191    6.1286   -0.0195 C.ar    1  LIG1        0.1643
     15 C           0.6288    7.3281   -0.0110 C.ar    1  LIG1        0.0938
     16 C          -0.7077    6.9377   -0.2052 C.ar    1  LIG1        0.0863
     17 N          -0.7112    5.5653   -0.2969 N.ar    1  LIG1       -0.3465
     18 H          -1.4998    5.0190   -0.6065 H       1  LIG1        0.1662
     19 O           2.7851    6.0607    0.1047 O.3     1  LIG1       -0.4916
     20 C           3.2796    6.3735    1.4178 C.3     1  LIG1        0.0789
     21 H           3.0019    7.3914    1.7068 H       1  LIG1        0.0660
     22 H           2.8956    5.6602    2.1556 H       1  LIG1        0.0660
     23 H           4.3670    6.2945    1.3625 H       1  LIG1        0.0660
     24 C           1.0922    8.6470    0.1876 C.1     1  LIG1       -0.0638
     25 C           1.4812    9.7875    0.3487 C.1     1  LIG1       -0.1137
     26 H           1.8338   10.7756    0.5341 H       1  LIG1        0.1232
     27 C          -1.9191    7.7003   -0.2990 C.ar    1  LIG1        0.1086
     28 C          -2.1797    8.9909   -0.7595 C.ar    1  LIG1        0.1651
     29 C          -3.5851    9.1961   -0.7532 C.ar    1  LIG1        0.0961
     30 C          -4.1773    8.0314   -0.2682 C.ar    1  LIG1        0.1091
     31 N          -3.1668    7.1149   -0.0534 N.ar    1  LIG1       -0.3461
     32 H          -3.2983    6.3452    0.5857 H       1  LIG1        0.1662
     33 O          -1.3362    9.9339   -1.2527 O.3     1  LIG1       -0.5030
     34 H          -0.4365    9.7889   -0.9085 H       1  LIG1        0.2923
     35 N          -4.2625   10.3641   -1.2171 N.pl3   1  LIG1       -0.3534
     36 H          -3.6428   11.1649   -1.1141 H       1  LIG1        0.1425
     37 H          -4.4642   10.2889   -2.2136 H       1  LIG1        0.1425
     38 C          -5.5420    7.7114    0.0335 C.ar    1  LIG1        0.1770
     39 C          -6.6784    8.4755    0.2175 C.ar    1  LIG1        0.1146
     40 C          -7.7211    7.5375    0.5260 C.ar    1  LIG1        0.1763
     41 C          -7.1682    6.2918    0.5380 C.ar    1  LIG1        0.1359
     42 O          -5.8342    6.3718    0.2425 O.2     1  LIG1       -0.4557
     43 H          -7.5662    5.3064    0.7222 H       1  LIG1        0.1068
     44 N          -6.8203    9.8497    0.2243 N.pl3   1  LIG1       -0.3522
     45 H          -6.0744   10.3392   -0.2760 H       1  LIG1        0.1425
     46 H          -7.7558   10.1633    0.0028 H       1  LIG1        0.1425
     47 O          -9.0024    7.9564    0.7481 O.3     1  LIG1       -0.5024
     48 H          -9.5600    7.1929    0.9437 H       1  LIG1        0.2923
@<TRIPOS>BOND
     1    37    35    1
     2    33    34    1
     3    33    28    1
     4    35    36    1
     5    35    29    1
     6    28    29   ar
     7    28    27   ar
     8    29    30   ar
     9     9     8    1
    10     6     1    1
    11     8     7    3
    12    18    17    1
    13     7     2    1
    14     1     2   ar
    15     1     5   ar
    16    11    10    1
    17     2     3   ar
    18     5     4   ar
    19     3     4   ar
    20     3    10    1
    21     4    13    1
    22    12    10    1
    23    27    16    1
    24    27    31   ar
    25    17    16   ar
    26    17    13   ar
    27    45    44    1
    28    30    31   ar
    29    30    38    1
    30    16    15   ar
    31    13    14   ar
    32    31    32    1
    33    14    15   ar
    34    14    19    1
    35    15    24    1
    36    46    44    1
    37    38    39   ar
    38    38    42   ar
    39    19    20    1
    40    24    25    3
    41    39    44    1
    42    39    40   ar
    43    42    41   ar
    44    25    26    1
    45    40    41   ar
    46    40    47    1
    47    41    43    1
    48    47    48    1
    49    23    20    1
    50    20    21    1
    51    20    22    1
