@<TRIPOS>MOLECULE
mol_data/opt/b3lyp/geoms/mol2/12eh6fh13hf-13hf-.out
 47 50 0 0 0
SMALL
GASTEIGER

@<TRIPOS>ATOM
      1 C           0.4313    1.6197    0.8111 C.ar    1  LIG1        0.1098
      2 C           1.5985    1.5906    0.0967 C.ar    1  LIG1        0.0836
      3 C           1.8775    2.9605   -0.2778 C.ar    1  LIG1        0.0867
      4 C           0.8662    3.7325    0.2470 C.ar    1  LIG1        0.1617
      5 O          -0.0258    2.8910    0.9116 O.2     1  LIG1       -0.4596
      6 H          -0.1604    0.8499    1.2792 H       1  LIG1        0.1043
      7 C           2.3894    0.4668   -0.2496 C.1     1  LIG1       -0.0646
      8 C           3.0957   -0.4592   -0.5805 C.1     1  LIG1       -0.1138
      9 H           3.7061   -1.2897   -0.8508 H       1  LIG1        0.1232
     10 N           2.9941    3.3696   -1.0111 N.pl3   1  LIG1       -0.3541
     11 H           3.4548    2.5871   -1.4629 H       1  LIG1        0.1425
     12 H           2.7849    4.0961   -1.6867 H       1  LIG1        0.1425
     13 C          -0.7255    5.7009    0.3657 C.ar    1  LIG1        0.2240
     14 C           0.5818    5.1558    0.2351 C.ar    1  LIG1        0.0822
     15 C           1.6095    6.0888    0.0084 C.ar    1  LIG1       -0.0230
     16 C           1.3579    7.4537   -0.0512 C.ar    1  LIG1        0.0533
     17 C           0.0310    7.8958    0.1952 C.ar    1  LIG1        0.1134
     18 N          -0.9709    6.9959    0.3443 N.ar    1  LIG1       -0.2090
     19 H           2.6271    5.7304   -0.1246 H       1  LIG1        0.0645
     20 O          -1.8304    4.9241    0.5217 O.3     1  LIG1       -0.4919
     21 H          -1.5541    4.0061    0.6609 H       1  LIG1        0.2938
     22 N           2.3882    8.3805   -0.3595 N.pl3   1  LIG1       -0.3563
     23 H           3.2380    7.9136   -0.6571 H       1  LIG1        0.1424
     24 H           2.0910    9.0249   -1.0885 H       1  LIG1        0.1424
     25 C          -0.3800    9.2827    0.2299 C.ar    1  LIG1        0.0920
     26 C           0.2598   10.5118    0.4895 C.ar    1  LIG1        0.0945
     27 C          -0.7193   11.5322    0.3337 C.ar    1  LIG1        0.1650
     28 C          -1.9393   10.9303    0.0318 C.ar    1  LIG1        0.1092
     29 N          -1.7276    9.5663    0.0187 N.ar    1  LIG1       -0.3473
     30 H          -2.3287    8.8741   -0.4005 H       1  LIG1        0.1662
     31 N           1.5201   10.7767    1.0020 N.pl3   1  LIG1       -0.3534
     32 H           2.2261   10.0756    0.7988 H       1  LIG1        0.1425
     33 H           1.8090   11.7350    0.8553 H       1  LIG1        0.1425
     34 O          -0.4336   12.8420    0.5417 O.3     1  LIG1       -0.5030
     35 H          -1.1686   13.3801    0.1456 H       1  LIG1        0.2923
     36 C          -3.2400   11.5240   -0.1416 C.ar    1  LIG1        0.0912
     37 C          -3.6017   12.8366   -0.4314 C.ar    1  LIG1        0.0938
     38 C          -5.0236   12.8914   -0.4573 C.ar    1  LIG1        0.1554
     39 C          -5.5097   11.6309   -0.1886 C.ar    1  LIG1        0.0461
     40 N          -4.4084   10.7986   -0.0351 N.ar    1  LIG1       -0.3549
     41 H          -4.4483    9.8948    0.4091 H       1  LIG1        0.1655
     42 H          -6.5189   11.2549   -0.1203 H       1  LIG1        0.0845
     43 N          -2.6872   13.9138   -0.6716 N.pl3   1  LIG1       -0.3535
     44 H          -2.5473   14.0654   -1.6703 H       1  LIG1        0.1425
     45 H          -3.0742   14.7798   -0.3026 H       1  LIG1        0.1425
     46 O          -5.6910   14.0555   -0.7352 O.3     1  LIG1       -0.5035
     47 H          -6.6377   13.9105   -0.6162 H       1  LIG1        0.2923
@<TRIPOS>BOND
     1    12    10    1
     2    44    43    1
     3    11    10    1
     4    24    22    1
     5    10     3    1
     6     9     8    1
     7    46    47    1
     8    46    38    1
     9    43    37    1
    10    43    45    1
    11    23    22    1
    12     8     7    3
    13    38    37   ar
    14    38    39   ar
    15    37    36   ar
    16    30    29    1
    17    22    16    1
    18     3     2   ar
    19     3     4   ar
    20     7     2    1
    21    39    42    1
    22    39    40   ar
    23    36    40   ar
    24    36    28    1
    25    19    15    1
    26    16    15   ar
    27    16    17   ar
    28    40    41    1
    29    15    14   ar
    30    29    28   ar
    31    29    25   ar
    32    28    27   ar
    33     2     1   ar
    34    35    34    1
    35    17    25    1
    36    17    18   ar
    37    25    26   ar
    38    14     4    1
    39    14    13   ar
    40     4     5   ar
    41    27    26   ar
    42    27    34    1
    43    18    13   ar
    44    13    20    1
    45    26    31    1
    46    20    21    1
    47    32    31    1
    48     1     5   ar
    49     1     6    1
    50    33    31    1
