@<TRIPOS>MOLECULE
mol_data/opt/b3lyp/geoms/mol2/12ei12ei-.out
 26 27 0 0 0
SMALL
GASTEIGER

@<TRIPOS>ATOM
      1 C           0.1781    1.7949   -0.1072 C.ar    1  LIG1        0.1083
      2 C           1.5473    1.7698   -0.0401 C.ar    1  LIG1        0.0659
      3 C           1.9791    3.1495    0.0107 C.ar    1  LIG1        0.0138
      4 C           0.8219    3.8928   -0.0338 C.ar    1  LIG1        0.1750
      5 O          -0.2749    3.0679   -0.1046 O.2     1  LIG1       -0.4583
      6 H          -0.5675    1.0174   -0.1559 H       1  LIG1        0.1042
      7 C           2.3795    0.6208   -0.0142 C.1     1  LIG1       -0.0662
      8 C           3.1064   -0.3463    0.0110 C.1     1  LIG1       -0.1138
      9 H           3.7380   -1.2039    0.0305 H       1  LIG1        0.1232
     10 C           3.4012    3.6121    0.0828 C.3     1  LIG1       -0.0348
     11 H           3.4898    4.5548    0.6248 H       1  LIG1        0.0279
     12 H           3.8193    3.7693   -0.9191 H       1  LIG1        0.0279
     13 H           4.0179    2.8566    0.5771 H       1  LIG1        0.0279
     14 C           0.5526    5.3042   -0.0205 C.ar    1  LIG1        0.1855
     15 C          -0.6122    6.0533   -0.0080 C.ar    1  LIG1        0.0763
     16 C          -0.1987    7.4430    0.0005 C.ar    1  LIG1        0.0034
     17 C           1.1586    7.4217   -0.0061 C.ar    1  LIG1        0.0968
     18 O           1.6332    6.1365   -0.0208 O.2     1  LIG1       -0.4583
     19 H           1.9091    8.1967   -0.0043 H       1  LIG1        0.1032
     20 C          -1.9537    5.6018    0.0003 C.1     1  LIG1       -0.0655
     21 C          -3.1197    5.2755    0.0086 C.1     1  LIG1       -0.1138
     22 H          -4.1388    4.9663    0.0155 H       1  LIG1        0.1232
     23 C          -1.1070    8.6314    0.0150 C.3     1  LIG1       -0.0355
     24 H          -1.7546    8.6214    0.8983 H       1  LIG1        0.0279
     25 H          -1.7632    8.6366   -0.8619 H       1  LIG1        0.0279
     26 H          -0.5371    9.5642    0.0203 H       1  LIG1        0.0279
@<TRIPOS>BOND
     1    12    10    1
     2    25    23    1
     3     6     1    1
     4     1     5   ar
     5     1     2   ar
     6     5     4   ar
     7     2     7    1
     8     2     3   ar
     9     4    14    1
    10     4     3   ar
    11    18    14   ar
    12    18    17   ar
    13    14    15   ar
    14     7     8    3
    15    15    20    1
    16    15    16   ar
    17    17    19    1
    18    17    16   ar
    19    20    21    3
    20    16    23    1
    21    21    22    1
    22     3    10    1
    23     8     9    1
    24    23    26    1
    25    23    24    1
    26    10    13    1
    27    10    11    1
