@<TRIPOS>MOLECULE
mol_data/opt/b3lyp/geoms/mol2/12ei12ei-12ei-12ei-.out
 50 53 0 0 0
SMALL
GASTEIGER

@<TRIPOS>ATOM
      1 C          -0.0036    1.7319   -0.5000 C.ar    1  LIG1        0.1083
      2 C           1.3545    1.6976   -0.6880 C.ar    1  LIG1        0.0659
      3 C           1.8227    3.0573   -0.5357 C.ar    1  LIG1        0.0138
      4 C           0.6941    3.8000   -0.2690 C.ar    1  LIG1        0.1750
      5 O          -0.4182    2.9919   -0.2466 O.2     1  LIG1       -0.4583
      6 H          -0.7641    0.9675   -0.5148 H       1  LIG1        0.1042
      7 C           2.1485    0.5551   -0.9664 C.1     1  LIG1       -0.0662
      8 C           2.8426   -0.4075   -1.2026 C.1     1  LIG1       -0.1138
      9 H           3.4462   -1.2600   -1.4117 H       1  LIG1        0.1232
     10 C           3.2457    3.5037   -0.6645 C.3     1  LIG1       -0.0348
     11 H           3.4320    4.4262   -0.1139 H       1  LIG1        0.0279
     12 H           3.5063    3.6875   -1.7142 H       1  LIG1        0.0279
     13 H           3.9194    2.7241   -0.2978 H       1  LIG1        0.0279
     14 C           0.4685    5.1944   -0.0177 C.ar    1  LIG1        0.1865
     15 C          -0.6527    5.9342    0.3293 C.ar    1  LIG1        0.0771
     16 C          -0.2164    7.3032    0.4581 C.ar    1  LIG1        0.0145
     17 C           1.1253    7.2995    0.1627 C.ar    1  LIG1        0.1761
     18 O           1.5441    6.0162   -0.1228 O.2     1  LIG1       -0.4470
     19 C          -1.9712    5.4737    0.5629 C.1     1  LIG1       -0.0655
     20 C          -3.1135    5.1350    0.7771 C.1     1  LIG1       -0.1138
     21 H          -4.1129    4.8149    0.9589 H       1  LIG1        0.1232
     22 C          -1.0804    8.4434    0.8930 C.3     1  LIG1       -0.0348
     23 H          -1.8514    8.0849    1.5805 H       1  LIG1        0.0279
     24 H          -1.5858    8.9134    0.0426 H       1  LIG1        0.0279
     25 H          -0.4940    9.2192    1.3894 H       1  LIG1        0.0279
     26 C           2.1465    8.3110    0.1175 C.ar    1  LIG1        0.1866
     27 C           2.1523    9.6585   -0.2102 C.ar    1  LIG1        0.0771
     28 C           3.5061   10.1232   -0.0260 C.ar    1  LIG1        0.0145
     29 C           4.2281    9.0202    0.3578 C.ar    1  LIG1        0.1760
     30 O           3.4061    7.9204    0.4554 O.2     1  LIG1       -0.4470
     31 C           1.0802   10.4482   -0.6932 C.1     1  LIG1       -0.0655
     32 C           0.2003   11.1607   -1.1232 C.1     1  LIG1       -0.1138
     33 H          -0.5791   11.7741   -1.5120 H       1  LIG1        0.1232
     34 C           3.9686   11.5343   -0.2011 C.3     1  LIG1       -0.0348
     35 H           3.1763   12.2288    0.0925 H       1  LIG1        0.0279
     36 H           4.2275   11.7480   -1.2437 H       1  LIG1        0.0279
     37 H           4.8573   11.7361    0.4003 H       1  LIG1        0.0279
     38 C           5.6160    8.8052    0.6806 C.ar    1  LIG1        0.1855
     39 C           6.8024    9.3353    0.2020 C.ar    1  LIG1        0.0763
     40 C           7.8655    8.7127    0.9650 C.ar    1  LIG1        0.0034
     41 C           7.2434    7.8557    1.8165 C.ar    1  LIG1        0.0968
     42 O           5.8874    7.8973    1.6631 O.2     1  LIG1       -0.4583
     43 H           7.6095    7.1674    2.5626 H       1  LIG1        0.1032
     44 C           6.9884   10.2370   -0.8744 C.1     1  LIG1       -0.0655
     45 C           7.1982   10.9932   -1.7969 C.1     1  LIG1       -0.1138
     46 H           7.3722   11.6505   -2.6170 H       1  LIG1        0.1232
     47 C           9.3319    8.9636    0.8071 C.3     1  LIG1       -0.0355
     48 H           9.5792   10.0108    1.0125 H       1  LIG1        0.0279
     49 H           9.6603    8.7520   -0.2161 H       1  LIG1        0.0279
     50 H           9.9142    8.3374    1.4880 H       1  LIG1        0.0279
@<TRIPOS>BOND
     1    46    45    1
     2    45    44    3
     3    12    10    1
     4    33    32    1
     5     9     8    1
     6    36    34    1
     7     8     7    3
     8    32    31    3
     9     7     2    1
    10    44    39    1
    11    31    27    1
    12     2     3   ar
    13     2     1   ar
    14    10     3    1
    15    10    13    1
    16    10    11    1
    17     3     4   ar
    18     6     1    1
    19     1     5   ar
    20     4     5   ar
    21     4    14    1
    22    49    47    1
    23    27    28   ar
    24    27    26   ar
    25    34    28    1
    26    34    35    1
    27    34    37    1
    28    18    14   ar
    29    18    17   ar
    30    28    29   ar
    31    14    15   ar
    32    24    22    1
    33    26    17    1
    34    26    30   ar
    35    17    16   ar
    36    39    38   ar
    37    39    40   ar
    38    15    16   ar
    39    15    19    1
    40    29    30   ar
    41    29    38    1
    42    16    22    1
    43    19    20    3
    44    38    42   ar
    45    20    21    1
    46    47    40    1
    47    47    48    1
    48    47    50    1
    49    22    25    1
    50    22    23    1
    51    40    41   ar
    52    42    41   ar
    53    41    43    1
