@<TRIPOS>MOLECULE
mol_data/opt/b3lyp/geoms/mol2/12ei12ei-12ei12ei-.out
 50 53 0 0 0
SMALL
GASTEIGER

@<TRIPOS>ATOM
      1 C           0.1384    1.6874   -0.0308 C.ar    1  LIG1        0.1083
      2 C           1.4773    1.6652   -0.3258 C.ar    1  LIG1        0.0659
      3 C           1.9220    3.0413   -0.3133 C.ar    1  LIG1        0.0138
      4 C           0.8014    3.7814   -0.0065 C.ar    1  LIG1        0.1750
      5 O          -0.2851    2.9540    0.1649 O.2     1  LIG1       -0.4583
      6 H          -0.6017    0.9097    0.0716 H       1  LIG1        0.1042
      7 C           2.2742    0.5211   -0.5890 C.1     1  LIG1       -0.0662
      8 C           2.9703   -0.4427   -0.8145 C.1     1  LIG1       -0.1138
      9 H           3.5750   -1.2967   -1.0136 H       1  LIG1        0.1232
     10 C           3.3126    3.4988   -0.6204 C.3     1  LIG1       -0.0348
     11 H           3.5206    4.4845   -0.2042 H       1  LIG1        0.0279
     12 H           3.4741    3.5523   -1.7044 H       1  LIG1        0.0279
     13 H           4.0398    2.7826   -0.2258 H       1  LIG1        0.0279
     14 C           0.5425    5.1834    0.1556 C.ar    1  LIG1        0.1865
     15 C          -0.6239    5.9131    0.3383 C.ar    1  LIG1        0.0771
     16 C          -0.2370    7.2982    0.4137 C.ar    1  LIG1        0.0145
     17 C           1.1328    7.3124    0.2724 C.ar    1  LIG1        0.1761
     18 O           1.6071    6.0282    0.1158 O.2     1  LIG1       -0.4470
     19 C          -1.9546    5.4368    0.4280 C.1     1  LIG1       -0.0655
     20 C          -3.1113    5.0889    0.5077 C.1     1  LIG1       -0.1138
     21 H          -4.1216    4.7594    0.5789 H       1  LIG1        0.1232
     22 C          -1.1787    8.4366    0.6503 C.3     1  LIG1       -0.0348
     23 H          -1.3946    8.5443    1.7206 H       1  LIG1        0.0279
     24 H          -2.1330    8.2415    0.1523 H       1  LIG1        0.0279
     25 H          -0.7757    9.3833    0.2914 H       1  LIG1        0.0279
     26 C           2.1156    8.3554    0.2734 C.ar    1  LIG1        0.1866
     27 C           3.4970    8.3696    0.4216 C.ar    1  LIG1        0.0771
     28 C           3.9082    9.7477    0.3379 C.ar    1  LIG1        0.0145
     29 C           2.7523   10.4707    0.1522 C.ar    1  LIG1        0.1760
     30 O           1.6656    9.6308    0.1109 O.2     1  LIG1       -0.4470
     31 C           4.3713    7.2805    0.6537 C.1     1  LIG1       -0.0655
     32 C           5.1775    6.4019    0.8665 C.1     1  LIG1       -0.1138
     33 H           5.8705    5.6177    1.0650 H       1  LIG1        0.1232
     34 C           5.3161   10.2443    0.4507 C.3     1  LIG1       -0.0348
     35 H           5.5057   10.6853    1.4360 H       1  LIG1        0.0279
     36 H           5.5291   11.0161   -0.2925 H       1  LIG1        0.0279
     37 H           6.0164    9.4170    0.3149 H       1  LIG1        0.0279
     38 C           2.4975   11.8728   -0.0007 C.ar    1  LIG1        0.1855
     39 C           1.3798   12.6224   -0.3344 C.ar    1  LIG1        0.0763
     40 C           1.8010   14.0094   -0.3111 C.ar    1  LIG1        0.0034
     41 C           3.1165   13.9875    0.0236 C.ar    1  LIG1        0.0968
     42 O           3.5571   12.7056    0.2177 O.2     1  LIG1       -0.4583
     43 H           3.8552   14.7615    0.1616 H       1  LIG1        0.1032
     44 C           0.0797   12.1775   -0.6713 C.1     1  LIG1       -0.0655
     45 C          -1.0509   11.8686   -0.9783 C.1     1  LIG1       -0.1138
     46 H          -2.0377   11.5802   -1.2565 H       1  LIG1        0.1232
     47 C           0.9395   15.1961   -0.6058 C.3     1  LIG1       -0.0355
     48 H           0.0989   15.2569    0.0937 H       1  LIG1        0.0279
     49 H           0.5135   15.1331   -1.6128 H       1  LIG1        0.0279
     50 H           1.5101   16.1257   -0.5342 H       1  LIG1        0.0279
@<TRIPOS>BOND
     1    12    10    1
     2    49    47    1
     3    46    45    1
     4     9     8    1
     5    45    44    3
     6     8     7    3
     7    44    39    1
     8    10     3    1
     9    10    13    1
    10    10    11    1
    11    47    50    1
    12    47    40    1
    13    47    48    1
    14     7     2    1
    15    39    40   ar
    16    39    38   ar
    17     2     3   ar
    18     2     1   ar
    19     3     4   ar
    20    40    41   ar
    21    36    34    1
    22     1     6    1
    23     1     5   ar
    24     4    14    1
    25     4     5   ar
    26    38    29    1
    27    38    42   ar
    28    41    43    1
    29    41    42   ar
    30    30    29   ar
    31    30    26   ar
    32    18    14   ar
    33    18    17   ar
    34    29    28   ar
    35    24    22    1
    36    14    15   ar
    37    17    26    1
    38    17    16   ar
    39    26    27   ar
    40    25    22    1
    41    37    34    1
    42    28    27   ar
    43    28    34    1
    44    15    16   ar
    45    15    19    1
    46    16    22    1
    47    27    31    1
    48    19    20    3
    49    34    35    1
    50    20    21    1
    51    22    23    1
    52    31    32    3
    53    32    33    1
