@<TRIPOS>MOLECULE
mol_data/opt/b3lyp/geoms/mol2/12ei12ei-12ei.out
 38 40 0 0 0
SMALL
GASTEIGER

@<TRIPOS>ATOM
      1 C           0.0926    1.7488    0.1444 C.ar    1  LIG1        0.1083
      2 C           1.4498    1.6853   -0.0377 C.ar    1  LIG1        0.0659
      3 C           1.9158    3.0521   -0.1207 C.ar    1  LIG1        0.0138
      4 C           0.7880    3.8295    0.0221 C.ar    1  LIG1        0.1750
      5 O          -0.3230    3.0327    0.1832 O.2     1  LIG1       -0.4583
      6 H          -0.6670    0.9920    0.2597 H       1  LIG1        0.1042
      7 C           2.2461    0.5143   -0.1262 C.1     1  LIG1       -0.0662
      8 C           2.9420   -0.4726   -0.2028 C.1     1  LIG1       -0.1138
      9 H           3.5470   -1.3467   -0.2704 H       1  LIG1        0.1232
     10 C           3.3364    3.4609   -0.3484 C.3     1  LIG1       -0.0348
     11 H           3.4909    4.5230   -0.1618 H       1  LIG1        0.0279
     12 H           3.6390    3.2475   -1.3809 H       1  LIG1        0.0279
     13 H           4.0044    2.8858    0.3015 H       1  LIG1        0.0279
     14 C           0.5377    5.2431    0.0276 C.ar    1  LIG1        0.1865
     15 C          -0.6287    5.9945    0.0590 C.ar    1  LIG1        0.0771
     16 C          -0.2280    7.3781    0.0356 C.ar    1  LIG1        0.0145
     17 C           1.1469    7.3681   -0.0101 C.ar    1  LIG1        0.1760
     18 O           1.6143    6.0746   -0.0140 O.2     1  LIG1       -0.4470
     19 C          -1.9684    5.5376    0.1073 C.1     1  LIG1       -0.0655
     20 C          -3.1324    5.2075    0.1489 C.1     1  LIG1       -0.1138
     21 H          -4.1491    4.8922    0.1845 H       1  LIG1        0.1232
     22 C          -1.1597    8.5495    0.0540 C.3     1  LIG1       -0.0348
     23 H          -2.1176    8.2584    0.4919 H       1  LIG1        0.0279
     24 H          -1.3579    8.9157   -0.9603 H       1  LIG1        0.0279
     25 H          -0.7438    9.3831    0.6232 H       1  LIG1        0.0279
     26 C           2.1263    8.4151   -0.0501 C.ar    1  LIG1        0.1855
     27 C           3.5043    8.4590    0.0954 C.ar    1  LIG1        0.0763
     28 C           3.8841    9.8498   -0.0580 C.ar    1  LIG1        0.0034
     29 C           2.7261   10.5243   -0.2742 C.ar    1  LIG1        0.0968
     30 O           1.6517    9.6753   -0.2759 O.2     1  LIG1       -0.4583
     31 H           2.4990   11.5657   -0.4407 H       1  LIG1        0.1032
     32 C           4.4052    7.4044    0.3754 C.1     1  LIG1       -0.0655
     33 C           5.2358    6.5584    0.6246 C.1     1  LIG1       -0.1138
     34 H           5.9521    5.8037    0.8520 H       1  LIG1        0.1232
     35 C           5.2745   10.3959    0.0188 C.3     1  LIG1       -0.0355
     36 H           5.2812   11.4800   -0.1210 H       1  LIG1        0.0279
     37 H           5.9167    9.9487   -0.7475 H       1  LIG1        0.0279
     38 H           5.7320   10.1733    0.9887 H       1  LIG1        0.0279
@<TRIPOS>BOND
     1    12    10    1
     2    24    22    1
     3    37    35    1
     4    31    29    1
     5    10    11    1
     6    10     3    1
     7    10    13    1
     8    30    29   ar
     9    30    26   ar
    10    29    28   ar
    11     9     8    1
    12     8     7    3
    13     7     2    1
    14    36    35    1
    15     3     2   ar
    16     3     4   ar
    17    28    35    1
    18    28    27   ar
    19    26    17    1
    20    26    27   ar
    21     2     1   ar
    22    18    17   ar
    23    18    14   ar
    24    17    16   ar
    25    35    38    1
    26     4    14    1
    27     4     5   ar
    28    14    15   ar
    29    16    22    1
    30    16    15   ar
    31    22    23    1
    32    22    25    1
    33    15    19    1
    34    27    32    1
    35    19    20    3
    36     1     5   ar
    37     1     6    1
    38    20    21    1
    39    32    33    3
    40    33    34    1
