@<TRIPOS>MOLECULE
mol_data/opt/b3lyp/geoms/mol2/12ei6ef13ea-4ee.out
 50 53 0 0 0
SMALL
GASTEIGER

@<TRIPOS>ATOM
      1 C           0.1030    1.6883   -0.4927 C.ar    1  LIG1        0.1082
      2 C           1.3651    1.6340    0.0394 C.ar    1  LIG1        0.0658
      3 C           1.7742    3.0073    0.2437 C.ar    1  LIG1        0.0108
      4 C           0.7200    3.7767   -0.1835 C.ar    1  LIG1        0.1417
      5 O          -0.3001    2.9680   -0.6321 O.2     1  LIG1       -0.4613
      6 H          -0.5915    0.9248   -0.8060 H       1  LIG1        0.1042
      7 C           2.1180    0.4710    0.3445 C.1     1  LIG1       -0.0662
      8 C           2.7774   -0.5073    0.6141 C.1     1  LIG1       -0.1138
      9 H           3.3502   -1.3748    0.8469 H       1  LIG1        0.1232
     10 C           3.0769    3.4379    0.8432 C.3     1  LIG1       -0.0349
     11 H           3.0186    4.4523    1.2450 H       1  LIG1        0.0279
     12 H           3.8886    3.4150    0.1059 H       1  LIG1        0.0279
     13 H           3.3642    2.7606    1.6530 H       1  LIG1        0.0279
     14 C          -0.7207    5.8569    0.0560 C.ar    1  LIG1        0.1248
     15 C           0.5146    5.2210   -0.2501 C.ar    1  LIG1        0.0548
     16 C           1.5697    6.0559   -0.6172 C.ar    1  LIG1       -0.0046
     17 C           1.4303    7.4450   -0.6732 C.ar    1  LIG1        0.1449
     18 C           0.1624    7.9959   -0.3563 C.ar    1  LIG1        0.1309
     19 N          -0.8564    7.1844   -0.0120 N.ar    1  LIG1       -0.2325
     20 H           2.5296    5.6415   -0.9023 H       1  LIG1        0.0663
     21 C          -1.8796    5.1340    0.4918 C.1     1  LIG1       -0.0491
     22 C          -2.8699    4.5616    0.8836 C.1     1  LIG1       -0.1124
     23 H          -3.7390    4.0478    1.2236 H       1  LIG1        0.1232
     24 O           2.5268    8.1227   -1.0650 O.3     1  LIG1       -0.5045
     25 H           2.4142    9.0921   -1.0469 H       1  LIG1        0.2922
     26 C          -0.2205    9.4159   -0.3731 C.ar    1  LIG1        0.0846
     27 C           0.4147   10.6666   -0.5319 C.ar    1  LIG1        0.0521
     28 C          -0.5835   11.6713   -0.3787 C.ar    1  LIG1       -0.0203
     29 C          -1.7941   11.0417   -0.1375 C.ar    1  LIG1        0.0494
     30 N          -1.5409    9.6893   -0.1495 N.ar    1  LIG1       -0.3519
     31 H          -2.1718    8.9303    0.0778 H       1  LIG1        0.1660
     32 C           1.7799   10.9541   -0.7807 C.1     1  LIG1       -0.0675
     33 C           2.9376   11.2509   -0.9934 C.1     1  LIG1       -0.1138
     34 H           3.9572   11.5032   -1.1735 H       1  LIG1        0.1232
     35 H          -0.4201   12.7331   -0.4600 H       1  LIG1        0.0651
     36 C          -3.4274   12.8289    0.6137 C.ar    1  LIG1        0.0338
     37 C          -4.7651   13.2499    0.7459 C.ar    1  LIG1       -0.0445
     38 C          -3.1544   11.5570    0.0372 C.ar    1  LIG1        0.0149
     39 C          -5.8231   12.4528    0.3393 C.ar    1  LIG1       -0.0451
     40 H          -4.9566   14.2214    1.1886 H       1  LIG1        0.0630
     41 C          -4.2389   10.7689   -0.3755 C.ar    1  LIG1       -0.0360
     42 C          -5.5685   11.1908   -0.2293 C.ar    1  LIG1        0.0254
     43 H          -4.0543    9.8132   -0.8538 H       1  LIG1        0.0637
     44 H          -6.8459   12.7944    0.4532 H       1  LIG1        0.0630
     45 C          -2.4060   13.7012    1.0979 C.1     1  LIG1       -0.0690
     46 C          -1.5961   14.4889    1.5332 C.1     1  LIG1       -0.1139
     47 H          -0.8668   15.1637    1.9182 H       1  LIG1        0.1232
     48 C          -6.6424   10.3565   -0.6658 C.1     1  LIG1       -0.0696
     49 C          -7.5543    9.6511   -1.0335 C.1     1  LIG1       -0.1139
     50 H          -8.3555    9.0287   -1.3593 H       1  LIG1        0.1232
@<TRIPOS>BOND
     1    50    49    1
     2    34    33    1
     3    24    25    1
     4    24    17    1
     5    49    48    3
     6    33    32    3
     7    20    16    1
     8    43    41    1
     9     6     1    1
    10    32    27    1
    11    17    16   ar
    12    17    18   ar
    13    48    42    1
    14     5     1   ar
    15     5     4   ar
    16    16    15   ar
    17    27    28   ar
    18    27    26   ar
    19     1     2   ar
    20    35    28    1
    21    28    29   ar
    22    41    42   ar
    23    41    38   ar
    24    26    18    1
    25    26    30   ar
    26    18    19   ar
    27    15     4    1
    28    15    14   ar
    29    42    39   ar
    30     4     3   ar
    31    30    29   ar
    32    30    31    1
    33    29    38    1
    34    19    14   ar
    35    38    36   ar
    36     2     3   ar
    37     2     7    1
    38    14    21    1
    39    12    10    1
    40     3    10    1
    41    39    44    1
    42    39    37   ar
    43     7     8    3
    44    21    22    3
    45    36    37   ar
    46    36    45    1
    47     8     9    1
    48    37    40    1
    49    10    11    1
    50    10    13    1
    51    22    23    1
    52    45    46    3
    53    46    47    1
