@<TRIPOS>MOLECULE
mol_data/opt/b3lyp/geoms/mol2/12ei12ei12ei12ei.out
 50 53 0 0 0
SMALL
GASTEIGER

@<TRIPOS>ATOM
      1 C           0.8037    2.1117   -1.9050 C.ar    1  LIG1        0.1083
      2 C           1.8667    1.8862   -1.0685 C.ar    1  LIG1        0.0659
      3 C           2.0172    3.0850   -0.2720 C.ar    1  LIG1        0.0138
      4 C           1.0371    3.9408   -0.7116 C.ar    1  LIG1        0.1750
      5 O           0.2899    3.3427   -1.7052 O.2     1  LIG1       -0.4583
      6 H           0.3248    1.5038   -2.6565 H       1  LIG1        0.1042
      7 C           2.6471    0.7049   -0.9767 C.1     1  LIG1       -0.0662
      8 C           3.3234   -0.2939   -0.8808 C.1     1  LIG1       -0.1138
      9 H           3.9139   -1.1772   -0.8050 H       1  LIG1        0.1232
     10 C           3.0103    3.2754    0.8296 C.3     1  LIG1       -0.0348
     11 H           2.6540    3.9998    1.5650 H       1  LIG1        0.0279
     12 H           3.9691    3.6445    0.4495 H       1  LIG1        0.0279
     13 H           3.1981    2.3228    1.3334 H       1  LIG1        0.0279
     14 C           0.6433    5.2768   -0.3412 C.ar    1  LIG1        0.1865
     15 C           1.3449    6.3985    0.0707 C.ar    1  LIG1        0.0771
     16 C           0.3671    7.4298    0.3207 C.ar    1  LIG1        0.0145
     17 C          -0.8475    6.8712    0.0048 C.ar    1  LIG1        0.1761
     18 O          -0.6851    5.5619   -0.3867 O.2     1  LIG1       -0.4470
     19 C           2.7482    6.5590    0.1829 C.1     1  LIG1       -0.0655
     20 C           3.9406    6.7464    0.2802 C.1     1  LIG1       -0.1138
     21 H           4.9918    6.9041    0.3503 H       1  LIG1        0.1232
     22 C           0.6664    8.7963    0.8487 C.3     1  LIG1       -0.0348
     23 H          -0.1974    9.2188    1.3657 H       1  LIG1        0.0279
     24 H           0.9345    9.4901    0.0447 H       1  LIG1        0.0279
     25 H           1.5098    8.7534    1.5438 H       1  LIG1        0.0279
     26 C          -2.2013    7.3630    0.0225 C.ar    1  LIG1        0.1866
     27 C          -2.7731    8.5979   -0.2401 C.ar    1  LIG1        0.0771
     28 C          -4.1913    8.4534   -0.0161 C.ar    1  LIG1        0.0145
     29 C          -4.3789    7.1366    0.3253 C.ar    1  LIG1        0.1760
     30 O          -3.1742    6.4739    0.3595 O.2     1  LIG1       -0.4470
     31 C          -2.1358    9.7780   -0.6970 C.1     1  LIG1       -0.0655
     32 C          -1.6376   10.8052   -1.1009 C.1     1  LIG1       -0.1138
     33 H          -1.1908   11.6996   -1.4686 H       1  LIG1        0.1232
     34 C          -5.2015    9.5510   -0.1180 C.3     1  LIG1       -0.0348
     35 H          -6.0753    9.3422    0.5027 H       1  LIG1        0.0279
     36 H          -5.5574    9.6783   -1.1461 H       1  LIG1        0.0279
     37 H          -4.7596   10.4998    0.1994 H       1  LIG1        0.0279
     38 C          -5.5438    6.3550    0.6568 C.ar    1  LIG1        0.1855
     39 C          -6.8559    6.3613    0.2147 C.ar    1  LIG1        0.0763
     40 C          -7.5441    5.3288    0.9631 C.ar    1  LIG1        0.0034
     41 C          -6.5994    4.7794    1.7708 C.ar    1  LIG1        0.0968
     42 O          -5.3875    5.3849    1.6038 O.2     1  LIG1       -0.4583
     43 H          -6.6266    3.9764    2.4912 H       1  LIG1        0.1032
     44 C          -7.4280    7.1409   -0.8203 C.1     1  LIG1       -0.0655
     45 C          -7.9571    7.7735   -1.7072 C.1     1  LIG1       -0.1138
     46 H          -8.4095    8.3269   -2.4971 H       1  LIG1        0.1232
     47 C          -8.9864    4.9538    0.8323 C.3     1  LIG1       -0.0355
     48 H          -9.2368    4.1157    1.4880 H       1  LIG1        0.0279
     49 H          -9.2271    4.6655   -0.1966 H       1  LIG1        0.0279
     50 H          -9.6398    5.7944    1.0903 H       1  LIG1        0.0279
@<TRIPOS>BOND
     1     6     1    1
     2    46    45    1
     3     1     5   ar
     4     1     2   ar
     5    45    44    3
     6     5     4   ar
     7    33    32    1
     8    36    34    1
     9    32    31    3
    10     2     7    1
    11     2     3   ar
    12     7     8    3
    13     8     9    1
    14    44    39    1
    15     4    14    1
    16     4     3   ar
    17    31    27    1
    18    18    14   ar
    19    18    17   ar
    20    14    15   ar
    21     3    10    1
    22    27    28   ar
    23    27    26   ar
    24    49    47    1
    25    34    28    1
    26    34    37    1
    27    34    35    1
    28    28    29   ar
    29    17    26    1
    30    17    16   ar
    31    26    30   ar
    32    24    22    1
    33    15    19    1
    34    15    16   ar
    35    19    20    3
    36    39    38   ar
    37    39    40   ar
    38    20    21    1
    39    16    22    1
    40    29    30   ar
    41    29    38    1
    42    12    10    1
    43    38    42   ar
    44    10    13    1
    45    10    11    1
    46    47    40    1
    47    47    50    1
    48    47    48    1
    49    22    23    1
    50    22    25    1
    51    40    41   ar
    52    42    41   ar
    53    41    43    1
