@<TRIPOS>MOLECULE
mol_data/opt/b3lyp/geoms/mol2/12ei12ei12ei-12ei.out
 50 53 0 0 0
SMALL
GASTEIGER

@<TRIPOS>ATOM
      1 C           0.3952    1.6661   -0.6465 C.ar    1  LIG1        0.1083
      2 C           1.6252    1.6710   -0.0401 C.ar    1  LIG1        0.0659
      3 C           1.9414    3.0577    0.2251 C.ar    1  LIG1        0.0138
      4 C           0.8756    3.7748   -0.2632 C.ar    1  LIG1        0.1750
      5 O          -0.0737    2.9230   -0.7888 O.2     1  LIG1       -0.4583
      6 H          -0.2360    0.8702   -1.0092 H       1  LIG1        0.1042
      7 C           2.4192    0.5426    0.2906 C.1     1  LIG1       -0.0662
      8 C           3.1103   -0.4066    0.5832 C.1     1  LIG1       -0.1138
      9 H           3.7123   -1.2485    0.8354 H       1  LIG1        0.1232
     10 C           3.1594    3.5492    0.9399 C.3     1  LIG1       -0.0348
     11 H           2.9641    4.4932    1.4533 H       1  LIG1        0.0279
     12 H           3.9909    3.7235    0.2485 H       1  LIG1        0.0279
     13 H           3.4871    2.8081    1.6744 H       1  LIG1        0.0279
     14 C           0.5640    5.1795   -0.3139 C.ar    1  LIG1        0.1865
     15 C           1.3282    6.3234   -0.4807 C.ar    1  LIG1        0.0771
     16 C           0.4228    7.4434   -0.4224 C.ar    1  LIG1        0.0145
     17 C          -0.8286    6.8954   -0.2425 C.ar    1  LIG1        0.1761
     18 O          -0.7441    5.5263   -0.1739 O.2     1  LIG1       -0.4470
     19 C           2.7168    6.4130   -0.7487 C.1     1  LIG1       -0.0655
     20 C           3.8961    6.5362   -0.9941 C.1     1  LIG1       -0.1138
     21 H           4.9322    6.6334   -1.2219 H       1  LIG1        0.1232
     22 C           0.8241    8.8744   -0.5904 C.3     1  LIG1       -0.0348
     23 H           0.0207    9.5584   -0.3197 H       1  LIG1        0.0279
     24 H           1.1092    9.0753   -1.6302 H       1  LIG1        0.0279
     25 H           1.7015    9.0967    0.0261 H       1  LIG1        0.0279
     26 C          -2.1508    7.4376   -0.1270 C.ar    1  LIG1        0.1866
     27 C          -3.4067    6.8501   -0.0455 C.ar    1  LIG1        0.0771
     28 C          -4.3593    7.9257    0.0447 C.ar    1  LIG1        0.0145
     29 C          -3.6182    9.0850    0.0122 C.ar    1  LIG1        0.1760
     30 O          -2.2789    8.7930   -0.0915 O.2     1  LIG1       -0.4470
     31 C          -3.7328    5.4722   -0.0452 C.1     1  LIG1       -0.0655
     32 C          -4.0693    4.3096   -0.0395 C.1     1  LIG1       -0.1138
     33 H          -4.3348    3.2782   -0.0385 H       1  LIG1        0.1232
     34 C          -5.8441    7.7639    0.1483 C.3     1  LIG1       -0.0348
     35 H          -6.0879    6.7376    0.4323 H       1  LIG1        0.0279
     36 H          -6.3358    7.9730   -0.8085 H       1  LIG1        0.0279
     37 H          -6.2714    8.4484    0.8849 H       1  LIG1        0.0279
     38 C          -3.9853   10.4697    0.0665 C.ar    1  LIG1        0.1855
     39 C          -3.2823   11.6572    0.2014 C.ar    1  LIG1        0.0763
     40 C          -4.2707   12.7177    0.1826 C.ar    1  LIG1        0.0034
     41 C          -5.4707   12.0981    0.0454 C.ar    1  LIG1        0.0968
     42 O          -5.3206   10.7393   -0.0284 O.2     1  LIG1       -0.4583
     43 H          -6.4850   12.4603   -0.0151 H       1  LIG1        0.1032
     44 C          -1.8910   11.8570    0.3627 C.1     1  LIG1       -0.0655
     45 C          -0.7159   12.1097    0.5148 C.1     1  LIG1       -0.1138
     46 H           0.3198   12.3149    0.6545 H       1  LIG1        0.1232
     47 C          -3.9923   14.1826    0.2996 C.3     1  LIG1       -0.0355
     48 H          -4.9175   14.7639    0.2697 H       1  LIG1        0.0279
     49 H          -3.3457   14.5278   -0.5143 H       1  LIG1        0.0279
     50 H          -3.4750   14.4113    1.2376 H       1  LIG1        0.0279
@<TRIPOS>BOND
     1    24    22    1
     2    21    20    1
     3     6     1    1
     4    20    19    3
     5    36    34    1
     6     5     1   ar
     7     5     4   ar
     8    19    15    1
     9     1     2   ar
    10    22    16    1
    11    22    23    1
    12    22    25    1
    13    49    47    1
    14    15    16   ar
    15    15    14   ar
    16    16    17   ar
    17    14     4    1
    18    14    18   ar
    19     4     3   ar
    20    17    18   ar
    21    17    26    1
    22    26    30   ar
    23    26    27   ar
    24    30    29   ar
    25    27    31    1
    26    27    28   ar
    27    31    32    3
    28     2     3   ar
    29     2     7    1
    30    32    33    1
    31    42    41   ar
    32    42    38   ar
    33    43    41    1
    34    29    28   ar
    35    29    38    1
    36    28    34    1
    37    41    40   ar
    38    38    39   ar
    39    34    35    1
    40    34    37    1
    41    40    39   ar
    42    40    47    1
    43    39    44    1
    44     3    10    1
    45    12    10    1
    46    48    47    1
    47     7     8    3
    48    47    50    1
    49    44    45    3
    50    45    46    1
    51     8     9    1
    52    10    11    1
    53    10    13    1
