@<TRIPOS>MOLECULE
mol_data/opt/b3lyp/geoms/mol2/12ei12ei-12ei12ei.out
 50 53 0 0 0
SMALL
GASTEIGER

@<TRIPOS>ATOM
      1 C           0.0942    1.7033   -0.2146 C.ar    1  LIG1        0.1083
      2 C           1.4593    1.6496   -0.3297 C.ar    1  LIG1        0.0659
      3 C           1.9292    3.0159   -0.2664 C.ar    1  LIG1        0.0138
      4 C           0.7953    3.7831   -0.1152 C.ar    1  LIG1        0.1750
      5 O          -0.3228    2.9805   -0.0845 O.2     1  LIG1       -0.4583
      6 H          -0.6704    0.9429   -0.2068 H       1  LIG1        0.1042
      7 C           2.2591    0.4871   -0.4789 C.1     1  LIG1       -0.0662
      8 C           2.9582   -0.4924   -0.6051 C.1     1  LIG1       -0.1138
      9 H           3.5659   -1.3601   -0.7174 H       1  LIG1        0.1232
     10 C           3.3596    3.4369   -0.3828 C.3     1  LIG1       -0.0348
     11 H           3.5102    4.4663   -0.0598 H       1  LIG1        0.0279
     12 H           3.7047    3.3521   -1.4207 H       1  LIG1        0.0279
     13 H           3.9969    2.7788    0.2170 H       1  LIG1        0.0279
     14 C           0.5457    5.1915    0.0025 C.ar    1  LIG1        0.1865
     15 C          -0.6217    5.9420    0.0427 C.ar    1  LIG1        0.0771
     16 C          -0.2219    7.3202    0.1594 C.ar    1  LIG1        0.0145
     17 C           1.1547    7.3091    0.1813 C.ar    1  LIG1        0.1761
     18 O           1.6228    6.0185    0.0867 O.2     1  LIG1       -0.4470
     19 C          -1.9621    5.4883   -0.0137 C.1     1  LIG1       -0.0655
     20 C          -3.1267    5.1612   -0.0569 C.1     1  LIG1       -0.1138
     21 H          -4.1446    4.8500   -0.0978 H       1  LIG1        0.1232
     22 C          -1.1576    8.4860    0.2317 C.3     1  LIG1       -0.0348
     23 H          -2.0905    8.1879    0.7176 H       1  LIG1        0.0279
     24 H          -1.4143    8.8460   -0.7720 H       1  LIG1        0.0279
     25 H          -0.7180    9.3234    0.7748 H       1  LIG1        0.0279
     26 C           2.1328    8.3502    0.2849 C.ar    1  LIG1        0.1866
     27 C           3.5027    8.3752    0.5103 C.ar    1  LIG1        0.0771
     28 C           3.8919    9.7649    0.5225 C.ar    1  LIG1        0.0145
     29 C           2.7430   10.4793    0.2907 C.ar    1  LIG1        0.1760
     30 O           1.6718    9.6226    0.1484 O.2     1  LIG1       -0.4470
     31 C           4.3787    7.2917    0.7594 C.1     1  LIG1       -0.0655
     32 C           5.1851    6.4184    0.9927 C.1     1  LIG1       -0.1138
     33 H           5.8799    5.6388    1.2023 H       1  LIG1        0.1232
     34 C           5.2699   10.2727    0.8032 C.3     1  LIG1       -0.0348
     35 H           5.2417   11.2748    1.2362 H       1  LIG1        0.0279
     36 H           5.8719   10.3308   -0.1099 H       1  LIG1        0.0279
     37 H           5.7824    9.5998    1.4964 H       1  LIG1        0.0279
     38 C           2.4398   11.8829    0.1937 C.ar    1  LIG1        0.1855
     39 C           3.1327   12.9831   -0.2834 C.ar    1  LIG1        0.0763
     40 C           2.2704   14.1297   -0.0775 C.ar    1  LIG1        0.0034
     41 C           1.1356   13.6328    0.4804 C.ar    1  LIG1        0.0968
     42 O           1.2171   12.2801    0.6547 O.2     1  LIG1       -0.4583
     43 H           0.2111   14.0910    0.7962 H       1  LIG1        0.1032
     44 C           4.3914   13.0126   -0.9317 C.1     1  LIG1       -0.0655
     45 C           5.4556   13.0860   -1.5054 C.1     1  LIG1       -0.1138
     46 H           6.3879   13.1378   -2.0181 H       1  LIG1        0.1232
     47 C           2.5840   15.5473   -0.4377 C.3     1  LIG1       -0.0355
     48 H           1.7433   16.2074   -0.2090 H       1  LIG1        0.0279
     49 H           2.8118   15.6415   -1.5049 H       1  LIG1        0.0279
     50 H           3.4604   15.9106    0.1099 H       1  LIG1        0.0279
@<TRIPOS>BOND
     1    46    45    1
     2    45    44    3
     3    49    47    1
     4    12    10    1
     5    44    39    1
     6    24    22    1
     7     9     8    1
     8     8     7    3
     9     7     2    1
    10    47    48    1
    11    47    40    1
    12    47    50    1
    13    10     3    1
    14    10    11    1
    15    10    13    1
    16     2     3   ar
    17     2     1   ar
    18    39    40   ar
    19    39    38   ar
    20     3     4   ar
    21     1     6    1
    22     1     5   ar
    23     4     5   ar
    24     4    14    1
    25    36    34    1
    26    21    20    1
    27    40    41   ar
    28    20    19    3
    29    19    15    1
    30    14    15   ar
    31    14    18   ar
    32    15    16   ar
    33    18    17   ar
    34    30    26   ar
    35    30    29   ar
    36    16    17   ar
    37    16    22    1
    38    17    26    1
    39    38    29    1
    40    38    42   ar
    41    22    23    1
    42    22    25    1
    43    26    27   ar
    44    29    28   ar
    45    41    42   ar
    46    41    43    1
    47    27    28   ar
    48    27    31    1
    49    28    34    1
    50    31    32    3
    51    34    35    1
    52    34    37    1
    53    32    33    1
