@<TRIPOS>MOLECULE
mol_data/opt/b3lyp/geoms/mol2/12ei12ei.out
 26 27 0 0 0
SMALL
GASTEIGER

@<TRIPOS>ATOM
      1 C           0.2398    1.8105   -0.6293 C.ar    1  LIG1        0.1083
      2 C           1.5418    1.7742   -0.2017 C.ar    1  LIG1        0.0659
      3 C           1.8896    3.1335    0.1552 C.ar    1  LIG1        0.0138
      4 C           0.7667    3.8784   -0.1059 C.ar    1  LIG1        0.1750
      5 O          -0.2455    3.0692   -0.5794 O.2     1  LIG1       -0.4583
      6 H          -0.4359    1.0450   -0.9772 H       1  LIG1        0.1042
      7 C           2.3764    0.6315   -0.0985 C.1     1  LIG1       -0.0662
      8 C           3.1041   -0.3304   -0.0004 C.1     1  LIG1       -0.1138
      9 H           3.7378   -1.1827    0.0812 H       1  LIG1        0.1232
     10 C           3.1951    3.5732    0.7366 C.3     1  LIG1       -0.0348
     11 H           3.0780    4.4813    1.3319 H       1  LIG1        0.0279
     12 H           3.9321    3.7907   -0.0441 H       1  LIG1        0.0279
     13 H           3.6084    2.7843    1.3718 H       1  LIG1        0.0279
     14 C           0.4512    5.2795    0.0272 C.ar    1  LIG1        0.1855
     15 C           1.1795    6.4417   -0.1565 C.ar    1  LIG1        0.0763
     16 C           0.2870    7.5385    0.1620 C.ar    1  LIG1        0.0034
     17 C          -0.8961    6.9562    0.4894 C.ar    1  LIG1        0.0968
     18 O          -0.8181    5.5944    0.4174 O.2     1  LIG1       -0.4583
     19 H          -1.8552    7.3557    0.7806 H       1  LIG1        0.1032
     20 C           2.5046    6.5751   -0.6394 C.1     1  LIG1       -0.0655
     21 C           3.6279    6.7369   -1.0622 C.1     1  LIG1       -0.1138
     22 H           4.6131    6.8691   -1.4452 H       1  LIG1        0.1232
     23 C           0.6211    8.9957    0.1082 C.3     1  LIG1       -0.0355
     24 H          -0.2466    9.6085    0.3663 H       1  LIG1        0.0279
     25 H           0.9585    9.2865   -0.8924 H       1  LIG1        0.0279
     26 H           1.4308    9.2428    0.8034 H       1  LIG1        0.0279
@<TRIPOS>BOND
     1    22    21    1
     2    21    20    3
     3     6     1    1
     4    25    23    1
     5    20    15    1
     6     1     5   ar
     7     1     2   ar
     8     5     4   ar
     9     2     7    1
    10     2     3   ar
    11    15    14   ar
    12    15    16   ar
    13     4    14    1
    14     4     3   ar
    15     7     8    3
    16    12    10    1
    17     8     9    1
    18    14    18   ar
    19    23    16    1
    20    23    24    1
    21    23    26    1
    22     3    10    1
    23    16    17   ar
    24    18    17   ar
    25    17    19    1
    26    10    11    1
    27    10    13    1
