@<TRIPOS>MOLECULE
mol_data/opt/b3lyp/geoms/mol2/12ei12ei-12ei-12ei.out
 50 53 0 0 0
SMALL
GASTEIGER

@<TRIPOS>ATOM
      1 C          -0.0557    1.7005   -0.1484 C.ar    1  LIG1        0.1083
      2 C           1.2492    1.6687   -0.5713 C.ar    1  LIG1        0.0659
      3 C           1.7153    3.0373   -0.5643 C.ar    1  LIG1        0.0138
      4 C           0.6390    3.7812   -0.1330 C.ar    1  LIG1        0.1750
      5 O          -0.4390    2.9675    0.1200 O.2     1  LIG1       -0.4583
      6 H          -0.7950    0.9303    0.0030 H       1  LIG1        0.1042
      7 C           1.9968    0.5197   -0.9380 C.1     1  LIG1       -0.0662
      8 C           2.6504   -0.4488   -1.2527 C.1     1  LIG1       -0.1138
      9 H           3.2172   -1.3071   -1.5302 H       1  LIG1        0.1232
     10 C           3.0805    3.5008   -0.9686 C.3     1  LIG1       -0.0348
     11 H           3.4788    4.2520   -0.2822 H       1  LIG1        0.0279
     12 H           3.0650    3.9596   -1.9642 H       1  LIG1        0.0279
     13 H           3.7674    2.6517   -1.0060 H       1  LIG1        0.0279
     14 C           0.4525    5.1846    0.0895 C.ar    1  LIG1        0.1865
     15 C          -0.6120    5.9551    0.5354 C.ar    1  LIG1        0.0771
     16 C          -0.1486    7.3207    0.5543 C.ar    1  LIG1        0.0145
     17 C           1.1493    7.2836    0.1036 C.ar    1  LIG1        0.1761
     18 O           1.5178    5.9839   -0.1750 O.2     1  LIG1       -0.4470
     19 C          -1.8990    5.5233    0.9378 C.1     1  LIG1       -0.0655
     20 C          -3.0119    5.2078    1.2949 C.1     1  LIG1       -0.1138
     21 H          -3.9864    4.9083    1.6032 H       1  LIG1        0.1232
     22 C          -0.9404    8.4935    1.0371 C.3     1  LIG1       -0.0348
     23 H          -1.6264    8.1801    1.8289 H       1  LIG1        0.0279
     24 H          -1.5401    8.9337    0.2332 H       1  LIG1        0.0279
     25 H          -0.2885    9.2803    1.4223 H       1  LIG1        0.0279
     26 C           2.1677    8.2763   -0.0993 C.ar    1  LIG1        0.1866
     27 C           2.1541    9.6045   -0.5014 C.ar    1  LIG1        0.0771
     28 C           3.5230   10.0544   -0.4987 C.ar    1  LIG1        0.0145
     29 C           4.2678    8.9613   -0.1159 C.ar    1  LIG1        0.1760
     30 O           3.4537    7.8868    0.1286 O.2     1  LIG1       -0.4470
     31 C           1.0409   10.3743   -0.9207 C.1     1  LIG1       -0.0655
     32 C           0.1209   11.0641   -1.3006 C.1     1  LIG1       -0.1138
     33 H          -0.6951   11.6569   -1.6435 H       1  LIG1        0.1232
     34 C           3.9948   11.4255   -0.8725 C.3     1  LIG1       -0.0348
     35 H           3.1468   12.1120   -0.9261 H       1  LIG1        0.0279
     36 H           4.4907   11.4259   -1.8497 H       1  LIG1        0.0279
     37 H           4.7161   11.8117   -0.1477 H       1  LIG1        0.0279
     38 C           5.6748    8.7549    0.0650 C.ar    1  LIG1        0.1855
     39 C           6.4360    7.6941    0.5299 C.ar    1  LIG1        0.0763
     40 C           7.8171    8.1283    0.4606 C.ar    1  LIG1        0.0034
     41 C           7.7796    9.3948   -0.0281 C.ar    1  LIG1        0.0968
     42 O           6.4929    9.7930   -0.2755 O.2     1  LIG1       -0.4583
     43 H           8.5449   10.1216   -0.2515 H       1  LIG1        0.1032
     44 C           6.0011    6.4351    1.0075 C.1     1  LIG1       -0.0655
     45 C           5.6942    5.3443    1.4355 C.1     1  LIG1       -0.1138
     46 H           5.4052    4.3942    1.8206 H       1  LIG1        0.1232
     47 C           9.0137    7.3234    0.8578 C.3     1  LIG1       -0.0355
     48 H           9.9374    7.8888    0.7096 H       1  LIG1        0.0279
     49 H           9.0801    6.4006    0.2715 H       1  LIG1        0.0279
     50 H           8.9582    7.0290    1.9113 H       1  LIG1        0.0279
@<TRIPOS>BOND
     1    12    10    1
     2    36    34    1
     3    33    32    1
     4     9     8    1
     5    32    31    3
     6     8     7    3
     7    13    10    1
     8    10     3    1
     9    10    11    1
    10     7     2    1
    11    35    34    1
    12    31    27    1
    13    34    28    1
    14    34    37    1
    15     2     3   ar
    16     2     1   ar
    17     3     4   ar
    18    27    28   ar
    19    27    26   ar
    20    28    29   ar
    21    42    41   ar
    22    42    38   ar
    23    43    41    1
    24    18    14   ar
    25    18    17   ar
    26     1     6    1
    27     1     5   ar
    28     4    14    1
    29     4     5   ar
    30    29    38    1
    31    29    30   ar
    32    26    17    1
    33    26    30   ar
    34    41    40   ar
    35    38    39   ar
    36    14    15   ar
    37    17    16   ar
    38    24    22    1
    39    49    47    1
    40    40    39   ar
    41    40    47    1
    42    39    44    1
    43    15    16   ar
    44    15    19    1
    45    16    22    1
    46    48    47    1
    47    47    50    1
    48    19    20    3
    49    44    45    3
    50    22    25    1
    51    22    23    1
    52    20    21    1
    53    45    46    1
