@<TRIPOS>MOLECULE
mol_data/opt/b3lyp/geoms/mol2/12ei12ei12ei12ei-.out
 50 53 0 0 0
SMALL
GASTEIGER

@<TRIPOS>ATOM
      1 C           0.9768    2.1348   -1.8900 C.ar    1  LIG1        0.1083
      2 C           1.9711    1.9122   -0.9722 C.ar    1  LIG1        0.0659
      3 C           2.0493    3.1080   -0.1608 C.ar    1  LIG1        0.0138
      4 C           1.1011    3.9596   -0.6733 C.ar    1  LIG1        0.1750
      5 O           0.4399    3.3613   -1.7260 O.2     1  LIG1       -0.4583
      6 H           0.5644    1.5282   -2.6809 H       1  LIG1        0.1042
      7 C           2.7496    0.7354   -0.8236 C.1     1  LIG1       -0.0662
      8 C           3.4221   -0.2600   -0.6782 C.1     1  LIG1       -0.1138
      9 H           4.0109   -1.1398   -0.5596 H       1  LIG1        0.1232
     10 C           2.9509    3.3003    1.0166 C.3     1  LIG1       -0.0348
     11 H           2.5305    4.0161    1.7261 H       1  LIG1        0.0279
     12 H           3.9323    3.6820    0.7150 H       1  LIG1        0.0279
     13 H           3.1088    2.3462    1.5275 H       1  LIG1        0.0279
     14 C           0.6687    5.2906   -0.3292 C.ar    1  LIG1        0.1865
     15 C           1.3254    6.4150    0.1451 C.ar    1  LIG1        0.0771
     16 C           0.3224    7.4368    0.3215 C.ar    1  LIG1        0.0145
     17 C          -0.8585    6.8708   -0.0959 C.ar    1  LIG1        0.1761
     18 O          -0.6541    5.5658   -0.4807 O.2     1  LIG1       -0.4470
     19 C           2.7135    6.5851    0.3729 C.1     1  LIG1       -0.0655
     20 C           3.8924    6.7805    0.5689 C.1     1  LIG1       -0.1138
     21 H           4.9330    6.9455    0.7262 H       1  LIG1        0.1232
     22 C           0.5652    8.8016    0.8817 C.3     1  LIG1       -0.0348
     23 H          -0.3383    9.2059    1.3428 H       1  LIG1        0.0279
     24 H           0.8763    9.5084    0.1050 H       1  LIG1        0.0279
     25 H           1.3597    8.7632    1.6324 H       1  LIG1        0.0279
     26 C          -2.2115    7.3529   -0.1822 C.ar    1  LIG1        0.1866
     27 C          -2.7730    8.5873   -0.4729 C.ar    1  LIG1        0.0771
     28 C          -4.2025    8.4261   -0.3842 C.ar    1  LIG1        0.0145
     29 C          -4.4023    7.1022   -0.0623 C.ar    1  LIG1        0.1760
     30 O          -3.2032    6.4518    0.0619 O.2     1  LIG1       -0.4470
     31 C          -2.1079    9.7705   -0.8805 C.1     1  LIG1       -0.0655
     32 C          -1.5833   10.7978   -1.2489 C.1     1  LIG1       -0.1138
     33 H          -1.1109   11.6927   -1.5819 H       1  LIG1        0.1232
     34 C          -5.2171    9.5019   -0.6185 C.3     1  LIG1       -0.0348
     35 H          -5.5581    9.9411    0.3267 H       1  LIG1        0.0279
     36 H          -6.0996    9.1150   -1.1316 H       1  LIG1        0.0279
     37 H          -4.7803   10.3053   -1.2169 H       1  LIG1        0.0279
     38 C          -5.5812    6.3145    0.1567 C.ar    1  LIG1        0.1855
     39 C          -5.7975    4.9710    0.4174 C.ar    1  LIG1        0.0763
     40 C          -7.2323    4.8104    0.5415 C.ar    1  LIG1        0.0034
     41 C          -7.7582    6.0477    0.3494 C.ar    1  LIG1        0.0968
     42 O          -6.7762    6.9731    0.1165 O.2     1  LIG1       -0.4583
     43 H          -8.7679    6.4275    0.3469 H       1  LIG1        0.1032
     44 C          -4.8435    3.9330    0.5385 C.1     1  LIG1       -0.0655
     45 C          -4.0679    3.0103    0.6504 C.1     1  LIG1       -0.1138
     46 H          -3.3608    2.2188    0.7394 H       1  LIG1        0.1232
     47 C          -7.9530    3.5303    0.8233 C.3     1  LIG1       -0.0355
     48 H          -7.6288    3.0976    1.7758 H       1  LIG1        0.0279
     49 H          -7.7485    2.7844    0.0477 H       1  LIG1        0.0279
     50 H          -9.0339    3.6867    0.8696 H       1  LIG1        0.0279
@<TRIPOS>BOND
     1     6     1    1
     2     1     5   ar
     3     1     2   ar
     4     5     4   ar
     5    33    32    1
     6    32    31    3
     7    37    34    1
     8    36    34    1
     9     2     7    1
    10     2     3   ar
    11    31    27    1
    12     7     8    3
    13     8     9    1
    14     4    14    1
    15     4     3   ar
    16    34    28    1
    17    34    35    1
    18    18    14   ar
    19    18    17   ar
    20    27    28   ar
    21    27    26   ar
    22    28    29   ar
    23    14    15   ar
    24    26    17    1
    25    26    30   ar
    26     3    10    1
    27    17    16   ar
    28    29    30   ar
    29    29    38    1
    30    49    47    1
    31    24    22    1
    32    42    38   ar
    33    42    41   ar
    34    15    16   ar
    35    15    19    1
    36    38    39   ar
    37    16    22    1
    38    43    41    1
    39    41    40   ar
    40    19    20    3
    41    39    44    1
    42    39    40   ar
    43    44    45    3
    44    40    47    1
    45    20    21    1
    46    45    46    1
    47    12    10    1
    48    47    50    1
    49    47    48    1
    50    22    23    1
    51    22    25    1
    52    10    13    1
    53    10    11    1
