@<TRIPOS>MOLECULE
mol_data/opt/b3lyp/geoms/mol2/12ei12ei12ei.out
 38 40 0 0 0
SMALL
GASTEIGER

@<TRIPOS>ATOM
      1 C           0.4750    1.8693   -1.1991 C.ar    1  LIG1        0.1083
      2 C           1.6621    1.7688   -0.5201 C.ar    1  LIG1        0.0659
      3 C           1.9264    3.0806    0.0311 C.ar    1  LIG1        0.0138
      4 C           0.8785    3.8673   -0.3801 C.ar    1  LIG1        0.1750
      5 O          -0.0134    3.1248   -1.1262 O.2     1  LIG1       -0.4583
      6 H          -0.1126    1.1530   -1.7513 H       1  LIG1        0.1042
      7 C           2.4602    0.6066   -0.3607 C.1     1  LIG1       -0.0662
      8 C           3.1540   -0.3734   -0.2108 C.1     1  LIG1       -0.1138
      9 H           3.7588   -1.2413   -0.0857 H       1  LIG1        0.1232
     10 C           3.0826    3.4360    0.9102 C.3     1  LIG1       -0.0348
     11 H           2.8433    4.2818    1.5581 H       1  LIG1        0.0279
     12 H           3.9645    3.7159    0.3240 H       1  LIG1        0.0279
     13 H           3.3571    2.5798    1.5331 H       1  LIG1        0.0279
     14 C           0.5362    5.2528   -0.1782 C.ar    1  LIG1        0.1865
     15 C           1.2834    6.4153   -0.0822 C.ar    1  LIG1        0.0771
     16 C           0.3490    7.4896    0.1557 C.ar    1  LIG1        0.0145
     17 C          -0.8940    6.9066    0.1463 C.ar    1  LIG1        0.1760
     18 O          -0.7849    5.5484   -0.0459 O.2     1  LIG1       -0.4470
     19 C           2.6835    6.5684   -0.2362 C.1     1  LIG1       -0.0655
     20 C           3.8732    6.7481   -0.3734 C.1     1  LIG1       -0.1138
     21 H           4.9194    6.8967   -0.5083 H       1  LIG1        0.1232
     22 C           0.7145    8.9206    0.3891 C.3     1  LIG1       -0.0348
     23 H          -0.0542    9.4351    0.9692 H       1  LIG1        0.0279
     24 H           0.8292    9.4669   -0.5533 H       1  LIG1        0.0279
     25 H           1.6653    8.9831    0.9260 H       1  LIG1        0.0279
     26 C          -2.2312    7.4191    0.3101 C.ar    1  LIG1        0.1855
     27 C          -2.8539    8.6000   -0.0572 C.ar    1  LIG1        0.0763
     28 C          -4.2180    8.5094    0.4232 C.ar    1  LIG1        0.0034
     29 C          -4.3106    7.2902    1.0162 C.ar    1  LIG1        0.0968
     30 O          -3.1238    6.6179    0.9613 O.2     1  LIG1       -0.4583
     31 H          -5.1219    6.7696    1.5011 H       1  LIG1        0.1032
     32 C          -2.3260    9.6667   -0.8253 C.1     1  LIG1       -0.0655
     33 C          -1.9237   10.5949   -1.4912 C.1     1  LIG1       -0.1138
     34 H          -1.5632   11.4008   -2.0873 H       1  LIG1        0.1232
     35 C          -5.2836    9.5469    0.2624 C.3     1  LIG1       -0.0355
     36 H          -6.2319    9.2066    0.6865 H       1  LIG1        0.0279
     37 H          -5.4478    9.7834   -0.7943 H       1  LIG1        0.0279
     38 H          -5.0048   10.4821    0.7601 H       1  LIG1        0.0279
@<TRIPOS>BOND
     1    34    33    1
     2     6     1    1
     3    33    32    3
     4     1     5   ar
     5     1     2   ar
     6     5     4   ar
     7    32    27    1
     8    37    35    1
     9    24    22    1
    10     2     7    1
    11     2     3   ar
    12    21    20    1
    13     4    14    1
    14     4     3   ar
    15    20    19    3
    16     7     8    3
    17    19    15    1
    18     8     9    1
    19    14    15   ar
    20    14    18   ar
    21    15    16   ar
    22    27    26   ar
    23    27    28   ar
    24    18    17   ar
    25     3    10    1
    26    17    16   ar
    27    17    26    1
    28    16    22    1
    29    35    28    1
    30    35    36    1
    31    35    38    1
    32    26    30   ar
    33    12    10    1
    34    22    25    1
    35    22    23    1
    36    28    29   ar
    37    10    13    1
    38    10    11    1
    39    30    29   ar
    40    29    31    1
