@<TRIPOS>MOLECULE
mol_data/opt/b3lyp/geoms/mol2/12ei12ei12ei-12ei-.out
 50 53 0 0 0
SMALL
GASTEIGER

@<TRIPOS>ATOM
      1 C           0.4361    1.7317   -0.9526 C.ar    1  LIG1        0.1083
      2 C           1.6649    1.6979   -0.3448 C.ar    1  LIG1        0.0659
      3 C           1.9626    3.0593    0.0442 C.ar    1  LIG1        0.0138
      4 C           0.8885    3.8035   -0.3806 C.ar    1  LIG1        0.1750
      5 O          -0.0487    2.9902   -0.9834 O.2     1  LIG1       -0.4583
      6 H          -0.1845    0.9636   -1.3866 H       1  LIG1        0.1042
      7 C           2.4728    0.5548   -0.1132 C.1     1  LIG1       -0.0662
      8 C           3.1755   -0.4077    0.0964 C.1     1  LIG1       -0.1138
      9 H           3.7881   -1.2608    0.2749 H       1  LIG1        0.1232
     10 C           3.1728    3.5001    0.8039 C.3     1  LIG1       -0.0348
     11 H           2.9689    4.4008    1.3869 H       1  LIG1        0.0279
     12 H           4.0085    3.7306    0.1344 H       1  LIG1        0.0279
     13 H           3.4994    2.7060    1.4814 H       1  LIG1        0.0279
     14 C           0.5587    5.2032   -0.3068 C.ar    1  LIG1        0.1865
     15 C           1.3083    6.3676   -0.3726 C.ar    1  LIG1        0.0771
     16 C           0.3887    7.4655   -0.2120 C.ar    1  LIG1        0.0145
     17 C          -0.8544    6.8859   -0.0833 C.ar    1  LIG1        0.1761
     18 O          -0.7543    5.5190   -0.1363 O.2     1  LIG1       -0.4470
     19 C           2.6966    6.4969   -0.6258 C.1     1  LIG1       -0.0655
     20 C           3.8754    6.6551   -0.8532 C.1     1  LIG1       -0.1138
     21 H           4.9112    6.7838   -1.0662 H       1  LIG1        0.1232
     22 C           0.7610    8.9154   -0.2293 C.3     1  LIG1       -0.0348
     23 H           0.0310    9.5241    0.3046 H       1  LIG1        0.0279
     24 H           0.8188    9.2941   -1.2572 H       1  LIG1        0.0279
     25 H           1.7472    9.0572    0.2217 H       1  LIG1        0.0279
     26 C          -2.1730    7.4202    0.0909 C.ar    1  LIG1        0.1866
     27 C          -3.4188    6.8449    0.2969 C.ar    1  LIG1        0.0771
     28 C          -4.3573    7.9337    0.4199 C.ar    1  LIG1        0.0145
     29 C          -3.6226    9.0832    0.2625 C.ar    1  LIG1        0.1760
     30 O          -2.2933    8.7741    0.0657 O.2     1  LIG1       -0.4470
     31 C          -3.7426    5.4719    0.4145 C.1     1  LIG1       -0.0655
     32 C          -4.0724    4.3127    0.5271 C.1     1  LIG1       -0.1138
     33 H          -4.3360    3.2848    0.6188 H       1  LIG1        0.1232
     34 C          -5.8147    7.7860    0.7194 C.3     1  LIG1       -0.0348
     35 H          -5.9808    6.8981    1.3356 H       1  LIG1        0.0279
     36 H          -6.4045    7.6706   -0.1961 H       1  LIG1        0.0279
     37 H          -6.2020    8.6615    1.2448 H       1  LIG1        0.0279
     38 C          -3.9411   10.4867    0.2855 C.ar    1  LIG1        0.1855
     39 C          -5.0461   11.2274   -0.1006 C.ar    1  LIG1        0.0763
     40 C          -4.7389   12.6099    0.2076 C.ar    1  LIG1        0.0034
     41 C          -3.4842   12.5941    0.7281 C.ar    1  LIG1        0.0968
     42 O          -2.9848   11.3236    0.7862 O.2     1  LIG1       -0.4583
     43 H          -2.8284   13.3722    1.0873 H       1  LIG1        0.1032
     44 C          -6.2198   10.7777   -0.7529 C.1     1  LIG1       -0.0655
     45 C          -7.2333   10.4445   -1.3263 C.1     1  LIG1       -0.1138
     46 H          -8.1161   10.1412   -1.8396 H       1  LIG1        0.1232
     47 C          -5.6289   13.7881   -0.0325 C.3     1  LIG1       -0.0355
     48 H          -6.5573   13.7075    0.5434 H       1  LIG1        0.0279
     49 H          -5.9124   13.8595   -1.0880 H       1  LIG1        0.0279
     50 H          -5.1336   14.7204    0.2511 H       1  LIG1        0.0279
@<TRIPOS>BOND
     1    46    45    1
     2     6     1    1
     3    45    44    3
     4    24    22    1
     5    49    47    1
     6    21    20    1
     7     5     1   ar
     8     5     4   ar
     9     1     2   ar
    10    20    19    3
    11    44    39    1
    12    19    15    1
    13     4    14    1
    14     4     3   ar
    15    15    14   ar
    16    15    16   ar
    17     2     7    1
    18     2     3   ar
    19    14    18   ar
    20    22    16    1
    21    22    25    1
    22    22    23    1
    23    16    17   ar
    24    36    34    1
    25    18    17   ar
    26     7     8    3
    27    39    40   ar
    28    39    38   ar
    29    17    26    1
    30    47    40    1
    31    47    50    1
    32    47    48    1
    33     3    10    1
    34    30    26   ar
    35    30    29   ar
    36    26    27   ar
    37     8     9    1
    38    12    10    1
    39    40    41   ar
    40    29    38    1
    41    29    28   ar
    42    38    42   ar
    43    27    31    1
    44    27    28   ar
    45    31    32    3
    46    28    34    1
    47    32    33    1
    48    34    37    1
    49    34    35    1
    50    41    42   ar
    51    41    43    1
    52    10    11    1
    53    10    13    1
