@<TRIPOS>MOLECULE
mol_data/opt/b3lyp/geoms/mol2/12el12el12el12el-.out
 54 57 0 0 0
SMALL
GASTEIGER

@<TRIPOS>ATOM
      1 C           0.1297    1.7004   -0.0083 C.ar    1  LIG1        0.1118
      2 C           1.4993    1.5884   -0.0062 C.ar    1  LIG1        0.1047
      3 C           1.9837    2.9529   -0.0021 C.ar    1  LIG1        0.1842
      4 C           0.8682    3.7758   -0.0019 C.ar    1  LIG1        0.2136
      5 O          -0.2628    2.9832   -0.0057 O.2     1  LIG1       -0.4547
      6 H          -0.6456    0.9505   -0.0116 H       1  LIG1        0.1043
      7 C           2.1989    0.3526   -0.0081 C.1     1  LIG1       -0.0628
      8 C           2.7470   -0.7262   -0.0099 C.1     1  LIG1       -0.1137
      9 H           3.2333   -1.6742   -0.0113 H       1  LIG1        0.1232
     10 O           3.2376    3.4342    0.0010 O.3     1  LIG1       -0.4901
     11 C           4.3401    2.5299    0.0002 C.3     1  LIG1        0.0790
     12 H           5.2287    3.1622    0.0030 H       1  LIG1        0.0660
     13 H           4.3368    1.8946    0.8909 H       1  LIG1        0.0660
     14 H           4.3392    1.8992   -0.8938 H       1  LIG1        0.0660
     15 C           0.6342    5.1930    0.0005 C.ar    1  LIG1        0.1934
     16 C           1.4404    6.3356    0.0034 C.ar    1  LIG1        0.1159
     17 C           0.5170    7.4457    0.0036 C.ar    1  LIG1        0.1849
     18 C          -0.7639    6.9212    0.0010 C.ar    1  LIG1        0.2146
     19 O          -0.6725    5.5477   -0.0007 O.2     1  LIG1       -0.4434
     20 C           2.8568    6.4065    0.0058 C.1     1  LIG1       -0.0620
     21 C           4.0628    6.5101    0.0080 C.1     1  LIG1       -0.1137
     22 H           5.1253    6.5809    0.0098 H       1  LIG1        0.1232
     23 O           0.7257    8.7727    0.0061 O.3     1  LIG1       -0.4901
     24 C           2.0413    9.3195    0.0081 C.3     1  LIG1        0.0790
     25 H           1.8946   10.4006    0.0095 H       1  LIG1        0.0660
     26 H           2.5991    9.0213    0.9000 H       1  LIG1        0.0660
     27 H           2.6008    9.0238   -0.8834 H       1  LIG1        0.0660
     28 C          -2.0909    7.4617   -0.0006 C.ar    1  LIG1        0.1934
     29 C          -2.6526    8.7456   -0.0029 C.ar    1  LIG1        0.1159
     30 C          -4.0824    8.5305   -0.0036 C.ar    1  LIG1        0.1849
     31 C          -4.2894    7.1646   -0.0016 C.ar    1  LIG1        0.2146
     32 O          -3.0754    6.5276    0.0001 O.2     1  LIG1       -0.4434
     33 C          -1.9816    9.9948   -0.0049 C.1     1  LIG1       -0.0620
     34 C          -1.4555   11.0854   -0.0068 C.1     1  LIG1       -0.1137
     35 H          -0.9755   12.0359   -0.0089 H       1  LIG1        0.1232
     36 O          -5.1213    9.3902   -0.0056 O.3     1  LIG1       -0.4901
     37 C          -4.9005   10.7984   -0.0078 C.3     1  LIG1        0.0790
     38 H          -5.8978   11.2414   -0.0092 H       1  LIG1        0.0660
     39 H          -4.3552   11.1219    0.8831 H       1  LIG1        0.0660
     40 H          -4.3540   11.1190   -0.8991 H       1  LIG1        0.0660
     41 C          -5.4651    6.3524   -0.0008 C.ar    1  LIG1        0.1924
     42 C          -5.6533    4.9761    0.0035 C.ar    1  LIG1        0.1152
     43 C          -7.0853    4.7945    0.0017 C.ar    1  LIG1        0.1737
     44 C          -7.6533    6.0350   -0.0035 C.ar    1  LIG1        0.1355
     45 O          -6.6650    6.9922   -0.0050 O.2     1  LIG1       -0.4547
     46 H          -8.6652    6.4013   -0.0064 H       1  LIG1        0.1068
     47 C          -4.6803    3.9530    0.0098 C.1     1  LIG1       -0.0621
     48 C          -3.8556    3.0676    0.0159 C.1     1  LIG1       -0.1137
     49 H          -3.1032    2.3164    0.0220 H       1  LIG1        0.1232
     50 O          -7.6558    3.5690    0.0050 O.3     1  LIG1       -0.4907
     51 C          -9.0764    3.5668    0.0028 C.3     1  LIG1        0.0790
     52 H          -9.3860    2.5212    0.0059 H       1  LIG1        0.0660
     53 H          -9.4736    4.0697    0.8945 H       1  LIG1        0.0660
     54 H          -9.4708    4.0635   -0.8937 H       1  LIG1        0.0660
@<TRIPOS>BOND
     1    40    37    1
     2    14    11    1
     3    54    51    1
     4    27    24    1
     5     6     1    1
     6     9     8    1
     7     8     7    3
     8    38    37    1
     9    35    34    1
    10     1     2   ar
    11     1     5   ar
    12     7     2    1
    13    37    36    1
    14    37    39    1
    15    34    33    3
    16    46    44    1
    17     2     3   ar
    18     5     4   ar
    19    36    30    1
    20    45    44   ar
    21    45    41   ar
    22    33    29    1
    23    30    29   ar
    24    30    31   ar
    25    44    43   ar
    26    29    28   ar
    27     3     4   ar
    28     3    10    1
    29     4    15    1
    30    31    41    1
    31    31    32   ar
    32    41    42   ar
    33    19    15   ar
    34    19    18   ar
    35    28    32   ar
    36    28    18    1
    37    11    10    1
    38    11    12    1
    39    11    13    1
    40    15    16   ar
    41    18    17   ar
    42    43    42   ar
    43    43    50    1
    44    51    50    1
    45    51    52    1
    46    51    53    1
    47    16    17   ar
    48    16    20    1
    49    42    47    1
    50    17    23    1
    51    20    21    3
    52    23    24    1
    53    21    22    1
    54    24    25    1
    55    24    26    1
    56    47    48    3
    57    48    49    1
