@<TRIPOS>MOLECULE
mol_data/opt/b3lyp/geoms/mol2/12el12el12el12el.out
 54 57 0 0 0
SMALL
GASTEIGER

@<TRIPOS>ATOM
      1 C           0.0745    1.7587    0.0005 C.ar    1  LIG1        0.1118
      2 C           1.4410    1.6040    0.0003 C.ar    1  LIG1        0.1047
      3 C           1.9684    2.9531    0.0001 C.ar    1  LIG1        0.1842
      4 C           0.8782    3.8086    0.0002 C.ar    1  LIG1        0.2136
      5 O          -0.2760    3.0522    0.0004 O.2     1  LIG1       -0.4547
      6 H          -0.7266    1.0365    0.0006 H       1  LIG1        0.1043
      7 C           2.1022    0.3472    0.0003 C.1     1  LIG1       -0.0628
      8 C           2.6177   -0.7477    0.0003 C.1     1  LIG1       -0.1137
      9 H           3.0754   -1.7097    0.0003 H       1  LIG1        0.1232
     10 O           3.2363    3.3971   -0.0002 O.3     1  LIG1       -0.4901
     11 C           4.3109    2.4597   -0.0005 C.3     1  LIG1        0.0790
     12 H           5.2185    3.0645   -0.0007 H       1  LIG1        0.0660
     13 H           4.2897    1.8269    0.8918 H       1  LIG1        0.0660
     14 H           4.2892    1.8269   -0.8927 H       1  LIG1        0.0660
     15 C           0.6756    5.2301    0.0001 C.ar    1  LIG1        0.1934
     16 C           1.4970    6.3612    0.0000 C.ar    1  LIG1        0.1159
     17 C           0.5884    7.4847   -0.0001 C.ar    1  LIG1        0.1849
     18 C          -0.6992    6.9767    0.0000 C.ar    1  LIG1        0.2146
     19 O          -0.6251    5.6028    0.0001 O.2     1  LIG1       -0.4434
     20 C           2.9144    6.4054    0.0001 C.1     1  LIG1       -0.0620
     21 C           4.1226    6.4791    0.0002 C.1     1  LIG1       -0.1137
     22 H           5.1866    6.5247    0.0005 H       1  LIG1        0.1232
     23 O           0.8166    8.8086   -0.0002 O.3     1  LIG1       -0.4901
     24 C           2.1422    9.3314   -0.0006 C.3     1  LIG1        0.0790
     25 H           2.0163   10.4151   -0.0008 H       1  LIG1        0.0660
     26 H           2.6955    9.0242    0.8910 H       1  LIG1        0.0660
     27 H           2.6951    9.0238   -0.8923 H       1  LIG1        0.0660
     28 C          -2.0244    7.5212   -0.0000 C.ar    1  LIG1        0.1934
     29 C          -2.5858    8.8032    0.0000 C.ar    1  LIG1        0.1159
     30 C          -4.0151    8.5867   -0.0001 C.ar    1  LIG1        0.1849
     31 C          -4.2284    7.2211   -0.0002 C.ar    1  LIG1        0.2146
     32 O          -3.0069    6.5884   -0.0001 O.2     1  LIG1       -0.4434
     33 C          -1.9114   10.0504    0.0002 C.1     1  LIG1       -0.0620
     34 C          -1.3742   11.1355    0.0005 C.1     1  LIG1       -0.1137
     35 H          -0.8847   12.0812    0.0007 H       1  LIG1        0.1232
     36 O          -5.0442    9.4530   -0.0001 O.3     1  LIG1       -0.4901
     37 C          -4.8250   10.8601   -0.0004 C.3     1  LIG1        0.0790
     38 H          -5.8235   11.3003   -0.0006 H       1  LIG1        0.0660
     39 H          -4.2800   11.1829    0.8909 H       1  LIG1        0.0660
     40 H          -4.2798   11.1825   -0.8919 H       1  LIG1        0.0660
     41 C          -5.3718    6.3520   -0.0003 C.ar    1  LIG1        0.1924
     42 C          -6.7611    6.5140   -0.0002 C.ar    1  LIG1        0.1152
     43 C          -7.2937    5.1598   -0.0005 C.ar    1  LIG1        0.1737
     44 C          -6.2253    4.3148   -0.0006 C.ar    1  LIG1        0.1355
     45 O          -5.0615    5.0290   -0.0005 O.2     1  LIG1       -0.4547
     46 H          -6.1427    3.2414   -0.0008 H       1  LIG1        0.1068
     47 C          -7.4993    7.7237    0.0001 C.1     1  LIG1       -0.0621
     48 C          -8.1719    8.7312    0.0003 C.1     1  LIG1       -0.1137
     49 H          -8.7450    9.6285    0.0004 H       1  LIG1        0.1232
     50 O          -8.5641    4.6843   -0.0005 O.3     1  LIG1       -0.4907
     51 C          -9.6653    5.5870   -0.0007 C.3     1  LIG1        0.0790
     52 H         -10.5552    4.9546   -0.0009 H       1  LIG1        0.0660
     53 H          -9.6685    6.2227    0.8897 H       1  LIG1        0.0660
     54 H          -9.6682    6.2227   -0.8912 H       1  LIG1        0.0660
@<TRIPOS>BOND
     1    14    11    1
     2    27    24    1
     3    40    37    1
     4    54    51    1
     5    52    51    1
     6    25    24    1
     7    46    44    1
     8    12    11    1
     9    51    50    1
    10    51    53    1
    11    38    37    1
    12    44    45   ar
    13    44    43   ar
    14    24    23    1
    15    24    26    1
    16    50    43    1
    17    45    41   ar
    18    11    10    1
    19    11    13    1
    20    43    42   ar
    21    37    36    1
    22    37    39    1
    23    41    42   ar
    24    41    31    1
    25    42    47    1
    26    23    17    1
    27    10     3    1
    28    31    32   ar
    29    31    30   ar
    30    36    30    1
    31    32    28   ar
    32    30    29   ar
    33    17    18   ar
    34    17    16   ar
    35    28    18    1
    36    28    29   ar
    37    18    19   ar
    38    29    33    1
    39    16    15   ar
    40    16    20    1
    41    47    48    3
    42     3     4   ar
    43     3     2   ar
    44    19    15   ar
    45    15     4    1
    46    20    21    3
    47     4     5   ar
    48    21    22    1
    49    33    34    3
    50     2     7    1
    51     2     1   ar
    52     7     8    3
    53     8     9    1
    54    48    49    1
    55     5     1   ar
    56     1     6    1
    57    34    35    1
