@<TRIPOS>MOLECULE
mol_data/opt/b3lyp/geoms/mol2/12el12ii13df-13ae-.out
 48 51 0 0 0
SMALL
GASTEIGER

@<TRIPOS>ATOM
      1 C           0.2993    1.6551    0.6128 C.ar    1  LIG1        0.1118
      2 C           1.6102    1.6141    0.2145 C.ar    1  LIG1        0.1047
      3 C           1.9891    2.9991    0.0245 C.ar    1  LIG1        0.1841
      4 C           0.8903    3.7653    0.3334 C.ar    1  LIG1        0.2125
      5 O          -0.1453    2.9292    0.6978 O.2     1  LIG1       -0.4547
      6 H          -0.4063    0.8789    0.8636 H       1  LIG1        0.1043
      7 C           2.4153    0.4586    0.0503 C.1     1  LIG1       -0.0628
      8 C           3.1034   -0.5268   -0.0908 C.1     1  LIG1       -0.1137
      9 H           3.7097   -1.3958   -0.2017 H       1  LIG1        0.1232
     10 O           3.2058    3.4789   -0.3416 O.3     1  LIG1       -0.4901
     11 C           3.6644    3.0722   -1.6406 C.3     1  LIG1        0.0790
     12 H           4.6397    3.5417   -1.7751 H       1  LIG1        0.0660
     13 H           3.7685    1.9851   -1.7006 H       1  LIG1        0.0660
     14 H           2.9766    3.4215   -2.4191 H       1  LIG1        0.0660
     15 C           0.6166    5.1808    0.3465 C.ar    1  LIG1        0.1775
     16 C           1.3727    6.3120    0.5537 C.ar    1  LIG1        0.0021
     17 C           0.4779    7.4301    0.4227 C.ar    1  LIG1        0.0004
     18 C          -0.7605    6.9016    0.1364 C.ar    1  LIG1        0.1564
     19 O          -0.6874    5.5279    0.0935 O.2     1  LIG1       -0.4496
     20 C           2.8240    6.4049    0.9151 C.3     1  LIG1       -0.0357
     21 H           2.9542    6.9244    1.8717 H       1  LIG1        0.0279
     22 H           3.3812    6.9755    0.1631 H       1  LIG1        0.0279
     23 H           3.2843    5.4203    0.9888 H       1  LIG1        0.0279
     24 C           0.8482    8.8659    0.6415 C.3     1  LIG1       -0.0358
     25 H           0.0086    9.4419    1.0354 H       1  LIG1        0.0279
     26 H           1.1610    9.3568   -0.2861 H       1  LIG1        0.0279
     27 H           1.6754    8.9419    1.3532 H       1  LIG1        0.0279
     28 C          -2.0890    7.4204   -0.0667 C.ar    1  LIG1        0.1041
     29 C          -2.5869    8.6542   -0.5283 C.ar    1  LIG1        0.1220
     30 C          -4.0101    8.5423   -0.5599 C.ar    1  LIG1        0.1616
     31 C          -4.3588    7.2674   -0.1441 C.ar    1  LIG1        0.1067
     32 N          -3.1708    6.6157    0.1682 N.ar    1  LIG1       -0.3466
     33 H          -3.0762    5.6278    0.3512 H       1  LIG1        0.1662
     34 N          -1.2528   10.7019   -1.3563 N.1     1  LIG1       -0.1907
     35 C          -1.8485    9.7771   -0.9721 C.1     1  LIG1        0.1051
     36 O          -4.8319    9.5534   -0.9251 O.3     1  LIG1       -0.5034
     37 H          -5.7465    9.2765   -0.7594 H       1  LIG1        0.2923
     38 C          -5.6791    6.6978    0.0153 C.ar    1  LIG1        0.0677
     39 C          -6.8050    6.8176   -0.7823 C.ar    1  LIG1       -0.0194
     40 C          -7.8771    6.1150   -0.1403 C.ar    1  LIG1        0.0426
     41 C          -7.3619    5.5817    1.0324 C.ar    1  LIG1        0.0177
     42 N          -6.0413    5.9334    1.1138 N.ar    1  LIG1       -0.3583
     43 H          -5.4538    5.7826    1.9189 H       1  LIG1        0.1654
     44 H          -7.8397    4.9814    1.7909 H       1  LIG1        0.0819
     45 H          -6.8480    7.2899   -1.7533 H       1  LIG1        0.0651
     46 C          -9.2063    5.9661   -0.6164 C.1     1  LIG1       -0.0682
     47 C         -10.3372    5.8479   -1.0309 C.1     1  LIG1       -0.1139
     48 H         -11.3325    5.7419   -1.3949 H       1  LIG1        0.1232
@<TRIPOS>BOND
     1    14    11    1
     2    12    11    1
     3    45    39    1
     4    13    11    1
     5    11    10    1
     6    48    47    1
     7    34    35    3
     8    47    46    3
     9    35    29    1
    10    36    37    1
    11    36    30    1
    12    39    40   ar
    13    39    38   ar
    14    46    40    1
    15    30    29   ar
    16    30    31   ar
    17    29    28   ar
    18    10     3    1
    19    26    24    1
    20     9     8    1
    21    31    38    1
    22    31    32   ar
    23    40    41   ar
    24     8     7    3
    25    28    18    1
    26    28    32   ar
    27    38    42   ar
    28     3     2   ar
    29     3     4   ar
    30     7     2    1
    31    19    18   ar
    32    19    15   ar
    33    18    17   ar
    34    22    20    1
    35    32    33    1
    36     2     1   ar
    37     4    15    1
    38     4     5   ar
    39    15    16   ar
    40    17    16   ar
    41    17    24    1
    42    16    20    1
    43     1     5   ar
    44     1     6    1
    45    24    25    1
    46    24    27    1
    47    20    23    1
    48    20    21    1
    49    41    42   ar
    50    41    44    1
    51    42    43    1
