@<TRIPOS>MOLECULE
mol_data/opt/b3lyp/geoms/mol2/12el12el-12el.out
 41 43 0 0 0
SMALL
GASTEIGER

@<TRIPOS>ATOM
      1 C           0.0056    1.7677    0.2983 C.ar    1  LIG1        0.1118
      2 C           1.3712    1.6550    0.3632 C.ar    1  LIG1        0.1047
      3 C           1.8685    3.0102    0.2631 C.ar    1  LIG1        0.1842
      4 C           0.7652    3.8287    0.1404 C.ar    1  LIG1        0.2136
      5 O          -0.3723    3.0592    0.1703 O.2     1  LIG1       -0.4547
      6 H          -0.7866    1.0371    0.3373 H       1  LIG1        0.1043
      7 C           2.1253    0.4657    0.5266 C.1     1  LIG1       -0.0628
      8 C           2.7729   -0.5474    0.6620 C.1     1  LIG1       -0.1137
      9 H           3.3388   -1.4402    0.7954 H       1  LIG1        0.1232
     10 O           3.1561    3.4216    0.3268 O.3     1  LIG1       -0.4901
     11 C           3.9855    3.0043   -0.7674 C.3     1  LIG1        0.0790
     12 H           4.9601    3.4623   -0.5949 H       1  LIG1        0.0660
     13 H           4.0851    1.9145   -0.7975 H       1  LIG1        0.0660
     14 H           3.5792    3.3645   -1.7194 H       1  LIG1        0.0660
     15 C           0.6010    5.2424   -0.0149 C.ar    1  LIG1        0.1934
     16 C          -0.5016    6.0465   -0.2688 C.ar    1  LIG1        0.1159
     17 C           0.0143    7.3873   -0.3514 C.ar    1  LIG1        0.1849
     18 C           1.3750    7.3143   -0.1333 C.ar    1  LIG1        0.2146
     19 O           1.7254    6.0042    0.0719 O.2     1  LIG1       -0.4434
     20 C          -1.8558    5.6747   -0.4385 C.1     1  LIG1       -0.0620
     21 C          -3.0242    5.3957   -0.5828 C.1     1  LIG1       -0.1137
     22 H          -4.0495    5.1404   -0.7173 H       1  LIG1        0.1232
     23 O          -0.7303    8.4811   -0.6455 O.3     1  LIG1       -0.4901
     24 C          -1.0670    9.3142    0.4721 C.3     1  LIG1        0.0790
     25 H          -1.7067   10.1047    0.0765 H       1  LIG1        0.0660
     26 H          -1.6154    8.7460    1.2319 H       1  LIG1        0.0660
     27 H          -0.1701    9.7586    0.9155 H       1  LIG1        0.0660
     28 C           2.4219    8.2898   -0.0915 C.ar    1  LIG1        0.1924
     29 C           3.7695    8.2218    0.2324 C.ar    1  LIG1        0.1152
     30 C           4.2634    9.5761    0.0688 C.ar    1  LIG1        0.1737
     31 C           3.2087   10.3388   -0.3281 C.ar    1  LIG1        0.1355
     32 O           2.0800    9.5679   -0.4199 O.2     1  LIG1       -0.4547
     33 H           3.1007   11.3871   -0.5509 H       1  LIG1        0.1068
     34 C           4.4903    7.1024    0.7080 C.1     1  LIG1       -0.0621
     35 C           5.1191    6.1564    1.1281 C.1     1  LIG1       -0.1137
     36 H           5.6313    5.3172    1.5374 H       1  LIG1        0.1232
     37 O           5.5099   10.0476    0.3300 O.3     1  LIG1       -0.4907
     38 C           6.5682    9.4402   -0.4217 C.3     1  LIG1        0.0790
     39 H           7.4881    9.9261   -0.0926 H       1  LIG1        0.0660
     40 H           6.6314    8.3658   -0.2266 H       1  LIG1        0.0660
     41 H           6.4288    9.6104   -1.4964 H       1  LIG1        0.0660
@<TRIPOS>BOND
     1    14    11    1
     2    41    38    1
     3    13    11    1
     4    11    12    1
     5    11    10    1
     6    22    21    1
     7    23    17    1
     8    23    24    1
     9    21    20    3
    10    33    31    1
    11    20    16    1
    12    38    40    1
    13    38    39    1
    14    38    37    1
    15    32    31   ar
    16    32    28   ar
    17    17    16   ar
    18    17    18   ar
    19    31    30   ar
    20    16    15   ar
    21    18    28    1
    22    18    19   ar
    23    28    29   ar
    24    15    19   ar
    25    15     4    1
    26    30    29   ar
    27    30    37    1
    28    25    24    1
    29     4     5   ar
    30     4     3   ar
    31     5     1   ar
    32    29    34    1
    33     3    10    1
    34     3     2   ar
    35     1     6    1
    36     1     2   ar
    37     2     7    1
    38    24    27    1
    39    24    26    1
    40     7     8    3
    41     8     9    1
    42    34    35    3
    43    35    36    1
