@<TRIPOS>MOLECULE
mol_data/opt/b3lyp/geoms/mol2/12el12el-.out
 28 29 0 0 0
SMALL
GASTEIGER

@<TRIPOS>ATOM
      1 C           0.1388    1.7775   -0.0000 C.ar    1  LIG1        0.1118
      2 C           1.5122    1.7045    0.0000 C.ar    1  LIG1        0.1047
      3 C           1.9599    3.0838    0.0000 C.ar    1  LIG1        0.1842
      4 C           0.8200    3.8661   -0.0001 C.ar    1  LIG1        0.2136
      5 O          -0.2878    3.0522   -0.0001 O.2     1  LIG1       -0.4547
      6 H          -0.6189    1.0103   -0.0000 H       1  LIG1        0.1043
      7 C           2.2458    0.4884    0.0001 C.1     1  LIG1       -0.0628
      8 C           2.8270   -0.5731    0.0001 C.1     1  LIG1       -0.1137
      9 H           3.3433   -1.5049    0.0002 H       1  LIG1        0.1232
     10 O           3.1986    3.6157    0.0000 O.3     1  LIG1       -0.4901
     11 C           4.3253    2.7416   -0.0000 C.3     1  LIG1        0.0790
     12 H           5.1985    3.3953   -0.0000 H       1  LIG1        0.0660
     13 H           4.3408    2.1074    0.8918 H       1  LIG1        0.0660
     14 H           4.3407    2.1074   -0.8919 H       1  LIG1        0.0660
     15 C           0.5992    5.2816   -0.0001 C.ar    1  LIG1        0.1924
     16 C          -0.5542    6.0525   -0.0001 C.ar    1  LIG1        0.1152
     17 C          -0.0885    7.4201   -0.0001 C.ar    1  LIG1        0.1737
     18 C           1.2753    7.3856   -0.0002 C.ar    1  LIG1        0.1355
     19 O           1.7000    6.0771   -0.0002 O.2     1  LIG1       -0.4547
     20 H           2.0490    8.1334   -0.0002 H       1  LIG1        0.1068
     21 C          -1.9064    5.6406   -0.0000 C.1     1  LIG1       -0.0621
     22 C          -3.0747    5.3239    0.0001 C.1     1  LIG1       -0.1137
     23 H          -4.1007    5.0391    0.0001 H       1  LIG1        0.1232
     24 O          -0.9401    8.4686   -0.0001 O.3     1  LIG1       -0.4907
     25 C          -0.3215    9.7483   -0.0002 C.3     1  LIG1        0.0790
     26 H          -1.1273   10.4827   -0.0002 H       1  LIG1        0.0660
     27 H           0.3005    9.8858    0.8941 H       1  LIG1        0.0660
     28 H           0.3004    9.8857   -0.8947 H       1  LIG1        0.0660
@<TRIPOS>BOND
     1    28    25    1
     2    14    11    1
     3    20    18    1
     4    26    25    1
     5    25    24    1
     6    25    27    1
     7    18    19   ar
     8    18    17   ar
     9    19    15   ar
    10    24    17    1
    11    17    16   ar
    12    15    16   ar
    13    15     4    1
    14    16    21    1
    15     5     4   ar
    16     5     1   ar
    17     4     3   ar
    18    12    11    1
    19     6     1    1
    20    11    10    1
    21    11    13    1
    22     1     2   ar
    23    21    22    3
    24     3     2   ar
    25     3    10    1
    26     2     7    1
    27    22    23    1
    28     7     8    3
    29     8     9    1
