@<TRIPOS>MOLECULE
mol_data/opt/b3lyp/geoms/mol2/12el12el-12el-12el-.out
 54 57 0 0 0
SMALL
GASTEIGER

@<TRIPOS>ATOM
      1 C           0.0232    1.7769    0.7684 C.ar    1  LIG1        0.1118
      2 C           1.3943    1.6876    0.8365 C.ar    1  LIG1        0.1047
      3 C           1.8657    3.0494    0.6814 C.ar    1  LIG1        0.1842
      4 C           0.7391    3.8398    0.5333 C.ar    1  LIG1        0.2136
      5 O          -0.3822    3.0452    0.5865 O.2     1  LIG1       -0.4547
      6 H          -0.7467    1.0246    0.8334 H       1  LIG1        0.1043
      7 C           2.1092    0.4731    1.0106 C.1     1  LIG1       -0.0628
      8 C           2.6754   -0.5860    1.1594 C.1     1  LIG1       -0.1137
      9 H           3.1790   -1.5159    1.2887 H       1  LIG1        0.1232
     10 O           3.1096    3.5596    0.6530 O.3     1  LIG1       -0.4901
     11 C           4.2117    2.7236    1.0050 C.3     1  LIG1        0.0790
     12 H           5.0854    3.3758    0.9845 H       1  LIG1        0.0660
     13 H           4.0886    2.3038    2.0085 H       1  LIG1        0.0660
     14 H           4.3408    1.9091    0.2866 H       1  LIG1        0.0660
     15 C           0.5455    5.2443    0.3533 C.ar    1  LIG1        0.1934
     16 C          -0.5931    6.0295    0.2213 C.ar    1  LIG1        0.1159
     17 C          -0.1120    7.3765    0.0680 C.ar    1  LIG1        0.1849
     18 C           1.2664    7.3308    0.1307 C.ar    1  LIG1        0.2146
     19 O           1.6586    6.0172    0.2901 O.2     1  LIG1       -0.4434
     20 C          -1.9513    5.6357    0.2098 C.1     1  LIG1       -0.0620
     21 C          -3.1225    5.3318    0.1918 C.1     1  LIG1       -0.1137
     22 H          -4.1519    5.0594    0.1826 H       1  LIG1        0.1232
     23 O          -0.9369    8.4355   -0.1001 O.3     1  LIG1       -0.4901
     24 C          -0.7781    9.1677   -1.3221 C.3     1  LIG1        0.0790
     25 H          -1.5749    9.9125   -1.3291 H       1  LIG1        0.0660
     26 H           0.1888    9.6766   -1.3650 H       1  LIG1        0.0660
     27 H          -0.8871    8.5026   -2.1864 H       1  LIG1        0.0660
     28 C           2.3155    8.3086    0.0971 C.ar    1  LIG1        0.1934
     29 C           2.3744    9.6501    0.4468 C.ar    1  LIG1        0.1159
     30 C           3.7222   10.0696    0.1545 C.ar    1  LIG1        0.1849
     31 C           4.4024    8.9625   -0.3078 C.ar    1  LIG1        0.2146
     32 O           3.5266    7.8934   -0.3595 O.2     1  LIG1       -0.4434
     33 C           1.3650   10.4594    1.0169 C.1     1  LIG1       -0.0620
     34 C           0.5116   11.1630    1.5078 C.1     1  LIG1       -0.1137
     35 H          -0.2414   11.7674    1.9571 H       1  LIG1        0.1232
     36 O           4.1104   11.3474    0.3408 O.3     1  LIG1       -0.4901
     37 C           4.9863   11.9283   -0.6313 C.3     1  LIG1        0.0790
     38 H           4.9242   13.0067   -0.4766 H       1  LIG1        0.0660
     39 H           6.0189   11.6021   -0.4896 H       1  LIG1        0.0660
     40 H           4.6537   11.6824   -1.6461 H       1  LIG1        0.0660
     41 C           5.7680    8.6778   -0.6624 C.ar    1  LIG1        0.1924
     42 C           6.9811    9.0703   -0.1210 C.ar    1  LIG1        0.1152
     43 C           7.9884    8.4174   -0.9236 C.ar    1  LIG1        0.1737
     44 C           7.3322    7.6710   -1.8596 C.ar    1  LIG1        0.1355
     45 O           5.9773    7.8295   -1.7082 O.2     1  LIG1       -0.4547
     46 H           7.6476    7.0113   -2.6495 H       1  LIG1        0.1068
     47 C           7.2056    9.8766    1.0191 C.1     1  LIG1       -0.0621
     48 C           7.4014   10.5678    1.9933 C.1     1  LIG1       -0.1137
     49 H           7.5663   11.1650    2.8597 H       1  LIG1        0.1232
     50 O           9.3092    8.5738   -0.6898 O.3     1  LIG1       -0.4907
     51 C          10.1674    7.8375   -1.5523 C.3     1  LIG1        0.0790
     52 H          11.1876    8.0637   -1.2413 H       1  LIG1        0.0660
     53 H           9.9865    6.7585   -1.4615 H       1  LIG1        0.0660
     54 H          10.0275    8.1387   -2.5988 H       1  LIG1        0.0660
@<TRIPOS>BOND
     1    46    44    1
     2    54    51    1
     3    27    24    1
     4    44    45   ar
     5    44    43   ar
     6    45    41   ar
     7    40    37    1
     8    51    53    1
     9    51    52    1
    10    51    50    1
    11    26    24    1
    12    25    24    1
    13    24    23    1
    14    43    50    1
    15    43    42   ar
    16    41    31    1
    17    41    42   ar
    18    37    39    1
    19    37    38    1
    20    37    36    1
    21    32    31   ar
    22    32    28   ar
    23    31    30   ar
    24    42    47    1
    25    23    17    1
    26    17    18   ar
    27    17    16   ar
    28    28    18    1
    29    28    29   ar
    30    18    19   ar
    31    30    36    1
    32    30    29   ar
    33    22    21    1
    34    21    20    3
    35    20    16    1
    36    16    15   ar
    37    14    11    1
    38    19    15   ar
    39    15     4    1
    40    29    33    1
    41     4     5   ar
    42     4     3   ar
    43     5     1   ar
    44    10     3    1
    45    10    11    1
    46     3     2   ar
    47     1     6    1
    48     1     2   ar
    49     2     7    1
    50    12    11    1
    51    11    13    1
    52     7     8    3
    53    33    34    3
    54    47    48    3
    55     8     9    1
    56    34    35    1
    57    48    49    1
