@<TRIPOS>MOLECULE
mol_data/opt/b3lyp/geoms/mol2/12el.out
 15 15 0 0 0
SMALL
GASTEIGER

@<TRIPOS>ATOM
      1 C           0.0949    1.8565    0.0001 C.ar    1  LIG1        0.1107
      2 C           1.4677    1.7770    0.0002 C.ar    1  LIG1        0.1039
      3 C           1.9191    3.1611   -0.0001 C.ar    1  LIG1        0.1729
      4 C           0.7926    3.9319   -0.0003 C.ar    1  LIG1        0.1344
      5 O          -0.3235    3.1363   -0.0002 O.2     1  LIG1       -0.4660
      6 H          -0.6659    1.0920    0.0002 H       1  LIG1        0.1043
      7 H           0.6364    4.9972   -0.0005 H       1  LIG1        0.1068
      8 C           2.1976    0.5590    0.0005 C.1     1  LIG1       -0.0628
      9 C           2.7821   -0.5010    0.0006 C.1     1  LIG1       -0.1137
     10 H           3.2986   -1.4326   -0.0005 H       1  LIG1        0.1232
     11 O           3.1625    3.6989   -0.0001 O.3     1  LIG1       -0.4907
     12 C           4.2858    2.8223   -0.0000 C.3     1  LIG1        0.0790
     13 H           5.1631    3.4710   -0.0001 H       1  LIG1        0.0660
     14 H           4.3010    2.1869    0.8914 H       1  LIG1        0.0660
     15 H           4.3009    2.1868   -0.8913 H       1  LIG1        0.0660
@<TRIPOS>BOND
     1    15    12    1
     2    10     9    1
     3     7     4    1
     4     4     5   ar
     5     4     3   ar
     6     5     1   ar
     7    13    12    1
     8    11     3    1
     9    11    12    1
    10     3     2   ar
    11    12    14    1
    12     1     6    1
    13     1     2   ar
    14     2     8    1
    15     8     9    3
