@<TRIPOS>MOLECULE
mol_data/opt/b3lyp/geoms/mol2/12el12el.out
 28 29 0 0 0
SMALL
GASTEIGER

@<TRIPOS>ATOM
      1 C           0.0871    1.7450    0.0002 C.ar    1  LIG1        0.1118
      2 C           1.4574    1.6404    0.0001 C.ar    1  LIG1        0.1047
      3 C           1.9362    3.0088   -0.0000 C.ar    1  LIG1        0.1842
      4 C           0.8185    3.8238    0.0000 C.ar    1  LIG1        0.2136
      5 O          -0.3087    3.0272    0.0002 O.2     1  LIG1       -0.4547
      6 H          -0.6880    0.9950    0.0003 H       1  LIG1        0.1043
      7 C           2.1635    0.4082    0.0002 C.1     1  LIG1       -0.0628
      8 C           2.7183   -0.6673    0.0002 C.1     1  LIG1       -0.1137
      9 H           3.2117   -1.6116    0.0003 H       1  LIG1        0.1232
     10 O           3.1894    3.4981   -0.0002 O.3     1  LIG1       -0.4901
     11 C           4.2949    2.5994   -0.0005 C.3     1  LIG1        0.0790
     12 H           5.1811    3.2353   -0.0007 H       1  LIG1        0.0660
     13 H           4.2968    1.9654    0.8916 H       1  LIG1        0.0660
     14 H           4.2964    1.9655   -0.8926 H       1  LIG1        0.0660
     15 C           0.5658    5.2416   -0.0000 C.ar    1  LIG1        0.1924
     16 C           1.3450    6.3995    0.0000 C.ar    1  LIG1        0.1152
     17 C           0.3860    7.4945   -0.0002 C.ar    1  LIG1        0.1737
     18 C          -0.8546    6.9316   -0.0004 C.ar    1  LIG1        0.1355
     19 O          -0.7520    5.5696   -0.0003 O.2     1  LIG1       -0.4547
     20 H          -1.8470    7.3490   -0.0006 H       1  LIG1        0.1068
     21 C           2.7592    6.4959    0.0004 C.1     1  LIG1       -0.0621
     22 C           3.9635    6.6220    0.0008 C.1     1  LIG1       -0.1137
     23 H           5.0246    6.7116    0.0014 H       1  LIG1        0.1232
     24 O           0.5471    8.8403   -0.0002 O.3     1  LIG1       -0.4907
     25 C           1.8555    9.4036   -0.0004 C.3     1  LIG1        0.0790
     26 H           1.7028   10.4843   -0.0006 H       1  LIG1        0.0660
     27 H           2.4208    9.1139    0.8904 H       1  LIG1        0.0660
     28 H           2.4207    9.1137   -0.8911 H       1  LIG1        0.0660
@<TRIPOS>BOND
     1    14    11    1
     2    28    25    1
     3    12    11    1
     4    20    18    1
     5    26    25    1
     6    11    10    1
     7    11    13    1
     8    25    24    1
     9    25    27    1
    10    18    19   ar
    11    18    17   ar
    12    19    15   ar
    13    24    17    1
    14    17    16   ar
    15    10     3    1
    16    15     4    1
    17    15    16   ar
    18     3     4   ar
    19     3     2   ar
    20     4     5   ar
    21    16    21    1
    22     2     7    1
    23     2     1   ar
    24     5     1   ar
    25     7     8    3
    26     8     9    1
    27     1     6    1
    28    21    22    3
    29    22    23    1
