@<TRIPOS>MOLECULE
mol_data/opt/b3lyp/geoms/mol2/12el12el-12el-12el.out
 54 57 0 0 0
SMALL
GASTEIGER

@<TRIPOS>ATOM
      1 C          -0.0862    1.7955    0.3020 C.ar    1  LIG1        0.1118
      2 C           1.2673    1.6256    0.1598 C.ar    1  LIG1        0.1047
      3 C           1.8061    2.9576    0.0178 C.ar    1  LIG1        0.1842
      4 C           0.7355    3.8282    0.0807 C.ar    1  LIG1        0.2136
      5 O          -0.4191    3.1065    0.2528 O.2     1  LIG1       -0.4547
      6 H          -0.8988    1.0999    0.4380 H       1  LIG1        0.1043
      7 C           1.9941    0.4089    0.1574 C.1     1  LIG1       -0.0628
      8 C           2.6208   -0.6254    0.1489 C.1     1  LIG1       -0.1137
      9 H           3.1737   -1.5361    0.1480 H       1  LIG1        0.1232
     10 O           3.1235    3.2546   -0.0939 O.3     1  LIG1       -0.4901
     11 C           3.5806    3.5598   -1.4238 C.3     1  LIG1        0.0790
     12 H           4.6372    3.8084   -1.3241 H       1  LIG1        0.0660
     13 H           3.4556    2.6920   -2.0807 H       1  LIG1        0.0660
     14 H           3.0447    4.4218   -1.8305 H       1  LIG1        0.0660
     15 C           0.6205    5.2536    0.0208 C.ar    1  LIG1        0.1934
     16 C          -0.4564    6.1255    0.1133 C.ar    1  LIG1        0.1159
     17 C           0.1109    7.4444   -0.0239 C.ar    1  LIG1        0.1849
     18 C           1.4697    7.2910   -0.1983 C.ar    1  LIG1        0.2146
     19 O           1.7726    5.9470   -0.1741 O.2     1  LIG1       -0.4434
     20 C          -1.8263    5.8078    0.2713 C.1     1  LIG1       -0.0620
     21 C          -3.0048    5.5654    0.4047 C.1     1  LIG1       -0.1137
     22 H          -4.0403    5.3372    0.5065 H       1  LIG1        0.1232
     23 O          -0.5390    8.6294   -0.0201 O.3     1  LIG1       -0.4901
     24 C          -1.2650    8.9434    1.1780 C.3     1  LIG1        0.0790
     25 H          -1.6888    9.9351    1.0151 H       1  LIG1        0.0660
     26 H          -2.0673    8.2229    1.3585 H       1  LIG1        0.0660
     27 H          -0.5907    8.9697    2.0417 H       1  LIG1        0.0660
     28 C           2.5676    8.1968   -0.3600 C.ar    1  LIG1        0.1934
     29 C           2.6867    9.5134   -0.7884 C.ar    1  LIG1        0.1159
     30 C           4.0911    9.8243   -0.6793 C.ar    1  LIG1        0.1849
     31 C           4.7238    8.6946   -0.2064 C.ar    1  LIG1        0.2146
     32 O           3.7934    7.7054   -0.0215 O.2     1  LIG1       -0.4434
     33 C           1.6968   10.3637   -1.3349 C.1     1  LIG1       -0.0620
     34 C           0.8884   11.1223   -1.8209 C.1     1  LIG1       -0.1137
     35 H           0.1630   11.7629   -2.2656 H       1  LIG1        0.1232
     36 O           4.7076   10.9713   -1.0502 O.3     1  LIG1       -0.4901
     37 C           4.3428   12.1392   -0.3019 C.3     1  LIG1        0.0790
     38 H           4.9087   12.9635   -0.7383 H       1  LIG1        0.0660
     39 H           3.2716   12.3458   -0.3835 H       1  LIG1        0.0660
     40 H           4.6189   12.0235    0.7528 H       1  LIG1        0.0660
     41 C           6.0856    8.3810    0.1066 C.ar    1  LIG1        0.1924
     42 C           6.7000    7.2234    0.5651 C.ar    1  LIG1        0.1152
     43 C           8.1012    7.5720    0.6972 C.ar    1  LIG1        0.1737
     44 C           8.2232    8.8735    0.3171 C.ar    1  LIG1        0.1355
     45 O           7.0012    9.3784   -0.0353 O.2     1  LIG1       -0.4547
     46 H           9.0608    9.5489    0.2661 H       1  LIG1        0.1068
     47 C           6.0839    5.9884    0.8730 C.1     1  LIG1       -0.0621
     48 C           5.5537    4.9327    1.1427 C.1     1  LIG1       -0.1137
     49 H           5.0186    4.0314    1.3415 H       1  LIG1        0.1232
     50 O           9.1136    6.8027    1.1761 O.3     1  LIG1       -0.4907
     51 C           9.3585    5.5898    0.4537 C.3     1  LIG1        0.0790
     52 H          10.1879    5.0975    0.9640 H       1  LIG1        0.0660
     53 H           8.4823    4.9350    0.4630 H       1  LIG1        0.0660
     54 H           9.6437    5.8061   -0.5834 H       1  LIG1        0.0660
@<TRIPOS>BOND
     1    35    34    1
     2    13    11    1
     3    14    11    1
     4    34    33    3
     5    11    12    1
     6    11    10    1
     7    33    29    1
     8    36    30    1
     9    36    37    1
    10    29    30   ar
    11    29    28   ar
    12    38    37    1
    13    30    31   ar
    14    54    51    1
    15    39    37    1
    16    28    18    1
    17    28    32   ar
    18    37    40    1
    19    31    32   ar
    20    31    41    1
    21    18    19   ar
    22    18    17   ar
    23    19    15   ar
    24    10     3    1
    25    45    41   ar
    26    45    44   ar
    27    17    23    1
    28    17    16   ar
    29    23    24    1
    30     3     4   ar
    31     3     2   ar
    32    15     4    1
    33    15    16   ar
    34     4     5   ar
    35    41    42   ar
    36    16    20    1
    37     9     8    1
    38     8     7    3
    39     7     2    1
    40     2     1   ar
    41     5     1   ar
    42    46    44    1
    43    20    21    3
    44     1     6    1
    45    44    43   ar
    46    21    22    1
    47    51    53    1
    48    51    52    1
    49    51    50    1
    50    42    43   ar
    51    42    47    1
    52    43    50    1
    53    47    48    3
    54    25    24    1
    55    48    49    1
    56    24    26    1
    57    24    27    1
