@<TRIPOS>MOLECULE
mol_data/opt/b3lyp/geoms/mol2/12el12el12el-12el.out
 54 57 0 0 0
SMALL
GASTEIGER

@<TRIPOS>ATOM
      1 C           0.0733    1.6282    0.5390 C.ar    1  LIG1        0.1118
      2 C           1.3726    1.5368    0.1061 C.ar    1  LIG1        0.1047
      3 C           1.7904    2.9051   -0.1194 C.ar    1  LIG1        0.1842
      4 C           0.7194    3.7067    0.2106 C.ar    1  LIG1        0.2136
      5 O          -0.3358    2.9114    0.6012 O.2     1  LIG1       -0.4547
      6 H          -0.6482    0.8771    0.8197 H       1  LIG1        0.1043
      7 C           2.1011    0.3421   -0.1240 C.1     1  LIG1       -0.0628
      8 C           2.7155   -0.6821   -0.3188 C.1     1  LIG1       -0.1137
      9 H           3.2502   -1.5852   -0.5020 H       1  LIG1        0.1232
     10 O           2.9448    3.3487   -0.6628 O.3     1  LIG1       -0.4901
     11 C           4.1549    2.9493   -0.0033 C.3     1  LIG1        0.0790
     12 H           4.9691    3.3427   -0.6127 H       1  LIG1        0.0660
     13 H           4.2044    3.3868    0.9996 H       1  LIG1        0.0660
     14 H           4.2335    1.8606    0.0572 H       1  LIG1        0.0660
     15 C           0.4961    5.1237    0.1931 C.ar    1  LIG1        0.1934
     16 C           1.3303    6.2294    0.2824 C.ar    1  LIG1        0.1159
     17 C           0.4588    7.3747    0.2068 C.ar    1  LIG1        0.1849
     18 C          -0.8297    6.8977    0.0852 C.ar    1  LIG1        0.2146
     19 O          -0.8011    5.5266    0.0820 O.2     1  LIG1       -0.4434
     20 C           2.7259    6.2825    0.5087 C.1     1  LIG1       -0.0620
     21 C           3.9125    6.3974    0.7214 C.1     1  LIG1       -0.1137
     22 H           4.9557    6.4937    0.9137 H       1  LIG1        0.1232
     23 O           0.8171    8.6754    0.3040 O.3     1  LIG1       -0.4901
     24 C           1.5433    9.1934   -0.8205 C.3     1  LIG1        0.0790
     25 H           1.6904   10.2546   -0.6168 H       1  LIG1        0.0660
     26 H           2.5118    8.6948   -0.9301 H       1  LIG1        0.0660
     27 H           0.9616    9.0789   -1.7420 H       1  LIG1        0.0660
     28 C          -2.1018    7.5362   -0.0436 C.ar    1  LIG1        0.1934
     29 C          -3.3870    7.0531   -0.2604 C.ar    1  LIG1        0.1159
     30 C          -4.2254    8.2241   -0.3301 C.ar    1  LIG1        0.1849
     31 C          -3.4086    9.3203   -0.1492 C.ar    1  LIG1        0.2146
     32 O          -2.1143    8.8945    0.0170 O.2     1  LIG1       -0.4434
     33 C          -3.7956    5.7106   -0.4399 C.1     1  LIG1       -0.0620
     34 C          -4.1727    4.5711   -0.5972 C.1     1  LIG1       -0.1137
     35 H          -4.4844    3.5642   -0.7498 H       1  LIG1        0.1232
     36 O          -5.5531    8.2767   -0.5872 O.3     1  LIG1       -0.4901
     37 C          -6.3988    7.6110    0.3618 C.3     1  LIG1        0.0790
     38 H          -7.4187    7.7485    0.0001 H       1  LIG1        0.0660
     39 H          -6.1698    6.5432    0.4203 H       1  LIG1        0.0660
     40 H          -6.2975    8.0654    1.3544 H       1  LIG1        0.0660
     41 C          -3.6479   10.7313   -0.1039 C.ar    1  LIG1        0.1924
     42 C          -2.8500   11.8111    0.2509 C.ar    1  LIG1        0.1152
     43 C          -3.6995   12.9744    0.0833 C.ar    1  LIG1        0.1737
     44 C          -4.9090   12.5234   -0.3477 C.ar    1  LIG1        0.1355
     45 O          -4.8906   11.1596   -0.4576 O.2     1  LIG1       -0.4547
     46 H          -5.8365   13.0172   -0.5847 H       1  LIG1        0.1068
     47 C          -1.5302   11.7862    0.7574 C.1     1  LIG1       -0.0621
     48 C          -0.4039   11.7848    1.2030 C.1     1  LIG1       -0.1137
     49 H           0.5692   11.7432    1.6337 H       1  LIG1        0.1232
     50 O          -3.4062   14.2706    0.3671 O.3     1  LIG1       -0.4907
     51 C          -2.3043   14.8238   -0.3624 C.3     1  LIG1        0.0790
     52 H          -2.2042   15.8554   -0.0208 H       1  LIG1        0.0660
     53 H          -1.3771   14.2798   -0.1599 H       1  LIG1        0.0660
     54 H          -2.5071   14.8136   -1.4405 H       1  LIG1        0.0660
@<TRIPOS>BOND
     1    27    24    1
     2    54    51    1
     3    26    24    1
     4    24    25    1
     5    24    23    1
     6    35    34    1
     7    10     3    1
     8    10    11    1
     9    12    11    1
    10    34    33    3
    11    36    30    1
    12    36    37    1
    13    46    44    1
    14     9     8    1
    15    45    44   ar
    16    45    41   ar
    17    33    29    1
    18    51    53    1
    19    51    52    1
    20    51    50    1
    21    44    43   ar
    22    30    29   ar
    23    30    31   ar
    24     8     7    3
    25    29    28   ar
    26    31    41    1
    27    31    32   ar
    28     7     2    1
    29     3     2   ar
    30     3     4   ar
    31    41    42   ar
    32    28    32   ar
    33    28    18    1
    34    11    14    1
    35    11    13    1
    36    38    37    1
    37    19    18   ar
    38    19    15   ar
    39    43    42   ar
    40    43    50    1
    41    18    17   ar
    42     2     1   ar
    43    15     4    1
    44    15    16   ar
    45    17    16   ar
    46    17    23    1
    47     4     5   ar
    48    42    47    1
    49    16    20    1
    50    37    39    1
    51    37    40    1
    52    20    21    3
    53     1     5   ar
    54     1     6    1
    55    21    22    1
    56    47    48    3
    57    48    49    1
