@<TRIPOS>MOLECULE
mol_data/opt/b3lyp/geoms/mol2/12el12el12el-12el-.out
 54 57 0 0 0
SMALL
GASTEIGER

@<TRIPOS>ATOM
      1 C           0.2566    1.6932    0.0002 C.ar    1  LIG1        0.1118
      2 C           1.6307    1.6458    0.0001 C.ar    1  LIG1        0.1047
      3 C           2.0510    3.0320    0.0000 C.ar    1  LIG1        0.1842
      4 C           0.8975    3.7998    0.0001 C.ar    1  LIG1        0.2136
      5 O          -0.1943    2.9554    0.0002 O.2     1  LIG1       -0.4547
      6 H          -0.4851    0.9101    0.0002 H       1  LIG1        0.1043
      7 C           2.3880    0.4443    0.0000 C.1     1  LIG1       -0.0628
      8 C           2.9872   -0.6070    0.0000 C.1     1  LIG1       -0.1137
      9 H           3.5191   -1.5301    0.0001 H       1  LIG1        0.1232
     10 O           3.2805    3.5733   -0.0001 O.3     1  LIG1       -0.4901
     11 C           4.4244    2.7219   -0.0004 C.3     1  LIG1        0.0790
     12 H           5.2827    3.3948   -0.0006 H       1  LIG1        0.0660
     13 H           4.4520    2.0892    0.8918 H       1  LIG1        0.0660
     14 H           4.4517    2.0893   -0.8927 H       1  LIG1        0.0660
     15 C           0.5851    5.2014    0.0001 C.ar    1  LIG1        0.1934
     16 C           1.3164    6.3936    0.0001 C.ar    1  LIG1        0.1159
     17 C           0.3228    7.4445    0.0001 C.ar    1  LIG1        0.1849
     18 C          -0.9168    6.8313   -0.0000 C.ar    1  LIG1        0.2146
     19 O          -0.7430    5.4711    0.0000 O.2     1  LIG1       -0.4434
     20 C           2.7263    6.5463    0.0003 C.1     1  LIG1       -0.0620
     21 C           3.9252    6.7134    0.0004 C.1     1  LIG1       -0.1137
     22 H           4.9822    6.8425    0.0003 H       1  LIG1        0.1232
     23 O           0.4364    8.7849    0.0001 O.3     1  LIG1       -0.4901
     24 C           1.7199    9.4061   -0.0001 C.3     1  LIG1        0.0790
     25 H           1.5149   10.4776   -0.0002 H       1  LIG1        0.0660
     26 H           2.2948    9.1405    0.8913 H       1  LIG1        0.0660
     27 H           2.2946    9.1403   -0.8917 H       1  LIG1        0.0660
     28 C          -2.2557    7.3236   -0.0001 C.ar    1  LIG1        0.1934
     29 C          -3.4861    6.6898   -0.0001 C.ar    1  LIG1        0.1159
     30 C          -4.4692    7.7423   -0.0002 C.ar    1  LIG1        0.1849
     31 C          -3.7907    8.9619   -0.0002 C.ar    1  LIG1        0.2146
     32 O          -2.4274    8.6602   -0.0001 O.2     1  LIG1       -0.4434
     33 C          -3.7809    5.3076   -0.0001 C.1     1  LIG1       -0.0620
     34 C          -4.0565    4.1293   -0.0000 C.1     1  LIG1       -0.1137
     35 H          -4.2918    3.0910   -0.0002 H       1  LIG1        0.1232
     36 O          -5.7534    7.3509   -0.0002 O.3     1  LIG1       -0.4901
     37 C          -6.7947    8.3127   -0.0003 C.3     1  LIG1        0.0790
     38 H          -7.7268    7.7446   -0.0004 H       1  LIG1        0.0660
     39 H          -6.7538    8.9423    0.8915 H       1  LIG1        0.0660
     40 H          -6.7536    8.9423   -0.8921 H       1  LIG1        0.0660
     41 C          -3.9804   10.4052   -0.0002 C.ar    1  LIG1        0.1924
     42 C          -4.9948   11.3700   -0.0002 C.ar    1  LIG1        0.1152
     43 C          -4.3156   12.6496   -0.0003 C.ar    1  LIG1        0.1737
     44 C          -2.9797   12.4046   -0.0003 C.ar    1  LIG1        0.1355
     45 O          -2.7750   11.0529   -0.0003 O.2     1  LIG1       -0.4547
     46 H          -2.0962   13.0192   -0.0003 H       1  LIG1        0.1068
     47 C          -6.4079   11.3399   -0.0001 C.1     1  LIG1       -0.0621
     48 C          -7.6136   11.4638   -0.0001 C.1     1  LIG1       -0.1137
     49 H          -8.6752   11.5492   -0.0009 H       1  LIG1        0.1232
     50 O          -4.9986   13.8155   -0.0003 O.3     1  LIG1       -0.4907
     51 C          -4.1893   14.9835   -0.0003 C.3     1  LIG1        0.0790
     52 H          -4.8714   15.8342   -0.0003 H       1  LIG1        0.0660
     53 H          -3.5532   15.0230    0.8939 H       1  LIG1        0.0660
     54 H          -3.5533   15.0229   -0.8946 H       1  LIG1        0.0660
@<TRIPOS>BOND
     1    54    51    1
     2    14    11    1
     3    40    37    1
     4    27    24    1
     5    49    48    1
     6    12    11    1
     7    38    37    1
     8    11    10    1
     9    11    13    1
    10    46    44    1
    11    37    36    1
    12    37    39    1
    13    51    52    1
    14    51    50    1
    15    51    53    1
    16    44    45   ar
    17    44    43   ar
    18    45    41   ar
    19    50    43    1
    20    43    42   ar
    21    41    42   ar
    22    41    31    1
    23    25    24    1
    24    36    30    1
    25    42    47    1
    26    31    30   ar
    27    31    32   ar
    28    30    29   ar
    29    35    34    1
    30    48    47    3
    31    32    28   ar
    32    24    23    1
    33    24    26    1
    34    10     3    1
    35    29    28   ar
    36    29    33    1
    37    28    18    1
    38    33    34    3
    39    18    19   ar
    40    18    17   ar
    41     3     2   ar
    42     3     4   ar
    43    19    15   ar
    44     8     7    3
    45     8     9    1
    46     7     2    1
    47    17    23    1
    48    17    16   ar
    49     2     1   ar
    50    15     4    1
    51    15    16   ar
    52     4     5   ar
    53    16    20    1
    54     1     5   ar
    55     1     6    1
    56    22    21    1
    57    20    21    3
