@<TRIPOS>MOLECULE
mol_data/opt/b3lyp/geoms/mol2/12el12el-12el12el-.out
 54 57 0 0 0
SMALL
GASTEIGER

@<TRIPOS>ATOM
      1 C           0.1091    1.6584   -0.1461 C.ar    1  LIG1        0.1118
      2 C           1.4791    1.6058   -0.0957 C.ar    1  LIG1        0.1047
      3 C           1.9073    2.9837    0.0096 C.ar    1  LIG1        0.1842
      4 C           0.7638    3.7552    0.0071 C.ar    1  LIG1        0.2136
      5 O          -0.3336    2.9338   -0.0809 O.2     1  LIG1       -0.4547
      6 H          -0.6453    0.8913   -0.2189 H       1  LIG1        0.1043
      7 C           2.2924    0.4446   -0.1093 C.1     1  LIG1       -0.0628
      8 C           2.9906   -0.5435   -0.1245 C.1     1  LIG1       -0.1137
      9 H           3.6010   -1.4167   -0.1241 H       1  LIG1        0.1232
     10 O           3.1718    3.4455    0.1436 O.3     1  LIG1       -0.4901
     11 C           4.0244    3.2377   -0.9919 C.3     1  LIG1        0.0790
     12 H           4.9719    3.7177   -0.7445 H       1  LIG1        0.0660
     13 H           4.1834    2.1710   -1.1793 H       1  LIG1        0.0660
     14 H           3.6006    3.7105   -1.8850 H       1  LIG1        0.0660
     15 C           0.5302    5.1659    0.0666 C.ar    1  LIG1        0.1934
     16 C          -0.6192    5.9409   -0.0147 C.ar    1  LIG1        0.1159
     17 C          -0.1719    7.3039    0.0870 C.ar    1  LIG1        0.1849
     18 C           1.2042    7.2705    0.2238 C.ar    1  LIG1        0.2146
     19 O           1.6220    5.9621    0.2164 O.2     1  LIG1       -0.4434
     20 C          -1.9627    5.5257   -0.1688 C.1     1  LIG1       -0.0620
     21 C          -3.1224    5.2050   -0.2951 C.1     1  LIG1       -0.1137
     22 H          -4.1408    4.9159   -0.4120 H       1  LIG1        0.1232
     23 O          -0.9940    8.3760    0.0155 O.3     1  LIG1       -0.4901
     24 C          -1.1676    9.1096    1.2383 C.3     1  LIG1        0.0790
     25 H          -1.8792    9.9037    1.0118 H       1  LIG1        0.0660
     26 H          -1.5707    8.4591    2.0227 H       1  LIG1        0.0660
     27 H          -0.2268    9.5585    1.5670 H       1  LIG1        0.0660
     28 C           2.2128    8.2739    0.3458 C.ar    1  LIG1        0.1934
     29 C           3.5652    8.2272    0.6652 C.ar    1  LIG1        0.1159
     30 C           4.0141    9.5972    0.6199 C.ar    1  LIG1        0.1849
     31 C           2.9250   10.3726    0.2823 C.ar    1  LIG1        0.2146
     32 O           1.8275    9.5603    0.1243 O.2     1  LIG1       -0.4434
     33 C           4.3188    7.0942    1.0515 C.1     1  LIG1       -0.0620
     34 C           4.9691    6.1319    1.3939 C.1     1  LIG1       -0.1137
     35 H           5.5020    5.2733    1.7302 H       1  LIG1        0.1232
     36 O           5.2433   10.0798    0.9149 O.3     1  LIG1       -0.4901
     37 C           6.3281    9.5501    0.1405 C.3     1  LIG1        0.0790
     38 H           7.2265   10.0490    0.5066 H       1  LIG1        0.0660
     39 H           6.4259    8.4695    0.2763 H       1  LIG1        0.0660
     40 H           6.1904    9.7775   -0.9232 H       1  LIG1        0.0660
     41 C           2.7349   11.7765    0.0772 C.ar    1  LIG1        0.1924
     42 C           1.6636   12.5143   -0.4075 C.ar    1  LIG1        0.1152
     43 C           2.1085   13.8875   -0.3687 C.ar    1  LIG1        0.1737
     44 C           3.3835   13.8873    0.1187 C.ar    1  LIG1        0.1355
     45 O           3.7704   12.5973    0.3946 O.2     1  LIG1       -0.4547
     46 H           4.1116   14.6527    0.3237 H       1  LIG1        0.1068
     47 C           0.4161   12.0530   -0.8847 C.1     1  LIG1       -0.0621
     48 C          -0.6526   11.6702   -1.3051 C.1     1  LIG1       -0.1137
     49 H          -1.5758   11.3071   -1.6926 H       1  LIG1        0.1232
     50 O           1.3228   14.9096   -0.7705 O.3     1  LIG1       -0.4907
     51 C           1.9135   16.1993   -0.6740 C.3     1  LIG1        0.0790
     52 H           1.1677   16.9097   -1.0314 H       1  LIG1        0.0660
     53 H           2.1771   16.4353    0.3654 H       1  LIG1        0.0660
     54 H           2.8145   16.2677   -1.2977 H       1  LIG1        0.0660
@<TRIPOS>BOND
     1    14    11    1
     2    49    48    1
     3    48    47    3
     4    54    51    1
     5    13    11    1
     6    52    51    1
     7    11    12    1
     8    11    10    1
     9    40    37    1
    10    47    42    1
    11    50    51    1
    12    50    43    1
    13    51    53    1
    14    22    21    1
    15    42    43   ar
    16    42    41   ar
    17    43    44   ar
    18    21    20    3
    19     6     1    1
    20    20    16    1
    21     1     2   ar
    22     1     5   ar
    23     8     9    1
    24     8     7    3
    25     7     2    1
    26     2     3   ar
    27     5     4   ar
    28    16    15   ar
    29    16    17   ar
    30     4     3   ar
    31     4    15    1
    32     3    10    1
    33    23    17    1
    34    23    24    1
    35    15    19   ar
    36    41    31    1
    37    41    45   ar
    38    17    18   ar
    39    44    46    1
    40    44    45   ar
    41    32    31   ar
    42    32    28   ar
    43    37    39    1
    44    37    38    1
    45    37    36    1
    46    19    18   ar
    47    18    28    1
    48    31    30   ar
    49    28    29   ar
    50    30    29   ar
    51    30    36    1
    52    29    33    1
    53    25    24    1
    54    33    34    3
    55    24    27    1
    56    24    26    1
    57    34    35    1
