@<TRIPOS>MOLECULE
mol_data/opt/b3lyp/geoms/mol2/12el12el-12el12el.out
 54 57 0 0 0
SMALL
GASTEIGER

@<TRIPOS>ATOM
      1 C           0.1939    1.6953   -0.6653 C.ar    1  LIG1        0.1118
      2 C           1.5465    1.6603   -0.4388 C.ar    1  LIG1        0.1047
      3 C           1.9152    3.0259   -0.1366 C.ar    1  LIG1        0.1842
      4 C           0.7598    3.7748   -0.2150 C.ar    1  LIG1        0.2136
      5 O          -0.2915    2.9499   -0.5314 O.2     1  LIG1       -0.4547
      6 H          -0.5216    0.9282   -0.9156 H       1  LIG1        0.1043
      7 C           2.3936    0.5239   -0.4651 C.1     1  LIG1       -0.0628
      8 C           3.1236   -0.4406   -0.4911 C.1     1  LIG1       -0.1137
      9 H           3.7602   -1.2948   -0.5015 H       1  LIG1        0.1232
     10 O           3.1365    3.4845    0.2218 O.3     1  LIG1       -0.4901
     11 C           4.1240    3.4747   -0.8192 C.3     1  LIG1        0.0790
     12 H           5.0228    3.9101   -0.3814 H       1  LIG1        0.0660
     13 H           4.3302    2.4547   -1.1599 H       1  LIG1        0.0660
     14 H           3.7983    4.0896   -1.6657 H       1  LIG1        0.0660
     15 C           0.4815    5.1688   -0.0440 C.ar    1  LIG1        0.1934
     16 C          -0.6870    5.9134   -0.0939 C.ar    1  LIG1        0.1159
     17 C          -0.2910    7.2750    0.1578 C.ar    1  LIG1        0.1849
     18 C           1.0851    7.2726    0.3290 C.ar    1  LIG1        0.2146
     19 O           1.5405    5.9746    0.2141 O.2     1  LIG1       -0.4434
     20 C          -2.0136    5.4745   -0.3113 C.1     1  LIG1       -0.0620
     21 C          -3.1585    5.1287   -0.4932 C.1     1  LIG1       -0.1137
     22 H          -4.1648    4.8189   -0.6535 H       1  LIG1        0.1232
     23 O          -1.2077    8.2582    0.1881 O.3     1  LIG1       -0.4901
     24 C          -1.0603    9.3258    1.1351 C.3     1  LIG1        0.0790
     25 H          -2.0576    9.7534    1.2503 H       1  LIG1        0.0660
     26 H          -0.7146    8.9397    2.1003 H       1  LIG1        0.0660
     27 H          -0.3673   10.0868    0.7731 H       1  LIG1        0.0660
     28 C           2.0995    8.2612    0.5309 C.ar    1  LIG1        0.1934
     29 C           3.4101    8.1768    0.9869 C.ar    1  LIG1        0.1159
     30 C           3.9201    9.5260    0.9357 C.ar    1  LIG1        0.1849
     31 C           2.9126   10.3271    0.4486 C.ar    1  LIG1        0.2146
     32 O           1.8005    9.5472    0.2046 O.2     1  LIG1       -0.4434
     33 C           4.0637    7.0368    1.5104 C.1     1  LIG1       -0.0620
     34 C           4.6249    6.0657    1.9666 C.1     1  LIG1       -0.1137
     35 H           5.0773    5.2002    2.3918 H       1  LIG1        0.1232
     36 O           5.1079    9.9799    1.3930 O.3     1  LIG1       -0.4901
     37 C           6.2806    9.3889    0.8157 C.3     1  LIG1        0.0790
     38 H           7.1256    9.8166    1.3566 H       1  LIG1        0.0660
     39 H           6.2785    8.3025    0.9366 H       1  LIG1        0.0660
     40 H           6.3560    9.6516   -0.2452 H       1  LIG1        0.0660
     41 C           2.7742   11.7337    0.2013 C.ar    1  LIG1        0.1924
     42 C           3.6643   12.7536   -0.0986 C.ar    1  LIG1        0.1152
     43 C           2.8465   13.9460   -0.2246 C.ar    1  LIG1        0.1737
     44 C           1.5572   13.5673   -0.0157 C.ar    1  LIG1        0.1355
     45 O           1.5014   12.2273    0.2536 O.2     1  LIG1       -0.4547
     46 H           0.6240   14.1056   -0.0067 H       1  LIG1        0.1068
     47 C           5.0651   12.6842   -0.2796 C.1     1  LIG1       -0.0621
     48 C           6.2612   12.6796   -0.4726 C.1     1  LIG1       -0.1137
     49 H           7.3176   12.6761   -0.6079 H       1  LIG1        0.1232
     50 O           3.2670   15.2186   -0.4499 O.3     1  LIG1       -0.4907
     51 C           3.8508   15.4475   -1.7389 C.3     1  LIG1        0.0790
     52 H           4.1427   16.4988   -1.7559 H       1  LIG1        0.0660
     53 H           4.7332   14.8199   -1.8946 H       1  LIG1        0.0660
     54 H           3.1206   15.2570   -2.5352 H       1  LIG1        0.0660
@<TRIPOS>BOND
     1    54    51    1
     2    53    51    1
     3    52    51    1
     4    51    50    1
     5    14    11    1
     6    13    11    1
     7     6     1    1
     8    11    12    1
     9    11    10    1
    10     1     5   ar
    11     1     2   ar
    12    22    21    1
    13    49    48    1
    14     5     4   ar
    15     9     8    1
    16    21    20    3
    17     8     7    3
    18    48    47    3
    19     7     2    1
    20    50    43    1
    21     2     3   ar
    22    20    16    1
    23    47    42    1
    24    40    37    1
    25    43    42   ar
    26    43    44   ar
    27     4     3   ar
    28     4    15    1
    29     3    10    1
    30    42    41   ar
    31    16    15   ar
    32    16    17   ar
    33    15    19   ar
    34    44    46    1
    35    44    45   ar
    36    17    23    1
    37    17    18   ar
    38    23    24    1
    39    41    45   ar
    40    41    31    1
    41    32    31   ar
    42    32    28   ar
    43    19    18   ar
    44    18    28    1
    45    31    30   ar
    46    28    29   ar
    47    27    24    1
    48    37    39    1
    49    37    38    1
    50    37    36    1
    51    30    29   ar
    52    30    36    1
    53    29    33    1
    54    24    25    1
    55    24    26    1
    56    33    34    3
    57    34    35    1
