@<TRIPOS>MOLECULE
mol_data/opt/b3lyp/geoms/mol2/12el12el12el.out
 41 43 0 0 0
SMALL
GASTEIGER

@<TRIPOS>ATOM
      1 C           0.1076    1.7290    0.0003 C.ar    1  LIG1        0.1118
      2 C           1.4760    1.5964    0.0001 C.ar    1  LIG1        0.1047
      3 C           1.9820    2.9540    0.0000 C.ar    1  LIG1        0.1842
      4 C           0.8791    3.7921    0.0001 C.ar    1  LIG1        0.2136
      5 O          -0.2634    3.0174    0.0003 O.2     1  LIG1       -0.4547
      6 H          -0.6820    0.9941    0.0004 H       1  LIG1        0.1043
      7 C           2.1569    0.3500    0.0002 C.1     1  LIG1       -0.0628
      8 C           2.6893   -0.7367    0.0002 C.1     1  LIG1       -0.1137
      9 H           3.1626   -1.6911    0.0001 H       1  LIG1        0.1232
     10 O           3.2434    3.4178   -0.0001 O.3     1  LIG1       -0.4901
     11 C           4.3313    2.4964   -0.0004 C.3     1  LIG1        0.0790
     12 H           5.2303    3.1139   -0.0006 H       1  LIG1        0.0660
     13 H           4.3194    1.8631    0.8918 H       1  LIG1        0.0660
     14 H           4.3190    1.8631   -0.8926 H       1  LIG1        0.0660
     15 C           0.6536    5.2111    0.0001 C.ar    1  LIG1        0.1934
     16 C           1.4543    6.3556    0.0001 C.ar    1  LIG1        0.1159
     17 C           0.5248    7.4643   -0.0000 C.ar    1  LIG1        0.1849
     18 C          -0.7513    6.9342   -0.0001 C.ar    1  LIG1        0.2146
     19 O          -0.6539    5.5621   -0.0000 O.2     1  LIG1       -0.4434
     20 C           2.8707    6.4237    0.0002 C.1     1  LIG1       -0.0620
     21 C           4.0776    6.5165    0.0004 C.1     1  LIG1       -0.1137
     22 H           5.1406    6.5800    0.0008 H       1  LIG1        0.1232
     23 O           0.7302    8.7934   -0.0001 O.3     1  LIG1       -0.4901
     24 C           2.0468    9.3368   -0.0004 C.3     1  LIG1        0.0790
     25 H           1.9041   10.4185   -0.0006 H       1  LIG1        0.0660
     26 H           2.6055    9.0387    0.8911 H       1  LIG1        0.0660
     27 H           2.6051    9.0384   -0.8921 H       1  LIG1        0.0660
     28 C          -2.0907    7.4544   -0.0002 C.ar    1  LIG1        0.1924
     29 C          -2.6790    8.7225   -0.0001 C.ar    1  LIG1        0.1152
     30 C          -4.1118    8.4682   -0.0003 C.ar    1  LIG1        0.1737
     31 C          -4.2731    7.1154   -0.0005 C.ar    1  LIG1        0.1355
     32 O          -3.0554    6.4974   -0.0004 O.2     1  LIG1       -0.4547
     33 H          -5.1446    6.4834   -0.0006 H       1  LIG1        0.1068
     34 C          -2.0336    9.9843    0.0002 C.1     1  LIG1       -0.0621
     35 C          -1.5258   11.0839    0.0005 C.1     1  LIG1       -0.1137
     36 H          -1.0602   12.0414    0.0006 H       1  LIG1        0.1232
     37 O          -5.1812    9.3018   -0.0003 O.3     1  LIG1       -0.4907
     38 C          -4.9886   10.7129   -0.0005 C.3     1  LIG1        0.0790
     39 H          -5.9933   11.1398   -0.0007 H       1  LIG1        0.0660
     40 H          -4.4488   11.0483    0.8900 H       1  LIG1        0.0660
     41 H          -4.4486   11.0480   -0.8910 H       1  LIG1        0.0660
@<TRIPOS>BOND
     1    14    11    1
     2    27    24    1
     3    41    38    1
     4    39    38    1
     5    25    24    1
     6    33    31    1
     7    12    11    1
     8    38    37    1
     9    38    40    1
    10    31    32   ar
    11    31    30   ar
    12    24    23    1
    13    24    26    1
    14    11    10    1
    15    11    13    1
    16    32    28   ar
    17    37    30    1
    18    30    29   ar
    19    28    29   ar
    20    28    18    1
    21    10     3    1
    22    29    34    1
    23    23    17    1
    24    18    17   ar
    25    18    19   ar
    26    17    16   ar
    27    19    15   ar
    28     3     4   ar
    29     3     2   ar
    30    15    16   ar
    31    15     4    1
    32    16    20    1
    33     4     5   ar
    34     9     8    1
    35     2     7    1
    36     2     1   ar
    37     7     8    3
    38    34    35    3
    39    20    21    3
    40     5     1   ar
    41     1     6    1
    42    21    22    1
    43    35    36    1
