@<TRIPOS>MOLECULE
mol_data/opt/b3lyp/geoms/mol2/12fa12fa-.out
 18 19 0 0 0
SMALL
GASTEIGER

@<TRIPOS>ATOM
      1 C           0.1826    1.8526    0.0000 C.ar    1  LIG1        0.1340
      2 C           1.5458    1.8275    0.0000 C.ar    1  LIG1        0.1551
      3 C           2.0036    3.1859   -0.0000 C.ar    1  LIG1        0.0290
      4 C           0.8743    3.9618   -0.0001 C.ar    1  LIG1        0.1769
      5 O          -0.2428    3.1678   -0.0001 O.2     1  LIG1       -0.4560
      6 H          -0.5786    1.0926    0.0000 H       1  LIG1        0.1068
      7 O           2.2970    0.6916    0.0001 O.3     1  LIG1       -0.5036
      8 H           3.2299    0.9376    0.0001 H       1  LIG1        0.2923
      9 H           3.0239    3.5411   -0.0000 H       1  LIG1        0.0693
     10 C           0.6153    5.3692   -0.0001 C.ar    1  LIG1        0.2108
     11 C          -0.5691    6.0745   -0.0001 C.ar    1  LIG1        0.1657
     12 C          -0.2240    7.4610   -0.0002 C.ar    1  LIG1        0.0185
     13 C           1.1375    7.5027   -0.0001 C.ar    1  LIG1        0.0964
     14 O           1.6705    6.2504   -0.0002 O.2     1  LIG1       -0.4560
     15 H           1.8477    8.3138   -0.0002 H       1  LIG1        0.1031
     16 O          -1.8357    5.5968   -0.0001 O.3     1  LIG1       -0.5031
     17 H          -1.7899    4.6277   -0.0001 H       1  LIG1        0.2923
     18 H          -0.9084    8.2964   -0.0002 H       1  LIG1        0.0686
@<TRIPOS>BOND
     1    18    12    1
     2    14    13   ar
     3    14    10   ar
     4    12    13   ar
     5    12    11   ar
     6    15    13    1
     7    10    11   ar
     8    10     4    1
     9    11    16    1
    10     5     4   ar
    11     5     1   ar
    12     4     3   ar
    13    16    17    1
    14     3     9    1
    15     3     2   ar
    16     1     2   ar
    17     1     6    1
    18     2     7    1
    19     7     8    1
