@<TRIPOS>MOLECULE
mol_data/opt/b3lyp/geoms/mol2/12fa12fa-12fa-12fa-.out
 34 37 0 0 0
SMALL
GASTEIGER

@<TRIPOS>ATOM
      1 C          -0.2048    1.7103   -0.0001 C.ar    1  LIG1        0.1340
      2 C           1.1516    1.5682    0.0000 C.ar    1  LIG1        0.1551
      3 C           1.7259    2.8808    0.0000 C.ar    1  LIG1        0.0290
      4 C           0.6672    3.7523   -0.0001 C.ar    1  LIG1        0.1770
      5 O          -0.5158    3.0576   -0.0001 O.2     1  LIG1       -0.4560
      6 H          -1.0291    1.0189   -0.0001 H       1  LIG1        0.1068
      7 O           1.8015    0.3716    0.0001 O.3     1  LIG1       -0.5036
      8 H           2.7521    0.5367    0.0002 H       1  LIG1        0.2923
      9 H           2.7727    3.1477    0.0001 H       1  LIG1        0.0693
     10 C           0.5331    5.1729   -0.0001 C.ar    1  LIG1        0.2119
     11 C          -0.5846    5.9821   -0.0001 C.ar    1  LIG1        0.1665
     12 C          -0.1256    7.3264   -0.0002 C.ar    1  LIG1        0.0298
     13 C           1.2541    7.2615   -0.0001 C.ar    1  LIG1        0.1780
     14 O           1.6624    5.9593   -0.0001 O.2     1  LIG1       -0.4447
     15 O          -1.8865    5.6154   -0.0002 O.3     1  LIG1       -0.5031
     16 H          -1.9229    4.6457   -0.0002 H       1  LIG1        0.2923
     17 H          -0.7640    8.1978   -0.0002 H       1  LIG1        0.0693
     18 C           2.2748    8.2629   -0.0001 C.ar    1  LIG1        0.2119
     19 C           2.2439    9.6452   -0.0001 C.ar    1  LIG1        0.1665
     20 C           3.5881   10.0992   -0.0001 C.ar    1  LIG1        0.0298
     21 C           4.3752    8.9669   -0.0001 C.ar    1  LIG1        0.1780
     22 O           3.5918    7.8540   -0.0001 O.2     1  LIG1       -0.4447
     23 O           1.1831   10.4907   -0.0001 O.3     1  LIG1       -0.5031
     24 H           0.3606    9.9859   -0.0000 H       1  LIG1        0.2923
     25 H           3.8868   11.1371   -0.0001 H       1  LIG1        0.0693
     26 C           5.7947    8.7680   -0.0002 C.ar    1  LIG1        0.2109
     27 C           6.8695    9.6369   -0.0002 C.ar    1  LIG1        0.1657
     28 C           8.0530    8.8412   -0.0002 C.ar    1  LIG1        0.0185
     29 C           7.6264    7.5478   -0.0003 C.ar    1  LIG1        0.0964
     30 O           6.2717    7.4765   -0.0002 O.2     1  LIG1       -0.4560
     31 H           8.1457    6.6024   -0.0003 H       1  LIG1        0.1031
     32 O           6.8933   10.9938   -0.0001 O.3     1  LIG1       -0.5031
     33 H           5.9923   11.3393   -0.0001 H       1  LIG1        0.2923
     34 H           9.0699    9.2031   -0.0002 H       1  LIG1        0.0686
@<TRIPOS>BOND
     1    31    29    1
     2    29    30   ar
     3    29    28   ar
     4    17    12    1
     5    30    26   ar
     6    28    34    1
     7    28    27   ar
     8    27    26   ar
     9    27    32    1
    10    12    11   ar
    11    12    13   ar
    12    26    21    1
    13    15    16    1
    14    15    11    1
    15    21    22   ar
    16    21    20   ar
    17    22    18   ar
    18    11    10   ar
    19    32    33    1
    20    13    18    1
    21    13    14   ar
    22    25    20    1
    23    20    19   ar
    24    18    19   ar
    25     5     4   ar
    26     5     1   ar
    27    19    23    1
    28    14    10   ar
    29    10     4    1
    30     6     1    1
    31    23    24    1
    32     4     3   ar
    33     1     2   ar
    34     3     2   ar
    35     3     9    1
    36     2     7    1
    37     7     8    1
