@<TRIPOS>MOLECULE
mol_data/opt/b3lyp/geoms/mol2/12fa12fa12fa12fa-.out
 34 37 0 0 0
SMALL
GASTEIGER

@<TRIPOS>ATOM
      1 C           0.6046    1.6232   -0.0001 C.ar    1  LIG1        0.1340
      2 C           1.9559    1.8227   -0.0000 C.ar    1  LIG1        0.1551
      3 C           2.1755    3.2345    0.0000 C.ar    1  LIG1        0.0290
      4 C           0.9231    3.8051   -0.0001 C.ar    1  LIG1        0.1770
      5 O          -0.0368    2.8388   -0.0001 O.2     1  LIG1       -0.4560
      6 H          -0.0172    0.7446   -0.0001 H       1  LIG1        0.1068
      7 O           2.8876    0.8260    0.0000 O.3     1  LIG1       -0.5036
      8 H           3.7645    1.2280    0.0001 H       1  LIG1        0.2923
      9 H           3.1161    3.7657    0.0000 H       1  LIG1        0.0693
     10 C           0.5011    5.1722   -0.0001 C.ar    1  LIG1        0.2119
     11 C           1.2048    6.3588   -0.0001 C.ar    1  LIG1        0.1665
     12 C           0.2615    7.4205   -0.0001 C.ar    1  LIG1        0.0298
     13 C          -0.9783    6.8170   -0.0001 C.ar    1  LIG1        0.1780
     14 O          -0.8458    5.4594   -0.0001 O.2     1  LIG1       -0.4447
     15 O           2.5662    6.4251   -0.0000 O.3     1  LIG1       -0.5031
     16 H           2.8326    7.3527    0.0000 H       1  LIG1        0.2923
     17 H           0.4503    8.4840   -0.0001 H       1  LIG1        0.0693
     18 C          -2.3016    7.3473   -0.0002 C.ar    1  LIG1        0.2119
     19 C          -2.8032    8.6317   -0.0002 C.ar    1  LIG1        0.1665
     20 C          -4.2242    8.5478   -0.0003 C.ar    1  LIG1        0.0298
     21 C          -4.5218    7.2055   -0.0003 C.ar    1  LIG1        0.1780
     22 O          -3.3675    6.4675   -0.0002 O.2     1  LIG1       -0.4447
     23 O          -2.0140    9.7406   -0.0002 O.3     1  LIG1       -0.5031
     24 H          -2.5752   10.5258   -0.0002 H       1  LIG1        0.2923
     25 H          -4.9363    9.3600   -0.0003 H       1  LIG1        0.0693
     26 C          -5.7185    6.4313   -0.0003 C.ar    1  LIG1        0.2109
     27 C          -5.9109    5.0631   -0.0003 C.ar    1  LIG1        0.1657
     28 C          -7.3234    4.8492   -0.0003 C.ar    1  LIG1        0.0185
     29 C          -7.8876    6.0891   -0.0004 C.ar    1  LIG1        0.0964
     30 O          -6.9393    7.0655   -0.0004 O.2     1  LIG1       -0.4560
     31 H          -8.9106    6.4309   -0.0005 H       1  LIG1        0.1031
     32 O          -4.9898    4.0765   -0.0002 O.3     1  LIG1       -0.5031
     33 H          -4.1032    4.4722   -0.0002 H       1  LIG1        0.2923
     34 H          -7.8298    3.8959   -0.0003 H       1  LIG1        0.0686
@<TRIPOS>BOND
     1    31    29    1
     2    29    30   ar
     3    29    28   ar
     4    30    26   ar
     5    26    21    1
     6    26    27   ar
     7    28    34    1
     8    28    27   ar
     9    25    20    1
    10    21    20   ar
    11    21    22   ar
    12    27    32    1
    13    20    19   ar
    14    22    18   ar
    15    19    18   ar
    16    19    23    1
    17    33    32    1
    18    24    23    1
    19    18    13    1
    20     6     1    1
    21    13    14   ar
    22    13    12   ar
    23    14    10   ar
    24     5     1   ar
    25     5     4   ar
    26     1     2   ar
    27    12    17    1
    28    12    11   ar
    29    10     4    1
    30    10    11   ar
    31     4     3   ar
    32    11    15    1
    33     2     3   ar
    34     2     7    1
    35    15    16    1
    36     3     9    1
    37     7     8    1
