@<TRIPOS>MOLECULE
mol_data/opt/b3lyp/geoms/mol2/12fa13id13he-13fi-.out
 46 49 0 0 0
SMALL
GASTEIGER

@<TRIPOS>ATOM
      1 C           0.1837    1.8262    0.6517 C.ar    1  LIG1        0.1339
      2 C           1.5211    1.7396    0.3971 C.ar    1  LIG1        0.1551
      3 C           1.9763    3.0541    0.0593 C.ar    1  LIG1        0.0272
      4 C           0.8711    3.8683    0.1301 C.ar    1  LIG1        0.1548
      5 O          -0.2245    3.1315    0.4896 O.2     1  LIG1       -0.4577
      6 H          -0.5674    1.1099    0.9368 H       1  LIG1        0.1068
      7 O           2.2486    0.5900    0.4636 O.3     1  LIG1       -0.5036
      8 H           3.1670    0.7908    0.2471 H       1  LIG1        0.2923
      9 H           2.9822    3.3513   -0.1972 H       1  LIG1        0.0693
     10 C           0.6426    5.2718   -0.0780 C.ar    1  LIG1        0.0869
     11 C           1.4937    6.3012   -0.4445 C.ar    1  LIG1       -0.0041
     12 C           0.6932    7.4909   -0.4883 C.ar    1  LIG1        0.0820
     13 C          -0.6298    7.1616   -0.1310 C.ar    1  LIG1        0.0831
     14 N          -0.6281    5.8087    0.0910 N.ar    1  LIG1       -0.3493
     15 H          -1.3953    5.2979    0.4991 H       1  LIG1        0.1661
     16 C           2.9545    6.2101   -0.7616 C.3     1  LIG1       -0.0364
     17 H           3.3464    7.1849   -1.0618 H       1  LIG1        0.0279
     18 H           3.1474    5.5071   -1.5806 H       1  LIG1        0.0279
     19 H           3.5361    5.8714    0.1046 H       1  LIG1        0.0279
     20 N           1.4932    9.8328   -1.2165 N.1     1  LIG1       -0.1908
     21 C           1.1391    8.7677   -0.8930 C.1     1  LIG1        0.1016
     22 C          -1.8314    7.9341   -0.0112 C.ar    1  LIG1        0.0868
     23 C          -2.0779    9.2594    0.3461 C.ar    1  LIG1        0.0679
     24 C          -3.5105    9.4262    0.4243 C.ar    1  LIG1        0.0727
     25 C          -4.1000    8.2043    0.1011 C.ar    1  LIG1        0.0844
     26 N          -3.0848    7.2867   -0.1039 N.ar    1  LIG1       -0.3493
     27 H          -3.2240    6.5560   -0.7904 H       1  LIG1        0.1661
     28 N          -1.1903   10.2410    0.7235 N.pl3   1  LIG1       -0.3553
     29 H          -0.2981   10.2732    0.2465 H       1  LIG1        0.1424
     30 H          -1.6196   11.1518    0.8238 H       1  LIG1        0.1424
     31 C          -4.1292   10.6232    0.8544 C.1     1  LIG1       -0.0656
     32 C          -4.5756   11.6820    1.2400 C.1     1  LIG1       -0.1138
     33 H          -5.0031   12.5989    1.5724 H       1  LIG1        0.1232
     34 C          -5.4752    7.7978   -0.0206 C.ar    1  LIG1        0.1064
     35 C          -6.6197    8.4557   -0.4576 C.ar    1  LIG1        0.1463
     36 C          -7.7177    7.5451   -0.4293 C.ar    1  LIG1        0.0090
     37 C          -7.2101    6.3441    0.0266 C.ar    1  LIG1        0.0087
     38 N          -5.8632    6.4814    0.2347 N.ar    1  LIG1       -0.3563
     39 H          -5.3051    5.8496    0.7869 H       1  LIG1        0.1655
     40 H          -7.7146    5.4074    0.2133 H       1  LIG1        0.0811
     41 O          -6.6327    9.7436   -0.8993 O.3     1  LIG1       -0.5043
     42 H          -7.5350    9.9749   -1.1530 H       1  LIG1        0.2922
     43 C          -9.1253    7.8465   -0.8506 C.3     1  LIG1       -0.0348
     44 H          -9.7689    6.9735   -0.7137 H       1  LIG1        0.0279
     45 H          -9.1899    8.1303   -1.9095 H       1  LIG1        0.0279
     46 H          -9.5646    8.6648   -0.2651 H       1  LIG1        0.0279
@<TRIPOS>BOND
     1    45    43    1
     2    18    16    1
     3    20    21    3
     4    42    41    1
     5    17    16    1
     6    41    35    1
     7    21    12    1
     8    43    44    1
     9    43    36    1
    10    43    46    1
    11    27    26    1
    12    16    11    1
    13    16    19    1
    14    12    11   ar
    15    12    13   ar
    16    35    36   ar
    17    35    34   ar
    18    11    10   ar
    19    36    37   ar
    20     9     3    1
    21    13    22    1
    22    13    14   ar
    23    26    22   ar
    24    26    25   ar
    25    10    14   ar
    26    10     4    1
    27    34    25    1
    28    34    38   ar
    29    22    23   ar
    30    37    40    1
    31    37    38   ar
    32     3     4   ar
    33     3     2   ar
    34    14    15    1
    35    25    24   ar
    36     4     5   ar
    37    38    39    1
    38    29    28    1
    39     8     7    1
    40    23    24   ar
    41    23    28    1
    42     2     7    1
    43     2     1   ar
    44    24    31    1
    45     5     1   ar
    46     1     6    1
    47    28    30    1
    48    31    32    3
    49    32    33    1
