@<TRIPOS>MOLECULE
mol_data/opt/b3lyp/geoms/mol2/12fa12fa12fa12fa.out
 34 37 0 0 0
SMALL
GASTEIGER

@<TRIPOS>ATOM
      1 C           0.8828    1.5843   -0.0001 C.ar    1  LIG1        0.1340
      2 C           2.2195    1.8653   -0.0000 C.ar    1  LIG1        0.1551
      3 C           2.3529    3.2877   -0.0000 C.ar    1  LIG1        0.0290
      4 C           1.0676    3.7813   -0.0001 C.ar    1  LIG1        0.1770
      5 O           0.1690    2.7585   -0.0001 O.2     1  LIG1       -0.4560
      6 H           0.3153    0.6698   -0.0001 H       1  LIG1        0.1068
      7 O           3.2112    0.9271    0.0000 O.3     1  LIG1       -0.5036
      8 H           4.0609    1.3838    0.0001 H       1  LIG1        0.2923
      9 H           3.2592    3.8753    0.0000 H       1  LIG1        0.0693
     10 C           0.5683    5.1223   -0.0001 C.ar    1  LIG1        0.2119
     11 C           1.2106    6.3436   -0.0001 C.ar    1  LIG1        0.1665
     12 C           0.2137    7.3537   -0.0001 C.ar    1  LIG1        0.0298
     13 C          -0.9938    6.6857   -0.0001 C.ar    1  LIG1        0.1780
     14 O          -0.7904    5.3386   -0.0001 O.2     1  LIG1       -0.4447
     15 O           2.5675    6.4814   -0.0000 O.3     1  LIG1       -0.5031
     16 H           2.7828    7.4221    0.0000 H       1  LIG1        0.2923
     17 H           0.3454    8.4257   -0.0001 H       1  LIG1        0.0693
     18 C          -2.3378    7.1661   -0.0002 C.ar    1  LIG1        0.2119
     19 C          -2.8580    8.4457   -0.0002 C.ar    1  LIG1        0.1665
     20 C          -4.2725    8.3332   -0.0002 C.ar    1  LIG1        0.0298
     21 C          -4.5385    6.9804   -0.0002 C.ar    1  LIG1        0.1780
     22 O          -3.3788    6.2672   -0.0002 O.2     1  LIG1       -0.4447
     23 O          -2.0880    9.5703   -0.0002 O.3     1  LIG1       -0.5031
     24 H          -2.6662   10.3430   -0.0002 H       1  LIG1        0.2923
     25 H          -5.0083    9.1238   -0.0003 H       1  LIG1        0.0693
     26 C          -5.7739    6.2591   -0.0003 C.ar    1  LIG1        0.2109
     27 C          -7.0856    6.6837   -0.0003 C.ar    1  LIG1        0.1657
     28 C          -7.9059    5.5154   -0.0003 C.ar    1  LIG1        0.0185
     29 C          -7.0407    4.4601   -0.0004 C.ar    1  LIG1        0.0964
     30 O          -5.7538    4.8861   -0.0003 O.2     1  LIG1       -0.4560
     31 H          -7.1843    3.3912   -0.0004 H       1  LIG1        0.1031
     32 O          -7.4556    7.9958   -0.0003 O.3     1  LIG1       -0.5031
     33 H          -8.4190    8.0506   -0.0004 H       1  LIG1        0.2923
     34 H          -8.9860    5.4688   -0.0003 H       1  LIG1        0.0686
@<TRIPOS>BOND
     1    31    29    1
     2    29    28   ar
     3    29    30   ar
     4    33    32    1
     5    32    27    1
     6    34    28    1
     7    28    27   ar
     8    27    26   ar
     9    26    30   ar
    10    26    21    1
    11    25    20    1
    12    21    20   ar
    13    21    22   ar
    14    20    19   ar
    15    22    18   ar
    16    19    18   ar
    17    19    23    1
    18    24    23    1
    19    18    13    1
    20     6     1    1
    21    14    13   ar
    22    14    10   ar
    23    13    12   ar
    24     1     5   ar
    25     1     2   ar
    26     5     4   ar
    27    12    17    1
    28    12    11   ar
    29    10     4    1
    30    10    11   ar
    31     4     3   ar
    32    11    15    1
    33     2     3   ar
    34     2     7    1
    35    15    16    1
    36     3     9    1
    37     7     8    1
