@<TRIPOS>MOLECULE
mol_data/opt/b3lyp/geoms/mol2/12fa12fa12fa-12fa.out
 34 37 0 0 0
SMALL
GASTEIGER

@<TRIPOS>ATOM
      1 C           0.2732    1.6642   -0.0001 C.ar    1  LIG1        0.1340
      2 C           1.6372    1.7310   -0.0000 C.ar    1  LIG1        0.1551
      3 C           1.9955    3.1148   -0.0000 C.ar    1  LIG1        0.0290
      4 C           0.8060    3.8058   -0.0001 C.ar    1  LIG1        0.1770
      5 O          -0.2458    2.9387   -0.0001 O.2     1  LIG1       -0.4560
      6 H          -0.4316    0.8510   -0.0001 H       1  LIG1        0.1068
      7 O           2.4662    0.6479   -0.0000 O.3     1  LIG1       -0.5036
      8 H           3.3786    0.9612   -0.0000 H       1  LIG1        0.2923
      9 H           2.9839    3.5506   -0.0000 H       1  LIG1        0.0693
     10 C           0.5118    5.2049   -0.0001 C.ar    1  LIG1        0.2119
     11 C           1.3034    6.3323   -0.0000 C.ar    1  LIG1        0.1665
     12 C           0.4490    7.4712   -0.0001 C.ar    1  LIG1        0.0298
     13 C          -0.8350    6.9777   -0.0001 C.ar    1  LIG1        0.1780
     14 O          -0.8114    5.6060   -0.0001 O.2     1  LIG1       -0.4447
     15 O           2.6648    6.2894    0.0000 O.3     1  LIG1       -0.5031
     16 H           3.0053    7.1924    0.0000 H       1  LIG1        0.2923
     17 H           0.7307    8.5141   -0.0001 H       1  LIG1        0.0693
     18 C          -2.1374    7.5487   -0.0002 C.ar    1  LIG1        0.2119
     19 C          -3.3886    6.9568   -0.0002 C.ar    1  LIG1        0.1665
     20 C          -4.3443    8.0070   -0.0002 C.ar    1  LIG1        0.0298
     21 C          -3.6201    9.1775   -0.0002 C.ar    1  LIG1        0.1780
     22 O          -2.2799    8.9174   -0.0002 O.2     1  LIG1       -0.4447
     23 O          -3.6920    5.6405   -0.0001 O.3     1  LIG1       -0.5031
     24 H          -2.8640    5.1333   -0.0001 H       1  LIG1        0.2923
     25 H          -5.4187    7.9091   -0.0002 H       1  LIG1        0.0693
     26 C          -4.0211   10.5510   -0.0003 C.ar    1  LIG1        0.2109
     27 C          -3.3467   11.7542   -0.0002 C.ar    1  LIG1        0.1657
     28 C          -4.3367   12.7868   -0.0003 C.ar    1  LIG1        0.0185
     29 C          -5.5409   12.1489   -0.0004 C.ar    1  LIG1        0.0964
     30 O          -5.3751   10.8032   -0.0004 O.2     1  LIG1       -0.4560
     31 H          -6.5604   12.5006   -0.0004 H       1  LIG1        0.1031
     32 O          -1.9939   11.8841   -0.0001 O.3     1  LIG1       -0.5031
     33 H          -1.7745   12.8240   -0.0001 H       1  LIG1        0.2923
     34 H          -4.1690   13.8550   -0.0003 H       1  LIG1        0.0686
@<TRIPOS>BOND
     1    31    29    1
     2    30    29   ar
     3    30    26   ar
     4    29    28   ar
     5    34    28    1
     6    28    27   ar
     7    26    21    1
     8    26    27   ar
     9    21    22   ar
    10    21    20   ar
    11    27    32    1
    12    25    20    1
    13    22    18   ar
    14    20    19   ar
    15    18    19   ar
    16    18    13    1
    17    19    23    1
    18    13    14   ar
    19    13    12   ar
    20    32    33    1
    21    14    10   ar
    22    23    24    1
    23     5     4   ar
    24     5     1   ar
    25    12    17    1
    26    12    11   ar
    27    10     4    1
    28    10    11   ar
    29     6     1    1
    30     4     3   ar
    31     1     2   ar
    32     2     3   ar
    33     2     7    1
    34    11    15    1
    35     3     9    1
    36     7     8    1
    37    15    16    1
