@<TRIPOS>MOLECULE
mol_data/opt/b3lyp/geoms/mol2/12fa13fi-12ed-13di-.out
 44 47 0 0 0
SMALL
GASTEIGER

@<TRIPOS>ATOM
      1 C           0.2821    1.7949   -0.9186 C.ar    1  LIG1        0.1339
      2 C           1.6226    1.7673   -0.6584 C.ar    1  LIG1        0.1551
      3 C           2.0104    3.0912   -0.2806 C.ar    1  LIG1        0.0273
      4 C           0.8654    3.8467   -0.3371 C.ar    1  LIG1        0.1581
      5 O          -0.1929    3.0719   -0.7225 O.2     1  LIG1       -0.4576
      6 H          -0.4301    1.0507   -1.2306 H       1  LIG1        0.1068
      7 O           2.4048    0.6565   -0.7533 O.3     1  LIG1       -0.5036
      8 H           3.3123    0.8975   -0.5312 H       1  LIG1        0.2923
      9 H           2.9911    3.4485   -0.0034 H       1  LIG1        0.0693
     10 C           0.5881    5.2293   -0.0829 C.ar    1  LIG1        0.1249
     11 C           1.4267    6.2705    0.3158 C.ar    1  LIG1        0.1486
     12 C           0.6730    7.4614    0.4268 C.ar    1  LIG1        0.0200
     13 C          -0.6405    7.1227    0.0646 C.ar    1  LIG1        0.0904
     14 N          -0.6675    5.7721   -0.2146 N.ar    1  LIG1       -0.3462
     15 H          -1.4676    5.2658   -0.5589 H       1  LIG1        0.1662
     16 O           2.7523    6.0844    0.5876 O.3     1  LIG1       -0.5043
     17 H           3.1703    6.9469    0.7054 H       1  LIG1        0.2922
     18 C           1.1999    8.7731    0.9259 C.3     1  LIG1       -0.0341
     19 H           0.4227    9.3477    1.4337 H       1  LIG1        0.0279
     20 H           1.5880    9.4083    0.1218 H       1  LIG1        0.0279
     21 H           2.0086    8.6125    1.6501 H       1  LIG1        0.0279
     22 C          -1.8518    7.8865   -0.0007 C.ar    1  LIG1        0.1688
     23 C          -2.1774    9.2075   -0.2555 C.ar    1  LIG1        0.0899
     24 C          -3.6238    9.2891   -0.1685 C.ar    1  LIG1        0.1149
     25 C          -4.0861    8.0152    0.0780 C.ar    1  LIG1        0.1716
     26 O          -3.0136    7.1671    0.1914 O.2     1  LIG1       -0.4492
     27 C          -1.3263   10.2792   -0.6092 C.1     1  LIG1       -0.0645
     28 C          -0.6427   11.2237   -0.9335 C.1     1  LIG1       -0.1138
     29 H          -0.0501   12.0581   -1.2302 H       1  LIG1        0.1232
     30 N          -4.9556   11.4972   -0.2674 N.1     1  LIG1       -0.1907
     31 C          -4.3761   10.4886   -0.2417 C.1     1  LIG1        0.1043
     32 C          -5.3758    7.4140    0.2842 C.ar    1  LIG1        0.1013
     33 C          -6.6583    7.7098   -0.1987 C.ar    1  LIG1        0.0829
     34 C          -7.5707    6.7476    0.3487 C.ar    1  LIG1       -0.0151
     35 C          -6.8160    5.8998    1.1297 C.ar    1  LIG1        0.0064
     36 N          -5.5047    6.3019    1.0792 N.ar    1  LIG1       -0.3569
     37 H          -4.7358    5.8791    1.5753 H       1  LIG1        0.1655
     38 H          -7.1158    5.0432    1.7146 H       1  LIG1        0.0810
     39 N          -7.3487    9.4671   -1.9596 N.1     1  LIG1       -0.1908
     40 C          -7.0102    8.6984   -1.1529 C.1     1  LIG1        0.1016
     41 C          -9.0451    6.6834    0.0931 C.3     1  LIG1       -0.0371
     42 H          -9.4932    5.8259    0.6019 H       1  LIG1        0.0278
     43 H          -9.2599    6.5935   -0.9770 H       1  LIG1        0.0278
     44 H          -9.5506    7.5887    0.4460 H       1  LIG1        0.0278
@<TRIPOS>BOND
     1    39    40    3
     2     6     1    1
     3    29    28    1
     4    40    33    1
     5    43    41    1
     6    28    27    3
     7     1     5   ar
     8     1     2   ar
     9     7     2    1
    10     7     8    1
    11     5     4   ar
    12     2     3   ar
    13    27    23    1
    14    15    14    1
    15     4     3   ar
    16     4    10    1
    17     3     9    1
    18    30    31    3
    19    23    24   ar
    20    23    22   ar
    21    31    24    1
    22    14    10   ar
    23    14    13   ar
    24    33    32   ar
    25    33    34   ar
    26    24    25   ar
    27    10    11   ar
    28    22    13    1
    29    22    26   ar
    30    13    12   ar
    31    25    26   ar
    32    25    32    1
    33    41    34    1
    34    41    44    1
    35    41    42    1
    36    20    18    1
    37    32    36   ar
    38    11    12   ar
    39    11    16    1
    40    34    35   ar
    41    12    18    1
    42    16    17    1
    43    18    19    1
    44    18    21    1
    45    36    35   ar
    46    36    37    1
    47    35    38    1
