@<TRIPOS>MOLECULE
mol_data/opt/b3lyp/geoms/mol2/12fa12ld12ee4fh-.out
 46 49 0 0 0
SMALL
GASTEIGER

@<TRIPOS>ATOM
      1 C           0.4432    1.4591    1.2659 C.ar    1  LIG1        0.1340
      2 C           1.7626    1.4794    0.9065 C.ar    1  LIG1        0.1551
      3 C           2.0378    2.7845    0.3968 C.ar    1  LIG1        0.0290
      4 C           0.8518    3.4747    0.4856 C.ar    1  LIG1        0.1770
      5 O          -0.1210    2.6817    1.0113 O.2     1  LIG1       -0.4560
      6 H          -0.1994    0.7044    1.6858 H       1  LIG1        0.1068
      7 O           2.6138    0.4232    1.0299 O.3     1  LIG1       -0.5036
      8 H           3.4797    0.6819    0.6922 H       1  LIG1        0.2923
      9 H           2.9676    3.1704    0.0060 H       1  LIG1        0.0693
     10 C           0.5080    4.8237    0.1419 C.ar    1  LIG1        0.2135
     11 C           1.2682    5.8720   -0.3219 C.ar    1  LIG1        0.1869
     12 C           0.3691    6.9796   -0.5267 C.ar    1  LIG1        0.1428
     13 C          -0.8881    6.5236   -0.1452 C.ar    1  LIG1        0.1930
     14 O          -0.7990    5.2221    0.2417 O.2     1  LIG1       -0.4434
     15 O           2.5916    5.7820   -0.5975 O.3     1  LIG1       -0.4900
     16 C           3.4309    6.8180   -0.0587 C.3     1  LIG1        0.0790
     17 H           4.4521    6.5348   -0.3160 H       1  LIG1        0.0660
     18 H           3.2007    7.7900   -0.5021 H       1  LIG1        0.0660
     19 H           3.3259    6.8727    1.0306 H       1  LIG1        0.0660
     20 N           1.0415    9.1864   -1.6813 N.1     1  LIG1       -0.1906
     21 C           0.7063    8.2087   -1.1443 C.1     1  LIG1        0.1068
     22 C          -2.1918    7.1155   -0.0829 C.ar    1  LIG1        0.1885
     23 C          -2.6581    8.4079    0.0798 C.ar    1  LIG1        0.0895
     24 C          -4.1047    8.3141    0.0715 C.ar    1  LIG1        0.0866
     25 C          -4.4090    6.9708   -0.0630 C.ar    1  LIG1        0.1559
     26 O          -3.2492    6.2535   -0.1632 O.2     1  LIG1       -0.4490
     27 C          -1.9061    9.5877    0.2716 C.1     1  LIG1       -0.0645
     28 C          -1.2778   10.6050    0.4540 C.1     1  LIG1       -0.1138
     29 H          -0.7039   11.4924    0.5882 H       1  LIG1        0.1232
     30 C          -4.9776    9.4275    0.1121 C.1     1  LIG1       -0.0646
     31 C          -5.6753   10.4152    0.1181 C.1     1  LIG1       -0.1138
     32 H          -6.2949   11.2814    0.1240 H       1  LIG1        0.1232
     33 C          -6.7988    6.4951    0.5477 C.ar    1  LIG1        0.1276
     34 C          -7.9483    5.7254    0.3559 C.ar    1  LIG1       -0.0177
     35 C          -5.6391    6.1954   -0.1951 C.ar    1  LIG1        0.0616
     36 C          -7.9583    4.6564   -0.5338 C.ar    1  LIG1       -0.0376
     37 H          -8.8452    5.9568    0.9264 H       1  LIG1        0.0655
     38 C          -5.6594    5.0986   -1.0740 C.ar    1  LIG1       -0.0268
     39 C          -6.8045    4.3185   -1.2593 C.ar    1  LIG1        0.0254
     40 H          -4.7553    4.8652   -1.6273 H       1  LIG1        0.0644
     41 H          -8.8649    4.0699   -0.6572 H       1  LIG1        0.0637
     42 O          -6.7392    7.5059    1.4636 O.3     1  LIG1       -0.5061
     43 H          -7.6138    7.6368    1.8513 H       1  LIG1        0.2922
     44 N          -6.7877    3.1978   -2.1020 N.pl3   1  LIG1       -0.3579
     45 H          -7.6872    2.9615   -2.4996 H       1  LIG1        0.1423
     46 H          -6.0734    3.2258   -2.8176 H       1  LIG1        0.1423
@<TRIPOS>BOND
     1    46    44    1
     2    45    44    1
     3    44    39    1
     4    20    21    3
     5    40    38    1
     6    39    38   ar
     7    39    36   ar
     8    21    12    1
     9    38    35   ar
    10    41    36    1
    11    15    11    1
    12    15    16    1
    13    36    34   ar
    14    12    11   ar
    15    12    13   ar
    16    18    16    1
    17    11    10   ar
    18    17    16    1
    19    35    25    1
    20    35    33   ar
    21    26    22   ar
    22    26    25   ar
    23    13    22    1
    24    13    14   ar
    25    22    23   ar
    26    25    24   ar
    27    16    19    1
    28     9     3    1
    29    24    23   ar
    30    24    30    1
    31    23    27    1
    32    30    31    3
    33    31    32    1
    34    10    14   ar
    35    10     4    1
    36    27    28    3
    37    34    33   ar
    38    34    37    1
    39     3     4   ar
    40     3     2   ar
    41    28    29    1
    42     4     5   ar
    43    33    42    1
    44     8     7    1
    45     2     7    1
    46     2     1   ar
    47     5     1   ar
    48     1     6    1
    49    42    43    1
