@<TRIPOS>MOLECULE
mol_data/opt/b3lyp/geoms/mol2/12fa12ae4ah-4dh-.out
 44 47 0 0 0
SMALL
GASTEIGER

@<TRIPOS>ATOM
      1 C           0.6368    1.6957   -0.6475 C.ar    1  LIG1        0.1340
      2 C           1.9758    1.7983   -0.3920 C.ar    1  LIG1        0.1551
      3 C           2.2316    3.1616   -0.0512 C.ar    1  LIG1        0.0288
      4 C           1.0168    3.8012   -0.1239 C.ar    1  LIG1        0.1734
      5 O           0.0441    2.9204   -0.4845 O.2     1  LIG1       -0.4561
      6 H          -0.0017    0.8786   -0.9365 H       1  LIG1        0.1068
      7 O           2.8583    0.7634   -0.4623 O.3     1  LIG1       -0.5036
      8 H           3.7398    1.0900   -0.2455 H       1  LIG1        0.2923
      9 H           3.1811    3.6070    0.2107 H       1  LIG1        0.0693
     10 C           0.6320    5.1679    0.1068 C.ar    1  LIG1        0.1719
     11 C           1.3351    6.2824    0.4752 C.ar    1  LIG1        0.0033
     12 C           0.3922    7.3603    0.5444 C.ar    1  LIG1        0.0711
     13 C          -0.8453    6.8230    0.2081 C.ar    1  LIG1        0.1512
     14 O          -0.6860    5.4901   -0.0553 O.2     1  LIG1       -0.4505
     15 H           2.3933    6.3512    0.6766 H       1  LIG1        0.0669
     16 C           0.7168    8.6963    0.8904 C.1     1  LIG1       -0.0658
     17 C           1.0455    9.8219    1.1919 C.1     1  LIG1       -0.1138
     18 H           1.3225   10.8178    1.4497 H       1  LIG1        0.1232
     19 C          -2.4841    8.7004    0.3556 C.ar    1  LIG1       -0.0504
     20 C          -3.7869    9.1580    0.2230 C.ar    1  LIG1       -0.0516
     21 C          -2.1948    7.3505    0.0835 C.ar    1  LIG1        0.0203
     22 C          -4.8428    8.3211   -0.1686 C.ar    1  LIG1        0.0041
     23 H          -4.0034   10.1986    0.4414 H       1  LIG1        0.0624
     24 C          -3.2364    6.5020   -0.3209 C.ar    1  LIG1       -0.0298
     25 C          -4.5517    6.9622   -0.4512 C.ar    1  LIG1        0.0331
     26 H          -3.0183    5.4623   -0.5415 H       1  LIG1        0.0643
     27 H          -1.7007    9.3781    0.6676 H       1  LIG1        0.0625
     28 N          -5.5552    6.0606   -0.8236 N.pl3   1  LIG1       -0.3575
     29 H          -6.3512    6.4811   -1.2848 H       1  LIG1        0.1423
     30 H          -5.2126    5.2544   -1.3292 H       1  LIG1        0.1423
     31 C          -6.5385   10.0178   -1.0138 C.ar    1  LIG1        0.0596
     32 C          -7.8570   10.5097   -1.0221 C.ar    1  LIG1       -0.0420
     33 C          -6.2279    8.8599   -0.2535 C.ar    1  LIG1        0.0030
     34 C          -8.8639    9.8827   -0.3089 C.ar    1  LIG1       -0.0398
     35 H          -8.0823   11.3934   -1.6100 H       1  LIG1        0.0631
     36 C          -7.2601    8.2370    0.4541 C.ar    1  LIG1       -0.0320
     37 C          -8.5778    8.7276    0.4443 C.ar    1  LIG1        0.0252
     38 H          -7.0282    7.3555    1.0443 H       1  LIG1        0.0642
     39 H          -9.8740   10.2821   -0.3265 H       1  LIG1        0.0636
     40 N          -4.8063   11.2720   -2.4835 N.1     1  LIG1       -0.1909
     41 C          -5.5603   10.6915   -1.8120 C.1     1  LIG1        0.0998
     42 N          -9.5579    8.1206    1.2080 N.pl3   1  LIG1       -0.3579
     43 H         -10.5172    8.3077    0.9576 H       1  LIG1        0.1423
     44 H          -9.3898    7.1681    1.4962 H       1  LIG1        0.1423
@<TRIPOS>BOND
     1    40    41    3
     2    41    31    1
     3    35    32    1
     4    30    28    1
     5    29    28    1
     6    32    31   ar
     7    32    34   ar
     8    31    33   ar
     9     6     1    1
    10    28    25    1
    11     1     5   ar
    12     1     2   ar
    13    26    24    1
    14     5     4   ar
    15     7     2    1
    16     7     8    1
    17    25    24   ar
    18    25    22   ar
    19     2     3   ar
    20    39    34    1
    21    24    21   ar
    22    34    37   ar
    23    33    22    1
    24    33    36   ar
    25    22    20   ar
    26     4     3   ar
    27     4    10    1
    28    14    10   ar
    29    14    13   ar
    30     3     9    1
    31    21    13    1
    32    21    19   ar
    33    10    11   ar
    34    13    12   ar
    35    20    19   ar
    36    20    23    1
    37    19    27    1
    38    37    36   ar
    39    37    42    1
    40    36    38    1
    41    11    12   ar
    42    11    15    1
    43    12    16    1
    44    16    17    3
    45    43    42    1
    46    17    18    1
    47    42    44    1
