@<TRIPOS>MOLECULE
mol_data/opt/b3lyp/geoms/mol2/12fa12fa12fa.out
 26 28 0 0 0
SMALL
GASTEIGER

@<TRIPOS>ATOM
      1 C           0.4480    1.6275   -0.0001 C.ar    1  LIG1        0.1340
      2 C           1.8008    1.8162   -0.0000 C.ar    1  LIG1        0.1551
      3 C           2.0313    3.2263   -0.0000 C.ar    1  LIG1        0.0290
      4 C           0.7831    3.8062   -0.0001 C.ar    1  LIG1        0.1770
      5 O          -0.1836    2.8478   -0.0001 O.2     1  LIG1       -0.4560
      6 H          -0.1806    0.7539   -0.0001 H       1  LIG1        0.1068
      7 O           2.7249    0.8120    0.0000 O.3     1  LIG1       -0.5036
      8 H           3.6046    1.2078    0.0000 H       1  LIG1        0.2923
      9 H           2.9755    3.7512    0.0000 H       1  LIG1        0.0693
     10 C           0.3764    5.1790   -0.0001 C.ar    1  LIG1        0.2119
     11 C           1.1000    6.3533   -0.0000 C.ar    1  LIG1        0.1665
     12 C           0.1718    7.4287   -0.0001 C.ar    1  LIG1        0.0298
     13 C          -1.0754    6.8435   -0.0001 C.ar    1  LIG1        0.1780
     14 O          -0.9642    5.4864   -0.0001 O.2     1  LIG1       -0.4447
     15 O           2.4629    6.3989    0.0000 O.3     1  LIG1       -0.5031
     16 H           2.7424    7.3226    0.0001 H       1  LIG1        0.2923
     17 H           0.3744    8.4897   -0.0001 H       1  LIG1        0.0693
     18 C          -2.3885    7.4138   -0.0002 C.ar    1  LIG1        0.2109
     19 C          -2.8208    8.7225   -0.0002 C.ar    1  LIG1        0.1657
     20 C          -4.2483    8.6943   -0.0003 C.ar    1  LIG1        0.0185
     21 C          -4.5890    7.3731   -0.0003 C.ar    1  LIG1        0.0964
     22 O          -3.4845    6.5863   -0.0003 O.2     1  LIG1       -0.4560
     23 H          -5.5364    6.8577   -0.0003 H       1  LIG1        0.1031
     24 O          -1.9807    9.7968   -0.0002 O.3     1  LIG1       -0.5031
     25 H          -2.5062   10.6060   -0.0002 H       1  LIG1        0.2923
     26 H          -4.9239    9.5382   -0.0003 H       1  LIG1        0.0686
@<TRIPOS>BOND
     1    26    20    1
     2    20    21   ar
     3    20    19   ar
     4    23    21    1
     5    21    22   ar
     6    22    18   ar
     7    19    18   ar
     8    19    24    1
     9    25    24    1
    10    18    13    1
    11    14    13   ar
    12    14    10   ar
    13    13    12   ar
    14     5     4   ar
    15     5     1   ar
    16    12    17    1
    17    12    11   ar
    18    10     4    1
    19    10    11   ar
    20     6     1    1
    21     4     3   ar
    22     1     2   ar
    23    11    15    1
    24     2     3   ar
    25     2     7    1
    26     3     9    1
    27     7     8    1
    28    15    16    1
