@<TRIPOS>MOLECULE
mol_data/opt/b3lyp/geoms/mol2/12fa12fa12fa-12fa-.out
 34 37 0 0 0
SMALL
GASTEIGER

@<TRIPOS>ATOM
      1 C           0.2480    1.6645   -0.0001 C.ar    1  LIG1        0.1340
      2 C           1.6129    1.7137   -0.0000 C.ar    1  LIG1        0.1551
      3 C           1.9884    3.0929   -0.0000 C.ar    1  LIG1        0.0290
      4 C           0.8079    3.7987   -0.0001 C.ar    1  LIG1        0.1770
      5 O          -0.2550    2.9452   -0.0001 O.2     1  LIG1       -0.4560
      6 H          -0.4672    0.8602   -0.0001 H       1  LIG1        0.1068
      7 O           2.4277    0.6206    0.0000 O.3     1  LIG1       -0.5036
      8 H           3.3443    0.9214    0.0001 H       1  LIG1        0.2923
      9 H           2.9821    3.5165    0.0000 H       1  LIG1        0.0693
     10 C           0.5315    5.2014   -0.0001 C.ar    1  LIG1        0.2119
     11 C           1.3368    6.3192   -0.0001 C.ar    1  LIG1        0.1665
     12 C           0.4955    7.4682   -0.0001 C.ar    1  LIG1        0.0298
     13 C          -0.7938    6.9900   -0.0001 C.ar    1  LIG1        0.1780
     14 O          -0.7866    5.6180   -0.0001 O.2     1  LIG1       -0.4447
     15 O           2.6969    6.2596   -0.0000 O.3     1  LIG1       -0.5031
     16 H           3.0502    7.1578    0.0000 H       1  LIG1        0.2923
     17 H           0.7912    8.5071   -0.0001 H       1  LIG1        0.0693
     18 C          -2.0919    7.5717   -0.0002 C.ar    1  LIG1        0.2119
     19 C          -3.3441    6.9867   -0.0002 C.ar    1  LIG1        0.1665
     20 C          -4.2932    8.0437   -0.0002 C.ar    1  LIG1        0.0298
     21 C          -3.5662    9.2165   -0.0002 C.ar    1  LIG1        0.1780
     22 O          -2.2294    8.9413   -0.0002 O.2     1  LIG1       -0.4447
     23 O          -3.6610    5.6744   -0.0002 O.3     1  LIG1       -0.5031
     24 H          -2.8382    5.1585   -0.0002 H       1  LIG1        0.2923
     25 H          -5.3651    7.9107   -0.0003 H       1  LIG1        0.0693
     26 C          -3.9461   10.5982   -0.0003 C.ar    1  LIG1        0.2109
     27 C          -5.1695   11.2413   -0.0003 C.ar    1  LIG1        0.1657
     28 C          -4.9073   12.6432   -0.0003 C.ar    1  LIG1        0.0185
     29 C          -3.5509   12.7642   -0.0004 C.ar    1  LIG1        0.0964
     30 O          -2.9487   11.5479   -0.0003 O.2     1  LIG1       -0.4560
     31 H          -2.8885   13.6155   -0.0005 H       1  LIG1        0.1031
     32 O          -6.4249   10.7262   -0.0002 O.3     1  LIG1       -0.5031
     33 H          -6.3860    9.7620   -0.0001 H       1  LIG1        0.2923
     34 H          -5.6425   13.4336   -0.0003 H       1  LIG1        0.0686
@<TRIPOS>BOND
     1    31    29    1
     2    29    30   ar
     3    29    28   ar
     4    30    26   ar
     5    28    34    1
     6    28    27   ar
     7    26    27   ar
     8    26    21    1
     9    27    32    1
    10    25    20    1
    11    21    20   ar
    12    21    22   ar
    13    20    19   ar
    14    22    18   ar
    15    32    33    1
    16    19    18   ar
    17    19    23    1
    18    18    13    1
    19    23    24    1
    20    13    14   ar
    21    13    12   ar
    22    14    10   ar
    23     6     1    1
    24    12    17    1
    25    12    11   ar
    26     5     1   ar
    27     5     4   ar
    28     1     2   ar
    29    10     4    1
    30    10    11   ar
    31     4     3   ar
    32    11    15    1
    33     2     3   ar
    34     2     7    1
    35    15    16    1
    36     3     9    1
    37     7     8    1
