@<TRIPOS>MOLECULE
mol_data/opt/b3lyp/geoms/mol2/12fa12fa-12fa.out
 26 28 0 0 0
SMALL
GASTEIGER

@<TRIPOS>ATOM
      1 C           0.0965    1.7802   -0.0000 C.ar    1  LIG1        0.1340
      2 C           1.4589    1.7208    0.0000 C.ar    1  LIG1        0.1551
      3 C           1.9528    3.0656   -0.0000 C.ar    1  LIG1        0.0290
      4 C           0.8433    3.8718   -0.0001 C.ar    1  LIG1        0.1770
      5 O          -0.2951    3.1064   -0.0001 O.2     1  LIG1       -0.4560
      6 H          -0.6842    1.0401   -0.0000 H       1  LIG1        0.1068
      7 O           2.1808    0.5653    0.0000 O.3     1  LIG1       -0.5036
      8 H           3.1192    0.7894    0.0001 H       1  LIG1        0.2923
      9 H           2.9811    3.3967    0.0000 H       1  LIG1        0.0693
     10 C           0.6259    5.2823   -0.0001 C.ar    1  LIG1        0.2119
     11 C          -0.5370    6.0276   -0.0001 C.ar    1  LIG1        0.1665
     12 C          -0.1565    7.3965   -0.0001 C.ar    1  LIG1        0.0298
     13 C           1.2194    7.4043   -0.0001 C.ar    1  LIG1        0.1780
     14 O           1.7096    6.1303   -0.0001 O.2     1  LIG1       -0.4447
     15 O          -1.8151    5.5822   -0.0001 O.3     1  LIG1       -0.5031
     16 H          -1.7930    4.6123   -0.0001 H       1  LIG1        0.2923
     17 H          -0.8101    8.2547   -0.0001 H       1  LIG1        0.0693
     18 C           2.1711    8.4735   -0.0002 C.ar    1  LIG1        0.2109
     19 C           3.5485    8.5405   -0.0001 C.ar    1  LIG1        0.1657
     20 C           3.8982    9.9279   -0.0002 C.ar    1  LIG1        0.0185
     21 C           2.7186   10.6099   -0.0003 C.ar    1  LIG1        0.0964
     22 O           1.6660    9.7549   -0.0003 O.2     1  LIG1       -0.4560
     23 H           2.4755   11.6607   -0.0003 H       1  LIG1        0.1031
     24 O           4.3766    7.4625    0.0000 O.3     1  LIG1       -0.5031
     25 H           5.2897    7.7752    0.0000 H       1  LIG1        0.2923
     26 H           4.8926   10.3525   -0.0002 H       1  LIG1        0.0686
@<TRIPOS>BOND
     1    23    21    1
     2    22    21   ar
     3    22    18   ar
     4    21    20   ar
     5    20    26    1
     6    20    19   ar
     7    18    13    1
     8    18    19   ar
     9    13    14   ar
    10    13    12   ar
    11    17    12    1
    12    14    10   ar
    13    12    11   ar
    14    19    24    1
    15    10    11   ar
    16    10     4    1
    17    11    15    1
    18     5     4   ar
    19     5     1   ar
    20    16    15    1
    21     4     3   ar
    22     6     1    1
    23     1     2   ar
    24     3     2   ar
    25     3     9    1
    26     2     7    1
    27    24    25    1
    28     7     8    1
