@<TRIPOS>MOLECULE
mol_data/opt/b3lyp/geoms/mol2/12fa13ee-12hh6fh12ii6fl4ea4di-.out
 98 105 0 0 0
SMALL
GASTEIGER

@<TRIPOS>ATOM
      1 C           0.2691    4.1238    4.4511 C.ar    1  LIG1        0.1339
      2 C           1.6309    4.0978    4.5636 C.ar    1  LIG1        0.1551
      3 C           2.1581    4.9307    3.5286 C.ar    1  LIG1        0.0273
      4 C           1.0695    5.4141    2.8457 C.ar    1  LIG1        0.1557
      5 O          -0.0841    4.9313    3.3984 O.2     1  LIG1       -0.4577
      6 H          -0.5310    3.6545    4.9973 H       1  LIG1        0.1068
      7 O           2.3137    3.3937    5.5076 O.3     1  LIG1       -0.5036
      8 H           3.2596    3.5209    5.3658 H       1  LIG1        0.2923
      9 H           3.1925    5.1494    3.3086 H       1  LIG1        0.0693
     10 C           0.9082    6.2895    1.7195 C.ar    1  LIG1        0.0995
     11 C           1.8406    6.9536    0.9196 C.ar    1  LIG1        0.0690
     12 C           1.0981    7.6936   -0.0729 C.ar    1  LIG1        0.0691
     13 C          -0.2649    7.4643    0.1697 C.ar    1  LIG1        0.1013
     14 N          -0.3412    6.6121    1.2472 N.ar    1  LIG1       -0.3473
     15 H          -1.2009    6.2995    1.6730 H       1  LIG1        0.1662
     16 C           3.2479    6.9006    1.0416 C.1     1  LIG1       -0.0662
     17 C           4.4546    6.8592    1.1421 C.1     1  LIG1       -0.1138
     18 H           5.5169    6.8335    1.2156 H       1  LIG1        0.1232
     19 C           1.6759    8.4450   -1.1214 C.1     1  LIG1       -0.0662
     20 C           2.1993    9.0804   -2.0125 C.1     1  LIG1       -0.1138
     21 H           2.6844    9.5997   -2.8063 H       1  LIG1        0.1232
     22 C          -1.4651    7.9293   -0.4644 C.ar    1  LIG1        0.1754
     23 C          -1.8335    9.0072   -1.2436 C.ar    1  LIG1        0.0941
     24 C          -3.2537    8.9045   -1.4466 C.ar    1  LIG1        0.0928
     25 C          -3.6906    7.7813   -0.7780 C.ar    1  LIG1        0.1633
     26 O          -2.6033    7.1796   -0.1848 O.2     1  LIG1       -0.4493
     27 N          -1.0821   10.0844   -1.6920 N.pl3   1  LIG1       -0.3536
     28 H          -0.0775    9.9420   -1.6574 H       1  LIG1        0.1425
     29 H          -1.3669   10.4038   -2.6109 H       1  LIG1        0.1425
     30 N          -4.0502    9.8260   -2.1684 N.pl3   1  LIG1       -0.3536
     31 H          -3.6474   10.7577   -2.1488 H       1  LIG1        0.1425
     32 H          -4.2043    9.5501   -3.1346 H       1  LIG1        0.1425
     33 C          -5.1581    5.8212   -0.1125 C.ar    1  LIG1        0.2241
     34 C          -4.9883    7.1523   -0.5986 C.ar    1  LIG1        0.0822
     35 C          -6.1597    7.8526   -0.9180 C.ar    1  LIG1       -0.0230
     36 C          -7.4213    7.2830   -0.7392 C.ar    1  LIG1        0.0549
     37 C          -7.4674    5.9795   -0.1943 C.ar    1  LIG1        0.1306
     38 N          -6.3476    5.2835    0.0759 N.ar    1  LIG1       -0.2074
     39 H          -6.0690    8.8574   -1.3189 H       1  LIG1        0.0645
     40 O          -4.1207    5.0021    0.1907 O.3     1  LIG1       -0.4919
     41 H          -3.2894    5.4622    0.0016 H       1  LIG1        0.2938
     42 N          -8.5821    8.0010   -1.0635 N.pl3   1  LIG1       -0.3562
     43 H          -8.4290    8.7182   -1.7613 H       1  LIG1        0.1424
     44 H          -9.3624    7.4064   -1.3183 H       1  LIG1        0.1424
     45 C          -8.7193    5.2568    0.0517 C.ar    1  LIG1        0.1589
     46 C          -9.9406    5.5397    0.6220 C.ar    1  LIG1        0.0004
     47 C         -10.6834    4.3056    0.6436 C.ar    1  LIG1       -0.0010
     48 C          -9.8688    3.3469    0.0857 C.ar    1  LIG1        0.1441
     49 O          -8.6769    3.9224   -0.2750 O.2     1  LIG1       -0.4525
     50 C         -10.4026    6.8206    1.2542 C.3     1  LIG1       -0.0358
     51 H         -10.5328    6.6862    2.3348 H       1  LIG1        0.0279
     52 H         -11.3735    7.1378    0.8550 H       1  LIG1        0.0279
     53 H          -9.6945    7.6337    1.0953 H       1  LIG1        0.0279
     54 C         -12.0455    4.1276    1.2454 C.3     1  LIG1       -0.0358
     55 H         -12.2147    3.0921    1.5508 H       1  LIG1        0.0279
     56 H         -12.8472    4.4050    0.5484 H       1  LIG1        0.0279
     57 H         -12.1632    4.7592    2.1316 H       1  LIG1        0.0279
     58 C          -8.8569    1.0466   -0.1517 C.ar    1  LIG1        0.2240
     59 C          -9.9837    1.9162   -0.1584 C.ar    1  LIG1        0.0823
     60 C         -11.2338    1.3262   -0.4061 C.ar    1  LIG1       -0.0020
     61 C         -11.3492   -0.0514   -0.5692 C.ar    1  LIG1        0.1469
     62 C         -10.1829   -0.8348   -0.4374 C.ar    1  LIG1        0.1175
     63 N          -8.9810   -0.2693   -0.2756 N.ar    1  LIG1       -0.2087
     64 H         -12.1023    1.9639   -0.5070 H       1  LIG1        0.0663
     65 O          -7.5841    1.4674    0.0006 O.3     1  LIG1       -0.4919
     66 H          -7.5381    2.4383   -0.0100 H       1  LIG1        0.2938
     67 O         -12.5027   -0.6968   -0.9092 O.3     1  LIG1       -0.4929
     68 C         -13.7222    0.0180   -0.8196 C.3     1  LIG1        0.0789
     69 H         -14.5112   -0.7034   -1.0356 H       1  LIG1        0.0660
     70 H         -13.8738    0.4292    0.1866 H       1  LIG1        0.0660
     71 H         -13.7727    0.8330   -1.5543 H       1  LIG1        0.0660
     72 C         -11.0599   -3.1546    0.1979 C.ar    1  LIG1        0.0345
     73 C         -10.9937   -4.5492    0.0287 C.ar    1  LIG1       -0.0379
     74 C         -10.1959   -2.3186   -0.5517 C.ar    1  LIG1        0.0195
     75 C         -10.0859   -5.1400   -0.8554 C.ar    1  LIG1       -0.0155
     76 H         -11.6726   -5.1646    0.6072 H       1  LIG1        0.0636
     77 C          -9.2639   -2.9226   -1.4053 C.ar    1  LIG1       -0.0507
     78 C          -9.2113   -4.3010   -1.5667 C.ar    1  LIG1       -0.0533
     79 H          -8.5686   -2.2836   -1.9385 H       1  LIG1        0.0625
     80 C         -11.9647   -2.6483    1.1837 C.1     1  LIG1       -0.0690
     81 C         -12.7203   -2.2879    2.0576 C.1     1  LIG1       -0.1139
     82 H         -13.3727   -1.9673    2.8360 H       1  LIG1        0.1232
     83 H          -8.4714   -4.7357   -2.2318 H       1  LIG1        0.0624
     84 C         -10.0748   -7.5537   -0.0201 C.ar    1  LIG1        0.0595
     85 C         -10.0362   -8.9301   -0.3056 C.ar    1  LIG1       -0.0435
     86 C         -10.0504   -6.6095   -1.0748 C.ar    1  LIG1       -0.0002
     87 C          -9.9697   -9.3807   -1.6163 C.ar    1  LIG1       -0.0576
     88 H         -10.0455   -9.6364    0.5179 H       1  LIG1        0.0631
     89 C          -9.9794   -7.1035   -2.3859 C.ar    1  LIG1       -0.0499
     90 C          -9.9407   -8.4691   -2.6810 C.ar    1  LIG1       -0.0498
     91 H          -9.9762   -6.3881   -3.2031 H       1  LIG1        0.0627
     92 H          -9.9375  -10.4481   -1.8161 H       1  LIG1        0.0621
     93 N         -10.1103   -6.9159    2.4974 N.1     1  LIG1       -0.1909
     94 C         -10.0950   -7.1663    1.3609 C.1     1  LIG1        0.0998
     95 C          -9.9031   -8.9515   -4.1104 C.3     1  LIG1       -0.0397
     96 H          -9.5279   -8.1777   -4.7854 H       1  LIG1        0.0278
     97 H         -10.9059   -9.2316   -4.4558 H       1  LIG1        0.0278
     98 H          -9.2663   -9.8352   -4.2158 H       1  LIG1        0.0278
@<TRIPOS>BOND
     1    96    95    1
     2    97    95    1
     3    98    95    1
     4    95    90    1
     5    91    89    1
     6    32    30    1
     7    21    20    1
     8    90    89   ar
     9    90    87   ar
    10    29    27    1
    11    89    86   ar
    12    83    78    1
    13    30    31    1
    14    30    24    1
    15    20    19    3
    16    79    77    1
    17    92    87    1
    18    43    42    1
    19    27    28    1
    20    27    23    1
    21    87    85   ar
    22    78    77   ar
    23    78    75   ar
    24    71    68    1
    25    24    23   ar
    26    24    25   ar
    27    77    74   ar
    28    39    35    1
    29    44    42    1
    30    23    22   ar
    31    19    12    1
    32    86    75    1
    33    86    84   ar
    34    42    36    1
    35    69    68    1
    36    35    36   ar
    37    35    34   ar
    38    67    68    1
    39    67    61    1
    40    75    73   ar
    41    68    70    1
    42    25    34    1
    43    25    26   ar
    44    36    37   ar
    45    34    33   ar
    46    61    62   ar
    47    61    60   ar
    48    74    62    1
    49    74    72   ar
    50    64    60    1
    51    22    26   ar
    52    22    13    1
    53    62    63   ar
    54    60    59   ar
    55    85    84   ar
    56    85    88    1
    57    63    58   ar
    58    49    45   ar
    59    49    48   ar
    60    37    45    1
    61    37    38   ar
    62    59    58   ar
    63    59    48    1
    64    58    65    1
    65    33    38   ar
    66    33    40    1
    67    12    13   ar
    68    12    11   ar
    69    84    94    1
    70    66    65    1
    71    41    40    1
    72    73    72   ar
    73    73    76    1
    74    45    46   ar
    75    48    47   ar
    76    13    14   ar
    77    72    80    1
    78    56    54    1
    79    46    47   ar
    80    46    50    1
    81    47    54    1
    82    52    50    1
    83    11    16    1
    84    11    10   ar
    85    16    17    3
    86    53    50    1
    87    17    18    1
    88    80    81    3
    89    54    55    1
    90    54    57    1
    91    14    15    1
    92    14    10   ar
    93    50    51    1
    94    94    93    3
    95    10     4    1
    96    81    82    1
    97     4     5   ar
    98     4     3   ar
    99     9     3    1
   100     5     1   ar
   101     3     2   ar
   102     1     2   ar
   103     1     6    1
   104     2     7    1
   105     8     7    1
