@<TRIPOS>MOLECULE
mol_data/opt/b3lyp/geoms/mol2/12fa12fa-12fa12fa-.out
 34 37 0 0 0
SMALL
GASTEIGER

@<TRIPOS>ATOM
      1 C           0.0493    1.7590   -0.0001 C.ar    1  LIG1        0.1340
      2 C           1.4106    1.6774   -0.0001 C.ar    1  LIG1        0.1551
      3 C           1.9263    3.0138   -0.0000 C.ar    1  LIG1        0.0290
      4 C           0.8300    3.8381   -0.0001 C.ar    1  LIG1        0.1770
      5 O          -0.3209    3.0912   -0.0001 O.2     1  LIG1       -0.4560
      6 H          -0.7433    1.0316   -0.0001 H       1  LIG1        0.1068
      7 O           2.1132    0.5102   -0.0000 O.3     1  LIG1       -0.5036
      8 H           3.0553    0.7183   -0.0000 H       1  LIG1        0.2923
      9 H           2.9601    3.3278   -0.0000 H       1  LIG1        0.0693
     10 C           0.6351    5.2513   -0.0001 C.ar    1  LIG1        0.2119
     11 C          -0.5163    6.0145   -0.0001 C.ar    1  LIG1        0.1665
     12 C          -0.1156    7.3768   -0.0001 C.ar    1  LIG1        0.0298
     13 C           1.2626    7.3657   -0.0001 C.ar    1  LIG1        0.1780
     14 O           1.7316    6.0830   -0.0001 O.2     1  LIG1       -0.4447
     15 O          -1.8008    5.5893   -0.0000 O.3     1  LIG1       -0.5031
     16 H          -1.7940    4.6191   -0.0000 H       1  LIG1        0.2923
     17 H          -0.7649    8.2383   -0.0000 H       1  LIG1        0.0693
     18 C           2.2337    8.4110   -0.0001 C.ar    1  LIG1        0.2119
     19 C           3.6133    8.4535   -0.0001 C.ar    1  LIG1        0.1665
     20 C           4.0063    9.8230   -0.0001 C.ar    1  LIG1        0.0298
     21 C           2.8449   10.5545   -0.0002 C.ar    1  LIG1        0.1780
     22 O           1.7605    9.7149   -0.0002 O.2     1  LIG1       -0.4447
     23 O           4.4122    7.3566    0.0000 O.3     1  LIG1       -0.5031
     24 H           5.3331    7.6461    0.0000 H       1  LIG1        0.2923
     25 H           5.0106   10.2213   -0.0001 H       1  LIG1        0.0693
     26 C           2.5387   11.9477   -0.0002 C.ar    1  LIG1        0.2109
     27 C           1.3325   12.6194   -0.0002 C.ar    1  LIG1        0.1657
     28 C           1.6372   14.0144   -0.0003 C.ar    1  LIG1        0.0185
     29 C           2.9971   14.0961   -0.0003 C.ar    1  LIG1        0.0964
     30 O           3.5677   12.8609   -0.0003 O.2     1  LIG1       -0.4560
     31 H           3.6830   14.9286   -0.0003 H       1  LIG1        0.1031
     32 O           0.0812   12.1076   -0.0002 O.3     1  LIG1       -0.5031
     33 H           0.1496   11.1404   -0.0002 H       1  LIG1        0.2923
     34 H           0.9288   14.8289   -0.0004 H       1  LIG1        0.0686
@<TRIPOS>BOND
     1    34    28    1
     2    31    29    1
     3    28    29   ar
     4    28    27   ar
     5    29    30   ar
     6    30    26   ar
     7    27    26   ar
     8    27    32    1
     9    26    21    1
    10    32    33    1
    11    21    22   ar
    12    21    20   ar
    13    22    18   ar
    14     5     4   ar
    15     5     1   ar
    16    20    25    1
    17    20    19   ar
    18    18    13    1
    19    18    19   ar
    20    14    13   ar
    21    14    10   ar
    22     6     1    1
    23    13    12   ar
    24    10     4    1
    25    10    11   ar
    26     4     3   ar
    27     1     2   ar
    28    12    11   ar
    29    12    17    1
    30    19    23    1
    31     2     7    1
    32     2     3   ar
    33    11    15    1
    34    16    15    1
    35     7     8    1
    36     3     9    1
    37    23    24    1
