@<TRIPOS>MOLECULE
mol_data/opt/b3lyp/geoms/mol2/12fa12fa-12fa-12fa.out
 34 37 0 0 0
SMALL
GASTEIGER

@<TRIPOS>ATOM
      1 C          -0.1863    1.7183   -0.0001 C.ar    1  LIG1        0.1340
      2 C           1.1705    1.5823    0.0000 C.ar    1  LIG1        0.1551
      3 C           1.7397    2.8971    0.0000 C.ar    1  LIG1        0.0290
      4 C           0.6775    3.7646   -0.0001 C.ar    1  LIG1        0.1770
      5 O          -0.5028    3.0646   -0.0001 O.2     1  LIG1       -0.4560
      6 H          -1.0077    1.0236   -0.0001 H       1  LIG1        0.1068
      7 O           1.8262    0.3880    0.0001 O.3     1  LIG1       -0.5036
      8 H           2.7757    0.5587    0.0002 H       1  LIG1        0.2923
      9 H           2.7852    3.1690    0.0001 H       1  LIG1        0.0693
     10 C           0.5380    5.1843   -0.0001 C.ar    1  LIG1        0.2119
     11 C          -0.5830    5.9889   -0.0001 C.ar    1  LIG1        0.1665
     12 C          -0.1301    7.3348   -0.0002 C.ar    1  LIG1        0.0298
     13 C           1.2506    7.2764   -0.0001 C.ar    1  LIG1        0.1780
     14 O           1.6642    5.9757   -0.0001 O.2     1  LIG1       -0.4447
     15 O          -1.8833    5.6153   -0.0002 O.3     1  LIG1       -0.5031
     16 H          -1.9138    4.6455   -0.0002 H       1  LIG1        0.2923
     17 H          -0.7725    8.2032   -0.0002 H       1  LIG1        0.0693
     18 C           2.2650    8.2833   -0.0001 C.ar    1  LIG1        0.2119
     19 C           2.2225    9.6675   -0.0001 C.ar    1  LIG1        0.1665
     20 C           3.5608   10.1349   -0.0001 C.ar    1  LIG1        0.0298
     21 C           4.3513    9.0090   -0.0002 C.ar    1  LIG1        0.1780
     22 O           3.5848    7.8837   -0.0002 O.2     1  LIG1       -0.4447
     23 O           1.1493   10.4981   -0.0001 O.3     1  LIG1       -0.5031
     24 H           0.3345    9.9810   -0.0000 H       1  LIG1        0.2923
     25 H           3.8890   11.1624   -0.0001 H       1  LIG1        0.0693
     26 C           5.7727    8.8444   -0.0002 C.ar    1  LIG1        0.2109
     27 C           6.6236    7.7588   -0.0001 C.ar    1  LIG1        0.1657
     28 C           7.9578    8.2753   -0.0002 C.ar    1  LIG1        0.0185
     29 C           7.8327    9.6321   -0.0003 C.ar    1  LIG1        0.0964
     30 O           6.5272    9.9975   -0.0002 O.2     1  LIG1       -0.4560
     31 H           8.5499   10.4377   -0.0004 H       1  LIG1        0.1031
     32 O           6.2238    6.4613   -0.0001 O.3     1  LIG1       -0.5031
     33 H           7.0065    5.8966   -0.0000 H       1  LIG1        0.2923
     34 H           8.8789    7.7091   -0.0001 H       1  LIG1        0.0686
@<TRIPOS>BOND
     1    31    29    1
     2    29    30   ar
     3    29    28   ar
     4    30    26   ar
     5    17    12    1
     6    26    21    1
     7    26    27   ar
     8    12    11   ar
     9    12    13   ar
    10    22    21   ar
    11    22    18   ar
    12    15    16    1
    13    15    11    1
    14    28    27   ar
    15    28    34    1
    16    21    20   ar
    17    11    10   ar
    18    13    18    1
    19    13    14   ar
    20    27    32    1
    21    20    25    1
    22    20    19   ar
    23    18    19   ar
    24    19    23    1
    25     5     4   ar
    26     5     1   ar
    27    14    10   ar
    28    10     4    1
    29     6     1    1
    30    23    24    1
    31     4     3   ar
    32     1     2   ar
    33    32    33    1
    34     3     2   ar
    35     3     9    1
    36     2     7    1
    37     7     8    1
