@<TRIPOS>MOLECULE
mol_data/opt/b3lyp/geoms/mol2/12fa12fa.out
 18 19 0 0 0
SMALL
GASTEIGER

@<TRIPOS>ATOM
      1 C           0.2275    1.7751   -0.0001 C.ar    1  LIG1        0.1340
      2 C           1.5897    1.8709    0.0000 C.ar    1  LIG1        0.1551
      3 C           1.9149    3.2630    0.0000 C.ar    1  LIG1        0.0290
      4 C           0.7104    3.9251   -0.0001 C.ar    1  LIG1        0.1769
      5 O          -0.3194    3.0356   -0.0001 O.2     1  LIG1       -0.4560
      6 H          -0.4594    0.9463   -0.0001 H       1  LIG1        0.1068
      7 O           2.4433    0.8068    0.0001 O.3     1  LIG1       -0.5036
      8 H           3.3483    1.1409    0.0001 H       1  LIG1        0.2923
      9 H           2.8928    3.7220    0.0000 H       1  LIG1        0.0693
     10 C           0.3949    5.3254   -0.0001 C.ar    1  LIG1        0.2108
     11 C           1.1930    6.4471   -0.0001 C.ar    1  LIG1        0.1657
     12 C           0.3251    7.5821   -0.0001 C.ar    1  LIG1        0.0185
     13 C          -0.9412    7.0754   -0.0002 C.ar    1  LIG1        0.0964
     14 O          -0.9211    5.7190   -0.0002 O.2     1  LIG1       -0.4560
     15 H          -1.9174    7.5338   -0.0003 H       1  LIG1        0.1031
     16 O           2.5566    6.4072   -0.0000 O.3     1  LIG1       -0.5031
     17 H           2.8965    7.3102   -0.0000 H       1  LIG1        0.2923
     18 H           0.6061    8.6262   -0.0001 H       1  LIG1        0.0686
@<TRIPOS>BOND
     1    15    13    1
     2    13    14   ar
     3    13    12   ar
     4    14    10   ar
     5    12    18    1
     6    12    11   ar
     7     5     4   ar
     8     5     1   ar
     9    10    11   ar
    10    10     4    1
    11     6     1    1
    12    11    16    1
    13     4     3   ar
    14     1     2   ar
    15    16    17    1
    16     3     2   ar
    17     3     9    1
    18     2     7    1
    19     7     8    1
