@<TRIPOS>MOLECULE
mol_data/opt/b3lyp/geoms/mol2/12fa12fa-12fa12fa.out
 34 37 0 0 0
SMALL
GASTEIGER

@<TRIPOS>ATOM
      1 C           0.1272    1.6959   -0.0001 C.ar    1  LIG1        0.1340
      2 C           1.4902    1.6530   -0.0001 C.ar    1  LIG1        0.1551
      3 C           1.9682    3.0033   -0.0000 C.ar    1  LIG1        0.0290
      4 C           0.8491    3.7969   -0.0001 C.ar    1  LIG1        0.1770
      5 O          -0.2803    3.0176   -0.0001 O.2     1  LIG1       -0.4560
      6 H          -0.6446    0.9465   -0.0001 H       1  LIG1        0.1068
      7 O           2.2265    0.5061   -0.0000 O.3     1  LIG1       -0.5036
      8 H           3.1617    0.7427    0.0000 H       1  LIG1        0.2923
      9 H           2.9925    3.3466    0.0000 H       1  LIG1        0.0693
     10 C           0.6163    5.2041   -0.0001 C.ar    1  LIG1        0.2119
     11 C          -0.5550    5.9375   -0.0001 C.ar    1  LIG1        0.1665
     12 C          -0.1907    7.3096   -0.0001 C.ar    1  LIG1        0.0298
     13 C           1.1868    7.3333   -0.0001 C.ar    1  LIG1        0.1780
     14 O           1.6911    6.0638   -0.0001 O.2     1  LIG1       -0.4447
     15 O          -1.8278    5.4760   -0.0001 O.3     1  LIG1       -0.5031
     16 H          -1.7927    4.5065   -0.0001 H       1  LIG1        0.2923
     17 H          -0.8527    8.1612   -0.0001 H       1  LIG1        0.0693
     18 C           2.1225    8.4110   -0.0001 C.ar    1  LIG1        0.2119
     19 C           3.5017    8.4981   -0.0000 C.ar    1  LIG1        0.1665
     20 C           3.8393    9.8794   -0.0001 C.ar    1  LIG1        0.0298
     21 C           2.6434   10.5618   -0.0001 C.ar    1  LIG1        0.1780
     22 O           1.6002    9.6875   -0.0002 O.2     1  LIG1       -0.4447
     23 O           4.3408    7.4294    0.0001 O.3     1  LIG1       -0.5031
     24 H           5.2495    7.7548    0.0001 H       1  LIG1        0.2923
     25 H           4.8237   10.3243   -0.0000 H       1  LIG1        0.0693
     26 C           2.3498   11.9622   -0.0002 C.ar    1  LIG1        0.2109
     27 C           3.1672   13.0723   -0.0002 C.ar    1  LIG1        0.1657
     28 C           2.3180   14.2200   -0.0003 C.ar    1  LIG1        0.0185
     29 C           1.0433   13.7333   -0.0003 C.ar    1  LIG1        0.0964
     30 O           1.0401   12.3772   -0.0003 O.2     1  LIG1       -0.4560
     31 H           0.0751   14.2083   -0.0003 H       1  LIG1        0.1031
     32 O           4.5282   13.0076   -0.0002 O.3     1  LIG1       -0.5031
     33 H           4.8865   13.9037   -0.0002 H       1  LIG1        0.2923
     34 H           2.6151   15.2595   -0.0004 H       1  LIG1        0.0686
@<TRIPOS>BOND
     1    34    28    1
     2    28    29   ar
     3    28    27   ar
     4    31    29    1
     5    29    30   ar
     6    30    26   ar
     7    27    26   ar
     8    27    32    1
     9    33    32    1
    10    26    21    1
    11    22    21   ar
    12    22    18   ar
    13    21    20   ar
    14     5     1   ar
    15     5     4   ar
    16     6     1    1
    17     1     2   ar
    18    14    13   ar
    19    14    10   ar
    20    18    13    1
    21    18    19   ar
    22    16    15    1
    23    13    12   ar
    24    10     4    1
    25    10    11   ar
    26     4     3   ar
    27    12    11   ar
    28    12    17    1
    29    11    15    1
    30    20    25    1
    31    20    19   ar
    32     2     3   ar
    33     2     7    1
    34     3     9    1
    35     7     8    1
    36    19    23    1
    37    23    24    1
