@<TRIPOS>MOLECULE
mol_data/opt/b3lyp/geoms/mol2/12fa13df13ef13ff-6fd12eh13la12la.out
 86 93 0 0 0
SMALL
GASTEIGER

@<TRIPOS>ATOM
      1 C           0.7690    2.0873    1.0024 C.ar    1  LIG1        0.1339
      2 C           2.0894    2.0533    0.6484 C.ar    1  LIG1        0.1551
      3 C           2.4432    3.3652    0.2068 C.ar    1  LIG1        0.0273
      4 C           1.3012    4.1191    0.3215 C.ar    1  LIG1        0.1559
      5 O           0.2754    3.3531    0.8039 O.2     1  LIG1       -0.4577
      6 H           0.0847    1.3503    1.3861 H       1  LIG1        0.1068
      7 O           2.8778    0.9484    0.7205 O.3     1  LIG1       -0.5036
      8 H           3.7679    1.1800    0.4275 H       1  LIG1        0.2923
      9 H           3.4039    3.7108   -0.1474 H       1  LIG1        0.0693
     10 C           0.9909    5.4925    0.0486 C.ar    1  LIG1        0.1039
     11 C           1.7987    6.5448   -0.4106 C.ar    1  LIG1        0.1220
     12 C           0.9898    7.7198   -0.4514 C.ar    1  LIG1        0.1616
     13 C          -0.2945    7.3691   -0.0239 C.ar    1  LIG1        0.1080
     14 N          -0.2577    6.0018    0.2551 N.ar    1  LIG1       -0.3466
     15 H          -0.9725    5.5004    0.7602 H       1  LIG1        0.1662
     16 N           4.2857    6.3092   -1.0528 N.1     1  LIG1       -0.1907
     17 C           3.1625    6.4400   -0.7709 C.1     1  LIG1        0.1051
     18 O           1.4540    8.8943   -0.9107 O.3     1  LIG1       -0.5034
     19 H           0.9021    9.6308   -0.5858 H       1  LIG1        0.2923
     20 C          -1.5202    8.1129    0.0470 C.ar    1  LIG1        0.0862
     21 C          -1.7584    9.4829    0.2183 C.ar    1  LIG1        0.0935
     22 C          -3.1770    9.6783    0.1580 C.ar    1  LIG1        0.1596
     23 C          -3.7767    8.4382   -0.0280 C.ar    1  LIG1        0.1103
     24 N          -2.7470    7.4844   -0.0579 N.ar    1  LIG1       -0.3478
     25 H          -2.8447    6.6329   -0.5939 H       1  LIG1        0.1661
     26 C          -0.7885   10.4783    0.4764 C.1     1  LIG1       -0.0638
     27 C           0.0615   11.3207    0.6788 C.1     1  LIG1       -0.1137
     28 H           0.7865   12.0681    0.9063 H       1  LIG1        0.1232
     29 O          -3.7492   10.8838    0.3384 O.3     1  LIG1       -0.5034
     30 H          -4.6802   10.8535    0.0495 H       1  LIG1        0.2923
     31 C          -5.1600    8.0716   -0.1074 C.ar    1  LIG1        0.1127
     32 C          -6.2799    8.8407   -0.3410 C.ar    1  LIG1        0.1864
     33 C          -7.4301    8.0114   -0.2498 C.ar    1  LIG1        0.1850
     34 C          -7.0232    6.7248    0.0376 C.ar    1  LIG1        0.0979
     35 N          -5.6012    6.7437    0.0611 N.ar    1  LIG1       -0.3469
     36 H          -5.1529    6.2131    0.8023 H       1  LIG1        0.1662
     37 O          -6.2692   10.1704   -0.6755 O.3     1  LIG1       -0.5019
     38 H          -7.1836   10.4812   -0.7421 H       1  LIG1        0.2924
     39 O          -8.6686    8.5163   -0.5062 O.3     1  LIG1       -0.5019
     40 H          -9.3006    7.7905   -0.6110 H       1  LIG1        0.2924
     41 C          -7.3546    4.2511   -0.3831 C.ar    1  LIG1        0.2225
     42 C          -7.7977    5.5017    0.1570 C.ar    1  LIG1        0.0646
     43 C          -9.0385    5.4721    0.7939 C.ar    1  LIG1       -0.0278
     44 C          -9.8079    4.2989    0.8459 C.ar    1  LIG1        0.0816
     45 C          -9.2980    3.1369    0.2014 C.ar    1  LIG1        0.1284
     46 N          -8.0670    3.1468   -0.3590 N.ar    1  LIG1       -0.2080
     47 H          -9.3968    6.3550    1.3149 H       1  LIG1        0.0639
     48 O          -6.1431    4.1407   -0.9730 O.3     1  LIG1       -0.4919
     49 H          -5.7455    5.0278   -1.0338 H       1  LIG1        0.2937
     50 N         -11.8863    4.4019    2.3878 N.1     1  LIG1       -0.1908
     51 C         -10.9765    4.3161    1.6659 C.1     1  LIG1        0.1014
     52 C         -10.0159    1.8865    0.0974 C.ar    1  LIG1        0.1724
     53 C         -11.3568    1.5221   -0.0191 C.ar    1  LIG1        0.0932
     54 C         -11.3933    0.0953   -0.1704 C.ar    1  LIG1        0.0889
     55 C         -10.0700   -0.3249   -0.1673 C.ar    1  LIG1        0.1772
     56 O          -9.2480    0.7643   -0.0054 O.2     1  LIG1       -0.4485
     57 C         -12.5116    2.3313   -0.1254 C.1     1  LIG1       -0.0639
     58 C         -13.5461    2.9458   -0.2636 C.1     1  LIG1       -0.1137
     59 H         -14.4362    3.5266   -0.3356 H       1  LIG1        0.1232
     60 N         -12.5453   -0.6578   -0.2433 N.pl3   1  LIG1       -0.3540
     61 H         -13.3514   -0.1550   -0.5886 H       1  LIG1        0.1425
     62 H         -12.4279   -1.5918   -0.6143 H       1  LIG1        0.1425
     63 C          -9.3997   -1.5813   -0.2906 C.ar    1  LIG1        0.1267
     64 C          -9.8385   -2.8910   -0.5336 C.ar    1  LIG1        0.1490
     65 C          -8.7188   -3.7482   -0.5570 C.ar    1  LIG1        0.0093
     66 C          -7.5941   -2.9491   -0.3358 C.ar    1  LIG1        0.0898
     67 N          -8.0221   -1.6578   -0.1800 N.ar    1  LIG1       -0.3463
     68 H          -7.4266   -0.8583   -0.0284 H       1  LIG1        0.1662
     69 O         -11.1552   -3.2055   -0.7312 O.3     1  LIG1       -0.4929
     70 C         -11.4499   -4.5884   -0.8828 C.3     1  LIG1        0.0789
     71 H         -12.5321   -4.6624   -0.9980 H       1  LIG1        0.0660
     72 H         -10.9595   -5.0022   -1.7724 H       1  LIG1        0.0660
     73 H         -11.1365   -5.1585    0.0000 H       1  LIG1        0.0660
     74 H          -8.6956   -4.8137   -0.7165 H       1  LIG1        0.0677
     75 C          -6.2091   -3.3049   -0.2675 C.ar    1  LIG1        0.1923
     76 C          -5.5312   -4.5008   -0.3851 C.ar    1  LIG1        0.1670
     77 C          -4.1381   -4.2140   -0.2231 C.ar    1  LIG1        0.0187
     78 C          -4.0581   -2.8684   -0.0182 C.ar    1  LIG1        0.0963
     79 O          -5.2947   -2.3013   -0.0409 O.2     1  LIG1       -0.4577
     80 H          -3.2319   -2.1964    0.1501 H       1  LIG1        0.1031
     81 O          -6.1555   -5.6861   -0.6141 O.3     1  LIG1       -0.4913
     82 C          -5.3155   -6.8293   -0.7052 C.3     1  LIG1        0.0790
     83 H          -5.9743   -7.6790   -0.8878 H       1  LIG1        0.0660
     84 H          -4.6040   -6.7383   -1.5358 H       1  LIG1        0.0660
     85 H          -4.7619   -6.9947    0.2278 H       1  LIG1        0.0660
     86 H          -3.3108   -4.9064   -0.2543 H       1  LIG1        0.0686
@<TRIPOS>BOND
     1    72    70    1
     2    84    82    1
     3    16    17    3
     4    49    48    1
     5    71    70    1
     6    48    41    1
     7    18    19    1
     8    18    12    1
     9    83    82    1
    10    70    69    1
    11    70    73    1
    12    17    11    1
    13    38    37    1
    14    69    64    1
    15    74    65    1
    16    82    81    1
    17    82    85    1
    18    37    32    1
    19    62    60    1
    20    81    76    1
    21    40    39    1
    22    25    24    1
    23    61    60    1
    24    65    64   ar
    25    65    66   ar
    26    64    63   ar
    27    39    33    1
    28    12    11   ar
    29    12    13   ar
    30    11    10   ar
    31    76    75   ar
    32    76    77   ar
    33    41    46   ar
    34    41    42   ar
    35    46    45   ar
    36    32    33   ar
    37    32    31   ar
    38    66    75    1
    39    66    67   ar
    40    59    58    1
    41    63    67   ar
    42    63    55    1
    43    75    79   ar
    44    58    57    3
    45    86    77    1
    46    33    34   ar
    47    60    54    1
    48    77    78   ar
    49    67    68    1
    50    54    55   ar
    51    54    53   ar
    52    55    56   ar
    53     9     3    1
    54    57    53    1
    55    31    23    1
    56    31    35   ar
    57    24    23   ar
    58    24    20   ar
    59    79    78   ar
    60    23    22   ar
    61    13    20    1
    62    13    14   ar
    63    53    52   ar
    64    78    80    1
    65    56    52   ar
    66    34    35   ar
    67    34    42    1
    68    20    21   ar
    69    10    14   ar
    70    10     4    1
    71    30    29    1
    72    35    36    1
    73    52    45    1
    74    42    43   ar
    75    22    21   ar
    76    22    29    1
    77    45    44   ar
    78     3     4   ar
    79     3     2   ar
    80    21    26    1
    81    14    15    1
    82     4     5   ar
    83     8     7    1
    84    26    27    3
    85     2     7    1
    86     2     1   ar
    87    27    28    1
    88    43    44   ar
    89    43    47    1
    90     5     1   ar
    91    44    51    1
    92     1     6    1
    93    51    50    3
