@<TRIPOS>MOLECULE
mol_data/opt/b3lyp/geoms/mol2/12fd12hh13aa-6ih-.out
 44 47 0 0 0
SMALL
GASTEIGER

@<TRIPOS>ATOM
      1 C           0.4868    1.7385   -0.9030 C.ar    1  LIG1        0.1354
      2 C           1.8237    1.7538   -0.6698 C.ar    1  LIG1        0.1729
      3 C           2.1769    3.1205   -0.3550 C.ar    1  LIG1        0.1418
      4 C           0.9913    3.8560   -0.4343 C.ar    1  LIG1        0.1926
      5 O          -0.0209    3.0172   -0.7620 O.2     1  LIG1       -0.4547
      6 H          -0.2154    0.9644   -1.1582 H       1  LIG1        0.1068
      7 O           2.6581    0.6878   -0.7139 O.3     1  LIG1       -0.5028
      8 H           3.5555    0.9785   -0.4997 H       1  LIG1        0.2923
      9 N           4.5455    3.8452    0.3496 N.1     1  LIG1       -0.1906
     10 C           3.4634    3.5407    0.0284 C.1     1  LIG1        0.1068
     11 C           0.6667    5.2287   -0.2576 C.ar    1  LIG1        0.1944
     12 C           1.3927    6.4087   -0.1219 C.ar    1  LIG1        0.0958
     13 C           0.4282    7.4628    0.0003 C.ar    1  LIG1        0.0942
     14 C          -0.8171    6.8781   -0.0760 C.ar    1  LIG1        0.1743
     15 O          -0.6920    5.5308   -0.2209 O.2     1  LIG1       -0.4464
     16 N           2.7364    6.6638   -0.1579 N.pl3   1  LIG1       -0.3535
     17 H           3.3893    5.9302    0.0791 H       1  LIG1        0.1425
     18 H           2.9695    7.5805    0.2043 H       1  LIG1        0.1425
     19 N           0.8100    8.8119    0.2127 N.pl3   1  LIG1       -0.3535
     20 H           0.8040    9.3589   -0.6449 H       1  LIG1        0.1425
     21 H           0.2091    9.2741    0.8882 H       1  LIG1        0.1425
     22 C          -2.1542    7.3942   -0.0145 C.ar    1  LIG1        0.0845
     23 C          -2.6502    8.6961    0.0413 C.ar    1  LIG1       -0.0327
     24 C          -4.0573    8.6101    0.0684 C.ar    1  LIG1       -0.0357
     25 C          -4.4146    7.2622    0.0323 C.ar    1  LIG1        0.0488
     26 N          -3.2395    6.5468   -0.0107 N.ar    1  LIG1       -0.3517
     27 H          -3.1587    5.5457   -0.0937 H       1  LIG1        0.1660
     28 H          -2.0569    9.5983    0.0543 H       1  LIG1        0.0640
     29 H          -4.7504    9.4358    0.1412 H       1  LIG1        0.0639
     30 C          -6.0763    5.4130    0.6046 C.ar    1  LIG1        0.0474
     31 C          -5.7510    6.6579    0.0083 C.ar    1  LIG1        0.0210
     32 C          -6.7800    7.3701   -0.6258 C.ar    1  LIG1       -0.0287
     33 C          -8.0820    6.8666   -0.6607 C.ar    1  LIG1        0.0435
     34 C          -8.2884    5.6182   -0.0495 C.ar    1  LIG1        0.0485
     35 N          -7.3257    4.9283    0.5557 N.ar    1  LIG1       -0.2577
     36 H          -6.5526    8.3163   -1.1089 H       1  LIG1        0.0643
     37 H          -9.2820    5.1693   -0.0516 H       1  LIG1        0.0848
     38 C          -5.0828    4.5515    1.3504 C.3     1  LIG1       -0.0217
     39 H          -4.4041    5.1426    1.9720 H       1  LIG1        0.0293
     40 H          -4.4705    3.9393    0.6730 H       1  LIG1        0.0293
     41 H          -5.6357    3.8581    1.9859 H       1  LIG1        0.0293
     42 N          -9.1359    7.5784   -1.2295 N.pl3   1  LIG1       -0.3568
     43 H          -8.8722    8.2460   -1.9412 H       1  LIG1        0.1424
     44 H          -9.9263    7.0167   -1.5158 H       1  LIG1        0.1424
@<TRIPOS>BOND
     1    43    42    1
     2    44    42    1
     3    42    33    1
     4     6     1    1
     5    36    32    1
     6     1     5   ar
     7     1     2   ar
     8     5     4   ar
     9     7     2    1
    10     7     8    1
    11     2     3   ar
    12    33    32   ar
    13    33    34   ar
    14    20    19    1
    15    32    31   ar
    16     4     3   ar
    17     4    11    1
    18     3    10    1
    19    11    15   ar
    20    11    12   ar
    21    15    14   ar
    22    16    12    1
    23    16    17    1
    24    16    18    1
    25    12    13   ar
    26    27    26    1
    27    14    22    1
    28    14    13   ar
    29    37    34    1
    30    34    35   ar
    31    22    26   ar
    32    22    23   ar
    33    26    25   ar
    34    13    19    1
    35    31    25    1
    36    31    30   ar
    37    10     9    3
    38    25    24   ar
    39    23    28    1
    40    23    24   ar
    41    24    29    1
    42    19    21    1
    43    35    30   ar
    44    30    38    1
    45    40    38    1
    46    38    39    1
    47    38    41    1
