@<TRIPOS>MOLECULE
mol_data/opt/b3lyp/geoms/mol2/12fd12eh-6ai4aa.out
 44 47 0 0 0
SMALL
GASTEIGER

@<TRIPOS>ATOM
      1 C           0.4238    1.6372   -0.3332 C.ar    1  LIG1        0.1354
      2 C           1.7388    1.6750    0.0185 C.ar    1  LIG1        0.1729
      3 C           2.0839    3.0669    0.1794 C.ar    1  LIG1        0.1418
      4 C           0.9263    3.7846   -0.1019 C.ar    1  LIG1        0.1920
      5 O          -0.0679    2.9164   -0.4078 O.2     1  LIG1       -0.4547
      6 H          -0.2641    0.8383   -0.5493 H       1  LIG1        0.1068
      7 O           2.5537    0.6121    0.1933 O.3     1  LIG1       -0.5028
      8 H           3.4268    0.9250    0.4729 H       1  LIG1        0.2923
      9 N           4.4443    3.6594    1.0167 N.1     1  LIG1       -0.1906
     10 C           3.3608    3.4731    0.6285 C.1     1  LIG1        0.1068
     11 C           0.5894    5.1769   -0.1305 C.ar    1  LIG1        0.1891
     12 C           1.3329    6.3455   -0.2279 C.ar    1  LIG1        0.0947
     13 C           0.3811    7.4241   -0.2120 C.ar    1  LIG1        0.0874
     14 C          -0.8709    6.8494   -0.1079 C.ar    1  LIG1        0.1591
     15 O          -0.7324    5.4781   -0.0720 O.2     1  LIG1       -0.4485
     16 C           2.7245    6.5180   -0.3998 C.1     1  LIG1       -0.0639
     17 C           3.9028    6.7401   -0.5690 C.1     1  LIG1       -0.1137
     18 H           4.9525    6.8795   -0.6898 H       1  LIG1        0.1232
     19 N           0.7186    8.7704   -0.2751 N.pl3   1  LIG1       -0.3541
     20 H           1.6834    8.9133   -0.5521 H       1  LIG1        0.1425
     21 H           0.0886    9.3336   -0.8332 H       1  LIG1        0.1425
     22 C          -3.3408    6.5714   -0.2838 C.ar    1  LIG1        0.0390
     23 C          -2.2141    7.3838   -0.0501 C.ar    1  LIG1        0.0375
     24 C          -2.4726    8.7252    0.2719 C.ar    1  LIG1       -0.0446
     25 C          -3.7747    9.2269    0.3019 C.ar    1  LIG1       -0.0238
     26 C          -4.8263    8.3302   -0.0112 C.ar    1  LIG1        0.0739
     27 N          -4.5865    7.0257   -0.2622 N.ar    1  LIG1       -0.2540
     28 H          -1.6522    9.3782    0.5554 H       1  LIG1        0.0628
     29 H          -3.2124    5.5126   -0.4943 H       1  LIG1        0.0837
     30 C          -3.9849   10.6638    0.7245 C.3     1  LIG1       -0.0377
     31 H          -4.9219   10.7942    1.2702 H       1  LIG1        0.0278
     32 H          -4.0116   11.3461   -0.1334 H       1  LIG1        0.0278
     33 H          -3.1638   10.9908    1.3692 H       1  LIG1        0.0278
     34 C          -6.7147    9.9260   -0.5934 C.ar    1  LIG1       -0.0526
     35 C          -8.0757   10.2298   -0.6373 C.ar    1  LIG1       -0.0611
     36 C          -6.2656    8.7121   -0.0493 C.ar    1  LIG1        0.0006
     37 C          -9.0132    9.3277   -0.1349 C.ar    1  LIG1       -0.0617
     38 H          -8.4020   11.1699   -1.0727 H       1  LIG1        0.0618
     39 C          -7.2236    7.8026    0.4317 C.ar    1  LIG1       -0.0526
     40 C          -8.5806    8.1105    0.3972 C.ar    1  LIG1       -0.0611
     41 H          -6.8829    6.8518    0.8259 H       1  LIG1        0.0624
     42 H         -10.0722    9.5668   -0.1643 H       1  LIG1        0.0618
     43 H          -6.0031   10.6259   -1.0171 H       1  LIG1        0.0624
     44 H          -9.3038    7.3981    0.7837 H       1  LIG1        0.0618
@<TRIPOS>BOND
     1    38    35    1
     2    43    34    1
     3    21    19    1
     4    18    17    1
     5    35    34   ar
     6    35    37   ar
     7    34    36   ar
     8    17    16    3
     9    20    19    1
    10     6     1    1
    11    29    22    1
    12     5     1   ar
    13     5     4   ar
    14    16    12    1
    15     1     2   ar
    16    22    27   ar
    17    22    23   ar
    18    19    13    1
    19    27    26   ar
    20    12    13   ar
    21    12    11   ar
    22    13    14   ar
    23    42    37    1
    24    37    40   ar
    25    32    30    1
    26    11     4    1
    27    11    15   ar
    28    14    15   ar
    29    14    23    1
    30     4     3   ar
    31    23    24   ar
    32    36    26    1
    33    36    39   ar
    34    26    25   ar
    35     2     3   ar
    36     2     7    1
    37     3    10    1
    38     7     8    1
    39    24    25   ar
    40    24    28    1
    41    25    30    1
    42    40    39   ar
    43    40    44    1
    44    39    41    1
    45    10     9    3
    46    30    31    1
    47    30    33    1
