@<TRIPOS>MOLECULE
mol_data/opt/b3lyp/geoms/mol2/12fd4ll-12le6ef.out
 49 52 0 0 0
SMALL
GASTEIGER

@<TRIPOS>ATOM
      1 C           0.3328    1.6039   -0.5818 C.ar    1  LIG1        0.1338
      2 C           1.5343    1.5807    0.0655 C.ar    1  LIG1        0.1550
      3 C           1.8697    2.9349    0.3734 C.ar    1  LIG1        0.0259
      4 C           0.8406    3.7081   -0.1104 C.ar    1  LIG1        0.1419
      5 O          -0.0976    2.8993   -0.6932 O.2     1  LIG1       -0.4591
      6 H          -0.3021    0.8395   -0.9966 H       1  LIG1        0.1068
      7 O           2.2469    0.4515    0.3445 O.3     1  LIG1       -0.5036
      8 H           3.0525    0.7067    0.8100 H       1  LIG1        0.2923
      9 H           2.7479    3.2985    0.8821 H       1  LIG1        0.0692
     10 C           1.4353    6.0900    0.4304 C.ar    1  LIG1        0.1281
     11 C           1.1366    7.4511    0.3900 C.ar    1  LIG1       -0.0117
     12 C           0.5581    5.1350   -0.1289 C.ar    1  LIG1        0.0588
     13 C          -0.0452    7.9289   -0.2009 C.ar    1  LIG1       -0.0125
     14 H           1.8278    8.1554    0.8464 H       1  LIG1        0.0660
     15 C          -0.6217    5.6240   -0.7196 C.ar    1  LIG1       -0.0470
     16 C          -0.9206    6.9789   -0.7581 C.ar    1  LIG1       -0.0531
     17 H          -1.3055    4.9095   -1.1632 H       1  LIG1        0.0626
     18 O           2.5864    5.6414    1.0222 O.3     1  LIG1       -0.5060
     19 H           3.0701    6.4014    1.3719 H       1  LIG1        0.2922
     20 H          -1.8309    7.3120   -1.2456 H       1  LIG1        0.0624
     21 C           0.5497   10.3851   -0.5177 C.ar    1  LIG1        0.0332
     22 C           0.1354   11.7223   -0.4934 C.ar    1  LIG1       -0.0278
     23 C          -0.3837    9.3736   -0.2029 C.ar    1  LIG1        0.0064
     24 C          -1.1634   12.1307   -0.1560 C.ar    1  LIG1        0.0421
     25 H           0.8559   12.4800   -0.7768 H       1  LIG1        0.0644
     26 C          -1.7008    9.7671    0.0980 C.ar    1  LIG1       -0.0098
     27 C          -2.0975   11.0977    0.1249 C.ar    1  LIG1        0.1299
     28 H          -2.4102    8.9880    0.3458 H       1  LIG1        0.0661
     29 N           1.8871   10.0887   -0.8387 N.pl3   1  LIG1       -0.3575
     30 H           2.0066    9.1921   -1.2949 H       1  LIG1        0.1423
     31 H           2.3368   10.8231   -1.3710 H       1  LIG1        0.1423
     32 O          -3.3908   11.4839    0.4277 O.3     1  LIG1       -0.4944
     33 C          -4.3269   10.4865    0.8024 C.3     1  LIG1        0.0788
     34 H          -5.2546   11.0137    1.0312 H       1  LIG1        0.0660
     35 H          -4.5094    9.7731   -0.0115 H       1  LIG1        0.0660
     36 H          -3.9956    9.9378    1.6925 H       1  LIG1        0.0660
     37 C          -1.4967   13.5557   -0.1179 C.ar    1  LIG1        0.0566
     38 C          -0.6775   14.6870    0.0269 C.ar    1  LIG1        0.0163
     39 C          -1.5395   15.8123   -0.0283 C.ar    1  LIG1        0.1375
     40 C          -2.8402   15.3753   -0.1968 C.ar    1  LIG1        0.0444
     41 N          -2.7927   14.0055   -0.2517 N.ar    1  LIG1       -0.3573
     42 H          -3.5787   13.3763   -0.2654 H       1  LIG1        0.1655
     43 H          -3.7691   15.9195   -0.2797 H       1  LIG1        0.0844
     44 C           0.8014   14.7907    0.2596 C.3     1  LIG1       -0.0342
     45 H           1.0318   15.7570    0.7166 H       1  LIG1        0.0279
     46 H           1.3854   14.7331   -0.6692 H       1  LIG1        0.0279
     47 H           1.1666   14.0034    0.9264 H       1  LIG1        0.0279
     48 O          -1.0725   17.0986    0.0782 O.3     1  LIG1       -0.5050
     49 H          -1.8265   17.6956    0.1574 H       1  LIG1        0.2922
@<TRIPOS>BOND
     1    31    29    1
     2    30    29    1
     3    20    16    1
     4    17    15    1
     5     6     1    1
     6    29    21    1
     7    25    22    1
     8    16    15   ar
     9    16    13   ar
    10    15    12   ar
    11     5     1   ar
    12     5     4   ar
    13    46    44    1
    14     1     2   ar
    15    21    22   ar
    16    21    23   ar
    17    22    24   ar
    18    43    40    1
    19    42    41    1
    20    41    40   ar
    21    41    37   ar
    22    23    13    1
    23    23    26   ar
    24    13    11   ar
    25    40    39   ar
    26    24    37    1
    27    24    27   ar
    28    12     4    1
    29    12    10   ar
    30    37    38   ar
    31     4     3   ar
    32    39    38   ar
    33    39    48    1
    34    35    33    1
    35    38    44    1
    36     2     7    1
    37     2     3   ar
    38    48    49    1
    39    26    27   ar
    40    26    28    1
    41    27    32    1
    42    44    45    1
    43    44    47    1
    44     7     8    1
    45     3     9    1
    46    11    10   ar
    47    11    14    1
    48    32    33    1
    49    10    18    1
    50    33    34    1
    51    33    36    1
    52    18    19    1
