@<TRIPOS>MOLECULE
mol_data/opt/b3lyp/geoms/mol2/12fe4hh6il13df.out
 52 55 0 0 0
SMALL
GASTEIGER

@<TRIPOS>ATOM
      1 C           0.1820    1.5672   -0.3350 C.ar    1  LIG1        0.1351
      2 C           1.5266    1.5075   -0.1514 C.ar    1  LIG1        0.1708
      3 C           1.9849    2.8666    0.0295 C.ar    1  LIG1        0.1118
      4 C           0.8567    3.6721   -0.0483 C.ar    1  LIG1        0.1556
      5 O          -0.2261    2.8786   -0.2725 O.2     1  LIG1       -0.4579
      6 H          -0.5815    0.8263   -0.4992 H       1  LIG1        0.1068
      7 O           2.2999    0.3951   -0.1492 O.3     1  LIG1       -0.5028
      8 H           3.2162    0.6697    0.0033 H       1  LIG1        0.2923
      9 C           3.3532    3.1987    0.1499 C.1     1  LIG1       -0.0622
     10 C           4.5461    3.3926    0.2639 C.1     1  LIG1       -0.1137
     11 H           5.5909    3.5937    0.3256 H       1  LIG1        0.1232
     12 C           1.2685    6.0058    0.8658 C.ar    1  LIG1        0.0361
     13 C           0.8902    7.3566    0.8210 C.ar    1  LIG1       -0.0308
     14 C           0.5942    5.1089   -0.0024 C.ar    1  LIG1        0.0410
     15 C          -0.1285    7.8451   -0.0000 C.ar    1  LIG1        0.0063
     16 H           1.3908    8.0555    1.4868 H       1  LIG1        0.0643
     17 C          -0.4189    5.6058   -0.8425 C.ar    1  LIG1       -0.0280
     18 C          -0.7972    6.9469   -0.8649 C.ar    1  LIG1        0.0332
     19 H          -0.9176    4.9068   -1.5067 H       1  LIG1        0.0644
     20 N           2.1922    5.5883    1.8256 N.pl3   1  LIG1       -0.3574
     21 H           2.8206    4.8424    1.5590 H       1  LIG1        0.1423
     22 H           2.6957    6.3509    2.2584 H       1  LIG1        0.1423
     23 N          -1.8380    7.3820   -1.7044 N.pl3   1  LIG1       -0.3575
     24 H          -1.7452    8.3446   -2.0049 H       1  LIG1        0.1423
     25 H          -2.0022    6.7728   -2.4955 H       1  LIG1        0.1423
     26 C          -1.6730    9.8142    0.4938 C.ar    1  LIG1        0.0469
     27 C          -0.4434    9.3028    0.0194 C.ar    1  LIG1        0.0085
     28 C           0.5260   10.2220   -0.4040 C.ar    1  LIG1       -0.0083
     29 C           0.2644   11.5906   -0.3744 C.ar    1  LIG1        0.1480
     30 C          -1.0001   12.0203    0.0827 C.ar    1  LIG1        0.1302
     31 N          -1.9146   11.1300    0.5080 N.ar    1  LIG1       -0.2461
     32 H           1.4809    9.8534   -0.7606 H       1  LIG1        0.0661
     33 C          -2.7611    8.9195    1.0323 C.3     1  LIG1       -0.0217
     34 H          -2.3752    8.2538    1.8114 H       1  LIG1        0.0293
     35 H          -3.1743    8.2832    0.2425 H       1  LIG1        0.0293
     36 H          -3.5591    9.5335    1.4529 H       1  LIG1        0.0293
     37 O           1.1267   12.5571   -0.7511 O.3     1  LIG1       -0.4929
     38 C           2.4052   12.2181   -1.2695 C.3     1  LIG1        0.0789
     39 H           2.8680   13.1712   -1.5254 H       1  LIG1        0.0660
     40 H           3.0135   11.6960   -0.5205 H       1  LIG1        0.0660
     41 H           2.3188   11.5949   -2.1680 H       1  LIG1        0.0660
     42 C          -1.4309   13.4219    0.1565 C.ar    1  LIG1        0.0898
     43 C          -0.9192   14.6937   -0.1916 C.ar    1  LIG1        0.1199
     44 C          -1.9204   15.6504    0.1702 C.ar    1  LIG1        0.1521
     45 C          -2.9905   14.9707    0.7141 C.ar    1  LIG1        0.0455
     46 N          -2.6666   13.6375    0.6916 N.ar    1  LIG1       -0.3553
     47 H          -3.2185   12.8475    0.9996 H       1  LIG1        0.1655
     48 H          -3.9309   15.3266    1.1060 H       1  LIG1        0.0845
     49 N           1.2636   15.5213   -1.2934 N.1     1  LIG1       -0.1907
     50 C           0.3002   15.0931   -0.7975 C.1     1  LIG1        0.1050
     51 O          -1.7532   16.9846   -0.0283 O.3     1  LIG1       -0.5040
     52 H          -2.5414   17.4521    0.2755 H       1  LIG1        0.2923
@<TRIPOS>BOND
     1    25    23    1
     2    41    38    1
     3    24    23    1
     4    23    18    1
     5    39    38    1
     6    19    17    1
     7    49    50    3
     8    38    37    1
     9    38    40    1
    10    18    17   ar
    11    18    15   ar
    12    17    14   ar
    13    50    43    1
    14    32    28    1
    15    37    29    1
    16     6     1    1
    17    28    29   ar
    18    28    27   ar
    19    29    30   ar
    20     1     5   ar
    21     1     2   ar
    22     5     4   ar
    23    43    42   ar
    24    43    44   ar
    25     2     7    1
    26     2     3   ar
    27     7     8    1
    28     4    14    1
    29     4     3   ar
    30    51    44    1
    31    51    52    1
    32    14    12   ar
    33    15    27    1
    34    15    13   ar
    35    27    26   ar
    36     3     9    1
    37    30    42    1
    38    30    31   ar
    39     9    10    3
    40    42    46   ar
    41    44    45   ar
    42    35    33    1
    43    10    11    1
    44    26    31   ar
    45    26    33    1
    46    46    45   ar
    47    46    47    1
    48    45    48    1
    49    13    12   ar
    50    13    16    1
    51    12    20    1
    52    33    36    1
    53    33    34    1
    54    21    20    1
    55    20    22    1
