@<TRIPOS>MOLECULE
mol_data/opt/b3lyp/geoms/mol2/12fe12fe12fe-12fe.out
 42 45 0 0 0
SMALL
GASTEIGER

@<TRIPOS>ATOM
      1 C           0.1240    1.7745   -0.0001 C.ar    1  LIG1        0.1353
      2 C           1.4819    1.7221   -0.0000 C.ar    1  LIG1        0.1709
      3 C           1.9678    3.0838   -0.0000 C.ar    1  LIG1        0.1149
      4 C           0.8307    3.8811   -0.0001 C.ar    1  LIG1        0.1924
      5 O          -0.2792    3.0936   -0.0001 O.2     1  LIG1       -0.4547
      6 H          -0.6537    1.0308   -0.0001 H       1  LIG1        0.1068
      7 O           2.2574    0.6131   -0.0000 O.3     1  LIG1       -0.5028
      8 H           3.1821    0.9069    0.0000 H       1  LIG1        0.2923
      9 C           3.3468    3.3863    0.0000 C.1     1  LIG1       -0.0621
     10 C           4.5554    3.4886    0.0000 C.1     1  LIG1       -0.1137
     11 H           5.6095    3.6419    0.0000 H       1  LIG1        0.1232
     12 C           0.5925    5.2901   -0.0001 C.ar    1  LIG1        0.2144
     13 C           1.3664    6.4276   -0.0001 C.ar    1  LIG1        0.1823
     14 C           0.4875    7.5665   -0.0001 C.ar    1  LIG1        0.1157
     15 C          -0.7987    7.0477   -0.0001 C.ar    1  LIG1        0.1934
     16 O          -0.7420    5.6841   -0.0001 O.2     1  LIG1       -0.4434
     17 O           2.7120    6.4817   -0.0000 O.3     1  LIG1       -0.5023
     18 H           2.9690    7.4176   -0.0000 H       1  LIG1        0.2923
     19 C           0.9469    8.9012   -0.0001 C.1     1  LIG1       -0.0621
     20 C           1.4458   10.0059   -0.0001 C.1     1  LIG1       -0.1137
     21 H           1.8398   10.9955   -0.0002 H       1  LIG1        0.1232
     22 C          -2.1129    7.5788   -0.0002 C.ar    1  LIG1        0.2144
     23 C          -3.3345    6.9307   -0.0002 C.ar    1  LIG1        0.1823
     24 C          -4.3499    7.9414   -0.0002 C.ar    1  LIG1        0.1157
     25 C          -3.6598    9.1510   -0.0002 C.ar    1  LIG1        0.1934
     26 O          -2.3171    8.9401   -0.0002 O.2     1  LIG1       -0.4434
     27 O          -3.5881    5.6118   -0.0002 O.3     1  LIG1       -0.5023
     28 H          -2.7440    5.1307   -0.0002 H       1  LIG1        0.2923
     29 C          -5.7456    7.7143   -0.0003 C.1     1  LIG1       -0.0621
     30 C          -6.9331    7.4840   -0.0003 C.1     1  LIG1       -0.1137
     31 H          -7.9791    7.2832   -0.0000 H       1  LIG1        0.1232
     32 C          -4.0909   10.5114   -0.0003 C.ar    1  LIG1        0.2134
     33 C          -3.4265   11.7198   -0.0002 C.ar    1  LIG1        0.1815
     34 C          -4.4327   12.7511   -0.0003 C.ar    1  LIG1        0.1045
     35 C          -5.6357   12.0894   -0.0004 C.ar    1  LIG1        0.1118
     36 O          -5.4495   10.7558   -0.0004 O.2     1  LIG1       -0.4547
     37 H          -6.6569   12.4355   -0.0005 H       1  LIG1        0.1043
     38 O          -2.0922   11.9068   -0.0001 O.3     1  LIG1       -0.5023
     39 H          -1.9272   12.8623   -0.0001 H       1  LIG1        0.2923
     40 C          -4.1546   14.1394   -0.0003 C.1     1  LIG1       -0.0628
     41 C          -3.8342   15.3073   -0.0002 C.1     1  LIG1       -0.1137
     42 H          -3.5864   16.3439   -0.0002 H       1  LIG1        0.1232
@<TRIPOS>BOND
     1    37    35    1
     2    35    36   ar
     3    35    34   ar
     4    36    32   ar
     5    34    40    1
     6    34    33   ar
     7    32    25    1
     8    32    33   ar
     9    40    41    3
    10    29    30    3
    11    29    24    1
    12    30    31    1
    13    25    24   ar
    14    25    26   ar
    15    24    23   ar
    16    41    42    1
    17    33    38    1
    18    26    22   ar
    19    23    22   ar
    20    23    27    1
    21    22    15    1
    22    27    28    1
    23    21    20    1
    24    15    16   ar
    25    15    14   ar
    26    16    12   ar
    27    38    39    1
    28    14    19    1
    29    14    13   ar
    30     5     1   ar
    31     5     4   ar
    32     6     1    1
    33    19    20    3
    34    12     4    1
    35    12    13   ar
    36     1     2   ar
    37     4     3   ar
    38    13    17    1
    39     2     3   ar
    40     2     7    1
    41     3     9    1
    42    17    18    1
    43     7     8    1
    44     9    10    3
    45    11    10    1
