@<TRIPOS>MOLECULE
mol_data/opt/b3lyp/geoms/mol2/12fe12fe12fe-12fe-.out
 42 45 0 0 0
SMALL
GASTEIGER

@<TRIPOS>ATOM
      1 C           0.1001    1.7856   -0.0001 C.ar    1  LIG1        0.1353
      2 C           1.4571    1.7129   -0.0000 C.ar    1  LIG1        0.1709
      3 C           1.9632    3.0672   -0.0000 C.ar    1  LIG1        0.1149
      4 C           0.8384    3.8811   -0.0001 C.ar    1  LIG1        0.1924
      5 O          -0.2836    3.1104   -0.0001 O.2     1  LIG1       -0.4547
      6 H          -0.6883    1.0532   -0.0001 H       1  LIG1        0.1068
      7 O           2.2150    0.5922   -0.0000 O.3     1  LIG1       -0.5028
      8 H           3.1445    0.8706   -0.0000 H       1  LIG1        0.2923
      9 C           3.3466    3.3496   -0.0000 C.1     1  LIG1       -0.0621
     10 C           4.5564    3.4354   -0.0000 C.1     1  LIG1       -0.1137
     11 H           5.6127    3.5736   -0.0002 H       1  LIG1        0.1232
     12 C           0.6199    5.2935   -0.0001 C.ar    1  LIG1        0.2144
     13 C           1.4081    6.4211   -0.0001 C.ar    1  LIG1        0.1823
     14 C           0.5433    7.5714   -0.0001 C.ar    1  LIG1        0.1157
     15 C          -0.7484    7.0682   -0.0001 C.ar    1  LIG1        0.1934
     16 O          -0.7093    5.7042   -0.0001 O.2     1  LIG1       -0.4434
     17 O           2.7541    6.4565   -0.0001 O.3     1  LIG1       -0.5023
     18 H           3.0260    7.3881   -0.0001 H       1  LIG1        0.2923
     19 C           1.0165    8.9015   -0.0001 C.1     1  LIG1       -0.0621
     20 C           1.5234   10.0025   -0.0001 C.1     1  LIG1       -0.1137
     21 H           1.9269   10.9887    0.0001 H       1  LIG1        0.1232
     22 C          -2.0580    7.6119   -0.0001 C.ar    1  LIG1        0.2144
     23 C          -3.2825    6.9735   -0.0001 C.ar    1  LIG1        0.1823
     24 C          -4.2867    7.9949   -0.0001 C.ar    1  LIG1        0.1157
     25 C          -3.5917    9.2058   -0.0002 C.ar    1  LIG1        0.1934
     26 O          -2.2537    8.9755   -0.0002 O.2     1  LIG1       -0.4434
     27 O          -3.5525    5.6583   -0.0001 O.3     1  LIG1       -0.5023
     28 H          -2.7139    5.1666   -0.0001 H       1  LIG1        0.2923
     29 C          -5.6830    7.7733   -0.0001 C.1     1  LIG1       -0.0621
     30 C          -6.8742    7.5430   -0.0001 C.1     1  LIG1       -0.1137
     31 H          -7.9179    7.3257   -0.0002 H       1  LIG1        0.1232
     32 C          -4.0035   10.5739   -0.0002 C.ar    1  LIG1        0.2134
     33 C          -5.2281   11.2243   -0.0002 C.ar    1  LIG1        0.1815
     34 C          -4.9469   12.6374   -0.0003 C.ar    1  LIG1        0.1045
     35 C          -3.5784   12.7355   -0.0003 C.ar    1  LIG1        0.1118
     36 O          -2.9960   11.5218   -0.0002 O.2     1  LIG1       -0.4547
     37 H          -2.9170   13.5876   -0.0003 H       1  LIG1        0.1043
     38 O          -6.4816   10.7527   -0.0002 O.3     1  LIG1       -0.5023
     39 H          -6.4900    9.7767   -0.0002 H       1  LIG1        0.2923
     40 C          -5.8927   13.6923   -0.0003 C.1     1  LIG1       -0.0628
     41 C          -6.6993   14.5930   -0.0004 C.1     1  LIG1       -0.1137
     42 H          -7.4142   15.3829   -0.0007 H       1  LIG1        0.1232
@<TRIPOS>BOND
     1    42    41    1
     2    41    40    3
     3    40    34    1
     4    34    35   ar
     5    34    33   ar
     6    37    35    1
     7    35    36   ar
     8    38    33    1
     9    38    39    1
    10    33    32   ar
    11    36    32   ar
    12    32    25    1
    13    31    30    1
    14    11    10    1
    15    25    26   ar
    16    25    24   ar
    17    26    22   ar
    18    24    29    1
    19    24    23   ar
    20    29    30    3
    21    22    23   ar
    22    22    15    1
    23    23    27    1
    24    15    16   ar
    25    15    14   ar
    26    19    14    1
    27    19    20    3
    28    16    12   ar
    29    14    13   ar
    30    27    28    1
    31    20    21    1
    32    12    13   ar
    33    12     4    1
    34    13    17    1
    35     5     4   ar
    36     5     1   ar
    37     4     3   ar
    38     6     1    1
    39    18    17    1
    40     1     2   ar
    41     3     2   ar
    42     3     9    1
    43     2     7    1
    44    10     9    3
    45     7     8    1
