@<TRIPOS>MOLECULE
mol_data/opt/b3lyp/geoms/mol2/12fe12fe12fe.out
 32 34 0 0 0
SMALL
GASTEIGER

@<TRIPOS>ATOM
      1 C           0.3099    1.7248   -0.0001 C.ar    1  LIG1        0.1353
      2 C           1.6677    1.7861   -0.0000 C.ar    1  LIG1        0.1709
      3 C           2.0352    3.1838   -0.0000 C.ar    1  LIG1        0.1149
      4 C           0.8331    3.8811   -0.0001 C.ar    1  LIG1        0.1924
      5 O          -0.2028    3.0024   -0.0001 O.2     1  LIG1       -0.4547
      6 H          -0.4020    0.9178   -0.0001 H       1  LIG1        0.1068
      7 O           2.5351    0.7466    0.0000 O.3     1  LIG1       -0.5028
      8 H           3.4309    1.1195    0.0001 H       1  LIG1        0.2923
      9 C           3.3861    3.5951    0.0001 C.1     1  LIG1       -0.0621
     10 C           4.5844    3.7836    0.0001 C.1     1  LIG1       -0.1137
     11 H           5.6239    4.0163    0.0003 H       1  LIG1        0.1232
     12 C           0.4829    5.2693   -0.0001 C.ar    1  LIG1        0.2144
     13 C           1.1866    6.4517   -0.0001 C.ar    1  LIG1        0.1823
     14 C           0.2336    7.5272   -0.0001 C.ar    1  LIG1        0.1157
     15 C          -1.0159    6.9183   -0.0002 C.ar    1  LIG1        0.1934
     16 O          -0.8664    5.5708   -0.0001 O.2     1  LIG1       -0.4434
     17 O           2.5260    6.5965    0.0000 O.3     1  LIG1       -0.5023
     18 H           2.7171    7.5485    0.0000 H       1  LIG1        0.2923
     19 C           0.6453    8.8790   -0.0001 C.1     1  LIG1       -0.0621
     20 C           1.1555    9.9789   -0.0001 C.1     1  LIG1       -0.1137
     21 H           1.5431   10.9713   -0.0005 H       1  LIG1        0.1232
     22 C          -2.3633    7.4015   -0.0002 C.ar    1  LIG1        0.2134
     23 C          -2.9508    8.6482   -0.0002 C.ar    1  LIG1        0.1815
     24 C          -4.3768    8.4449   -0.0003 C.ar    1  LIG1        0.1045
     25 C          -4.5517    7.0835   -0.0003 C.ar    1  LIG1        0.1118
     26 O          -3.3655    6.4485   -0.0003 O.2     1  LIG1       -0.4547
     27 H          -5.4337    6.4630   -0.0004 H       1  LIG1        0.1043
     28 O          -2.3185    9.8386   -0.0002 O.3     1  LIG1       -0.5023
     29 H          -2.9925   10.5356   -0.0003 H       1  LIG1        0.2923
     30 C          -5.3321    9.4900   -0.0004 C.1     1  LIG1       -0.0628
     31 C          -6.0837   10.4396   -0.0003 C.1     1  LIG1       -0.1137
     32 H          -6.7728   11.2526    0.0004 H       1  LIG1        0.1232
@<TRIPOS>BOND
     1    21    20    1
     2    30    31    3
     3    30    24    1
     4    27    25    1
     5    31    32    1
     6    24    25   ar
     7    24    23   ar
     8    25    26   ar
     9    26    22   ar
    10    29    28    1
    11    23    28    1
    12    23    22   ar
    13    22    15    1
    14    15    16   ar
    15    15    14   ar
    16    16    12   ar
    17     6     1    1
    18     5     1   ar
    19     5     4   ar
    20     1     2   ar
    21    14    19    1
    22    14    13   ar
    23    20    19    3
    24    12     4    1
    25    12    13   ar
    26     4     3   ar
    27    13    17    1
    28     2     3   ar
    29     2     7    1
    30     3     9    1
    31    17    18    1
    32     7     8    1
    33     9    10    3
    34    10    11    1
