@<TRIPOS>MOLECULE
mol_data/opt/b3lyp/geoms/mol2/12fe12fe-12fe-12fe-.out
 42 45 0 0 0
SMALL
GASTEIGER

@<TRIPOS>ATOM
      1 C          -0.1902    1.7292   -0.0001 C.ar    1  LIG1        0.1353
      2 C           1.1604    1.5866   -0.0001 C.ar    1  LIG1        0.1709
      3 C           1.7434    2.9114   -0.0001 C.ar    1  LIG1        0.1149
      4 C           0.6721    3.7866   -0.0001 C.ar    1  LIG1        0.1924
      5 O          -0.5005    3.0816   -0.0001 O.2     1  LIG1       -0.4547
      6 H          -1.0181    1.0423   -0.0001 H       1  LIG1        0.1068
      7 O           1.8531    0.4251   -0.0000 O.3     1  LIG1       -0.5028
      8 H           2.7971    0.6471   -0.0000 H       1  LIG1        0.2923
      9 C           3.1334    3.1549   -0.0000 C.1     1  LIG1       -0.0621
     10 C           4.3414    3.2561    0.0001 C.1     1  LIG1       -0.1137
     11 H           5.3969    3.3984    0.0003 H       1  LIG1        0.1232
     12 C           0.5198    5.2012   -0.0001 C.ar    1  LIG1        0.2144
     13 C          -0.6184    5.9778   -0.0001 C.ar    1  LIG1        0.1823
     14 C          -0.1969    7.3467   -0.0001 C.ar    1  LIG1        0.1157
     15 C           1.2000    7.3080   -0.0001 C.ar    1  LIG1        0.1934
     16 O           1.6288    6.0194   -0.0001 O.2     1  LIG1       -0.4434
     17 O          -1.9069    5.5887   -0.0001 O.3     1  LIG1       -0.5023
     18 H          -1.9282    4.6181   -0.0001 H       1  LIG1        0.2923
     19 C          -1.0541    8.4700   -0.0001 C.1     1  LIG1       -0.0621
     20 C          -1.8208    9.4109   -0.0001 C.1     1  LIG1       -0.1137
     21 H          -2.5072   10.2264   -0.0002 H       1  LIG1        0.1232
     22 C           2.2059    8.3184   -0.0001 C.ar    1  LIG1        0.2144
     23 C           2.1939    9.7038   -0.0001 C.ar    1  LIG1        0.1823
     24 C           3.5609   10.1359   -0.0001 C.ar    1  LIG1        0.1157
     25 C           4.3292    8.9736   -0.0001 C.ar    1  LIG1        0.1934
     26 O           3.5226    7.8882   -0.0001 O.2     1  LIG1       -0.4434
     27 O           1.1824   10.5814   -0.0001 O.3     1  LIG1       -0.5023
     28 H           0.3193   10.1243   -0.0001 H       1  LIG1        0.2923
     29 C           3.9857   11.4843   -0.0001 C.1     1  LIG1       -0.0621
     30 C           4.3138   12.6524   -0.0001 C.1     1  LIG1       -0.1137
     31 H           4.5878   13.6826   -0.0001 H       1  LIG1        0.1232
     32 C           5.7376    8.7290   -0.0001 C.ar    1  LIG1        0.2134
     33 C           6.8658    9.5348   -0.0001 C.ar    1  LIG1        0.1815
     34 C           8.0054    8.6532   -0.0001 C.ar    1  LIG1        0.1045
     35 C           7.4826    7.3848   -0.0001 C.ar    1  LIG1        0.1118
     36 O           6.1366    7.4044   -0.0001 O.2     1  LIG1       -0.4547
     37 H           7.9517    6.4136   -0.0001 H       1  LIG1        0.1043
     38 O           7.0035   10.8670   -0.0002 O.3     1  LIG1       -0.5023
     39 H           6.1339   11.3104   -0.0002 H       1  LIG1        0.2923
     40 C           9.3714    9.0292   -0.0001 C.1     1  LIG1       -0.0628
     41 C          10.5372    9.3497   -0.0002 C.1     1  LIG1       -0.1137
     42 H          11.5629    9.6377   -0.0004 H       1  LIG1        0.1232
@<TRIPOS>BOND
     1    42    41    1
     2    21    20    1
     3    41    40    3
     4    38    39    1
     5    38    33    1
     6    31    30    1
     7    40    34    1
     8     6     1    1
     9     5     1   ar
    10     5     4   ar
    11    33    34   ar
    12    33    32   ar
    13    34    35   ar
    14    18    17    1
    15     1     2   ar
    16    30    29    3
    17    20    19    3
    18    28    27    1
    19    27    23    1
    20    24    29    1
    21    24    23   ar
    22    24    25   ar
    23    17    13    1
    24    13    12   ar
    25    13    14   ar
    26    12    16   ar
    27    12     4    1
    28    23    22   ar
    29    16    15   ar
    30     4     3   ar
    31    25    32    1
    32    25    26   ar
    33    32    36   ar
    34    14    15   ar
    35    14    19    1
    36    15    22    1
    37    26    22   ar
    38    35    36   ar
    39    35    37    1
    40     2     3   ar
    41     2     7    1
    42     3     9    1
    43     7     8    1
    44     9    10    3
    45    10    11    1
