@<TRIPOS>MOLECULE
mol_data/opt/b3lyp/geoms/mol2/12fe12fe-.out
 22 23 0 0 0
SMALL
GASTEIGER

@<TRIPOS>ATOM
      1 C           0.1718    1.8629   -0.0000 C.ar    1  LIG1        0.1353
      2 C           1.5295    1.8265    0.0000 C.ar    1  LIG1        0.1709
      3 C           2.0053    3.1940   -0.0000 C.ar    1  LIG1        0.1149
      4 C           0.8686    3.9805   -0.0001 C.ar    1  LIG1        0.1923
      5 O          -0.2428    3.1863   -0.0001 O.2     1  LIG1       -0.4547
      6 H          -0.5996    1.1132    0.0000 H       1  LIG1        0.1068
      7 O           2.3107    0.7227    0.0001 O.3     1  LIG1       -0.5028
      8 H           3.2349    1.0163    0.0001 H       1  LIG1        0.2923
      9 C           3.3727    3.5460    0.0000 C.1     1  LIG1       -0.0621
     10 C           4.5699    3.7373    0.0000 C.1     1  LIG1       -0.1137
     11 H           5.6139    3.9499    0.0000 H       1  LIG1        0.1232
     12 C           0.6070    5.3830   -0.0001 C.ar    1  LIG1        0.2134
     13 C          -0.5863    6.0733   -0.0001 C.ar    1  LIG1        0.1815
     14 C          -0.2564    7.4749   -0.0002 C.ar    1  LIG1        0.1045
     15 C           1.1170    7.5179   -0.0002 C.ar    1  LIG1        0.1118
     16 O           1.6529    6.2768   -0.0002 O.2     1  LIG1       -0.4547
     17 H           1.8125    8.3419   -0.0002 H       1  LIG1        0.1043
     18 O          -1.8437    5.5908   -0.0001 O.3     1  LIG1       -0.5023
     19 H          -1.7956    4.6216   -0.0001 H       1  LIG1        0.2923
     20 C          -1.1567    8.5691   -0.0002 C.1     1  LIG1       -0.0628
     21 C          -1.9265    9.5015   -0.0002 C.1     1  LIG1       -0.1137
     22 H          -2.6093   10.3192    0.0000 H       1  LIG1        0.1232
@<TRIPOS>BOND
     1    20    21    3
     2    20    14    1
     3    21    22    1
     4    14    15   ar
     5    14    13   ar
     6    17    15    1
     7    15    16   ar
     8    16    12   ar
     9    13    12   ar
    10    13    18    1
    11    12     4    1
    12    18    19    1
    13     4     5   ar
    14     4     3   ar
    15     5     1   ar
    16     3     9    1
    17     3     2   ar
    18     1     6    1
    19     1     2   ar
    20     9    10    3
    21    11    10    1
    22     2     7    1
    23     7     8    1
