@<TRIPOS>MOLECULE
mol_data/opt/b3lyp/geoms/mol2/12fe12fe12fe12fe-.out
 42 45 0 0 0
SMALL
GASTEIGER

@<TRIPOS>ATOM
      1 C           0.2101    1.7809   -0.0001 C.ar    1  LIG1        0.1353
      2 C           1.5692    1.7969   -0.0001 C.ar    1  LIG1        0.1709
      3 C           1.9841    3.1814   -0.0000 C.ar    1  LIG1        0.1149
      4 C           0.8067    3.9192   -0.0001 C.ar    1  LIG1        0.1924
      5 O          -0.2595    3.0757   -0.0001 O.2     1  LIG1       -0.4547
      6 H          -0.5286    0.9983   -0.0001 H       1  LIG1        0.1068
      7 O           2.4002    0.7284   -0.0000 O.3     1  LIG1       -0.5028
      8 H           3.3087    1.0692    0.0000 H       1  LIG1        0.2923
      9 C           3.3470    3.5507    0.0000 C.1     1  LIG1       -0.0621
     10 C           4.5499    3.7065    0.0001 C.1     1  LIG1       -0.1137
     11 H           5.5957    3.9089    0.0001 H       1  LIG1        0.1232
     12 C           0.5001    5.3166   -0.0001 C.ar    1  LIG1        0.2144
     13 C           1.2323    6.4820   -0.0001 C.ar    1  LIG1        0.1823
     14 C           0.3078    7.5821   -0.0001 C.ar    1  LIG1        0.1157
     15 C          -0.9578    7.0061   -0.0001 C.ar    1  LIG1        0.1934
     16 O          -0.8430    5.6525   -0.0001 O.2     1  LIG1       -0.4434
     17 O           2.5748    6.5917   -0.0000 O.3     1  LIG1       -0.5023
     18 H           2.7915    7.5381   -0.0000 H       1  LIG1        0.2923
     19 C           0.7434    8.9257   -0.0001 C.1     1  LIG1       -0.0621
     20 C           1.2609   10.0221   -0.0001 C.1     1  LIG1       -0.1137
     21 H           1.6595   11.0101   -0.0000 H       1  LIG1        0.1232
     22 C          -2.2915    7.5080   -0.0002 C.ar    1  LIG1        0.2144
     23 C          -2.8897    8.7490   -0.0002 C.ar    1  LIG1        0.1823
     24 C          -4.3147    8.5552   -0.0002 C.ar    1  LIG1        0.1157
     25 C          -4.5056    7.1821   -0.0003 C.ar    1  LIG1        0.1934
     26 O          -3.2996    6.5502   -0.0002 O.2     1  LIG1       -0.4434
     27 O          -2.2611    9.9387   -0.0002 O.3     1  LIG1       -0.5023
     28 H          -2.9392   10.6331   -0.0002 H       1  LIG1        0.2923
     29 C          -5.2451    9.6177   -0.0003 C.1     1  LIG1       -0.0621
     30 C          -5.9576   10.5982   -0.0003 C.1     1  LIG1       -0.1137
     31 H          -6.6192   11.4335   -0.0003 H       1  LIG1        0.1232
     32 C          -5.6249    6.3075   -0.0003 C.ar    1  LIG1        0.2134
     33 C          -5.6773    4.9258   -0.0003 C.ar    1  LIG1        0.1815
     34 C          -7.0720    4.5678   -0.0003 C.ar    1  LIG1        0.1045
     35 C          -7.7496    5.7633   -0.0004 C.ar    1  LIG1        0.1118
     36 O          -6.9034    6.8170   -0.0003 O.2     1  LIG1       -0.4547
     37 H          -8.8031    5.9935   -0.0004 H       1  LIG1        0.1043
     38 O          -4.6750    4.0336   -0.0002 O.3     1  LIG1       -0.5023
     39 H          -3.8238    4.5022   -0.0002 H       1  LIG1        0.2923
     40 C          -7.6221    3.2620   -0.0003 C.1     1  LIG1       -0.0628
     41 C          -8.0901    2.1473   -0.0003 C.1     1  LIG1       -0.1137
     42 H          -8.4958    1.1622   -0.0003 H       1  LIG1        0.1232
@<TRIPOS>BOND
     1    37    35    1
     2    35    36   ar
     3    35    34   ar
     4    36    32   ar
     5    31    30    1
     6    41    40    3
     7    41    42    1
     8    34    40    1
     9    34    33   ar
    10    30    29    3
    11    32    33   ar
    12    32    25    1
    13    29    24    1
    14    33    38    1
    15    25    24   ar
    16    25    26   ar
    17    24    23   ar
    18    26    22   ar
    19    38    39    1
    20    23    22   ar
    21    23    27    1
    22    28    27    1
    23    22    15    1
    24    15    16   ar
    25    15    14   ar
    26    16    12   ar
    27     6     1    1
    28     5     1   ar
    29     5     4   ar
    30     1     2   ar
    31    14    19    1
    32    14    13   ar
    33    12     4    1
    34    12    13   ar
    35    19    20    3
    36     4     3   ar
    37    20    21    1
    38    13    17    1
    39     2     3   ar
    40     2     7    1
    41     3     9    1
    42    17    18    1
    43     7     8    1
    44     9    10    3
    45    10    11    1
