@<TRIPOS>MOLECULE
mol_data/opt/b3lyp/geoms/mol2/12fe12fe-12fe12fe.out
 42 45 0 0 0
SMALL
GASTEIGER

@<TRIPOS>ATOM
      1 C           0.0893    1.7215   -0.0001 C.ar    1  LIG1        0.1353
      2 C           1.4456    1.6533   -0.0001 C.ar    1  LIG1        0.1709
      3 C           1.9553    3.0079   -0.0001 C.ar    1  LIG1        0.1149
      4 C           0.8374    3.8241   -0.0001 C.ar    1  LIG1        0.1924
      5 O          -0.2942    3.0551   -0.0001 O.2     1  LIG1       -0.4547
      6 H          -0.7000    0.9907   -0.0001 H       1  LIG1        0.1068
      7 O           2.2029    0.5321   -0.0001 O.3     1  LIG1       -0.5028
      8 H           3.1322    0.8093   -0.0000 H       1  LIG1        0.2923
      9 C           3.3307    3.3229   -0.0000 C.1     1  LIG1       -0.0621
     10 C           4.5328    3.4813    0.0000 C.1     1  LIG1       -0.1137
     11 H           5.5807    3.6713   -0.0000 H       1  LIG1        0.1232
     12 C           0.6107    5.2281   -0.0001 C.ar    1  LIG1        0.2144
     13 C          -0.5668    5.9477   -0.0001 C.ar    1  LIG1        0.1823
     14 C          -0.2192    7.3374   -0.0001 C.ar    1  LIG1        0.1157
     15 C           1.1744    7.3630   -0.0001 C.ar    1  LIG1        0.1934
     16 O           1.6769    6.0988   -0.0001 O.2     1  LIG1       -0.4434
     17 O          -1.8323    5.4873   -0.0001 O.3     1  LIG1       -0.5023
     18 H          -1.7996    4.5174   -0.0001 H       1  LIG1        0.2923
     19 C          -1.1281    8.4199   -0.0001 C.1     1  LIG1       -0.0621
     20 C          -1.9324    9.3237   -0.0001 C.1     1  LIG1       -0.1137
     21 H          -2.6358   10.1230    0.0002 H       1  LIG1        0.1232
     22 C           2.1226    8.4252   -0.0001 C.ar    1  LIG1        0.2144
     23 C           3.5004    8.4724   -0.0000 C.ar    1  LIG1        0.1823
     24 C           3.8846    9.8562   -0.0001 C.ar    1  LIG1        0.1157
     25 C           2.6940   10.5756   -0.0001 C.ar    1  LIG1        0.1934
     26 O           1.6423    9.7190   -0.0001 O.2     1  LIG1       -0.4434
     27 O           4.3455    7.4251    0.0000 O.3     1  LIG1       -0.5023
     28 H           5.2486    7.7825    0.0001 H       1  LIG1        0.2923
     29 C           5.2431   10.2453    0.0000 C.1     1  LIG1       -0.0621
     30 C           6.4437   10.4140    0.0000 C.1     1  LIG1       -0.1137
     31 H           7.4874   10.6278    0.0000 H       1  LIG1        0.1232
     32 C           2.3702   11.9691   -0.0002 C.ar    1  LIG1        0.2134
     33 C           3.1016   13.1378   -0.0002 C.ar    1  LIG1        0.1815
     34 C           2.1597   14.2271   -0.0003 C.ar    1  LIG1        0.1045
     35 C           0.9200   13.6376   -0.0003 C.ar    1  LIG1        0.1118
     36 O           1.0266   12.2967   -0.0002 O.2     1  LIG1       -0.4547
     37 H          -0.0787   14.0446   -0.0003 H       1  LIG1        0.1043
     38 O           4.4443   13.2496   -0.0002 O.3     1  LIG1       -0.5023
     39 H           4.6665   14.1935   -0.0002 H       1  LIG1        0.2923
     40 C           2.5226   15.5957   -0.0003 C.1     1  LIG1       -0.0628
     41 C           2.9155   16.7412   -0.0004 C.1     1  LIG1       -0.1137
     42 H           3.2274   17.7604   -0.0006 H       1  LIG1        0.1232
@<TRIPOS>BOND
     1    42    41    1
     2    41    40    3
     3    40    34    1
     4    37    35    1
     5    34    35   ar
     6    34    33   ar
     7    35    36   ar
     8    39    38    1
     9    36    32   ar
    10    33    38    1
    11    33    32   ar
    12    32    25    1
    13    26    25   ar
    14    26    22   ar
    15     6     1    1
    16     5     1   ar
    17     5     4   ar
    18    25    24   ar
    19     1     2   ar
    20    18    17    1
    21    17    13    1
    22    13    12   ar
    23    13    14   ar
    24    12     4    1
    25    12    16   ar
    26     4     3   ar
    27    16    15   ar
    28    14    15   ar
    29    14    19    1
    30    15    22    1
    31    19    20    3
    32    22    23   ar
    33     2     3   ar
    34     2     7    1
    35     3     9    1
    36    20    21    1
    37     7     8    1
    38    24    23   ar
    39    24    29    1
    40    23    27    1
    41     9    10    3
    42    11    10    1
    43    29    30    3
    44    31    30    1
    45    27    28    1
