@<TRIPOS>MOLECULE
mol_data/opt/b3lyp/geoms/mol2/12fe12fe-12fe-12fe.out
 42 45 0 0 0
SMALL
GASTEIGER

@<TRIPOS>ATOM
      1 C          -0.1942    1.7502    0.0003 C.ar    1  LIG1        0.1353
      2 C           1.1552    1.5989   -0.0003 C.ar    1  LIG1        0.1709
      3 C           1.7470    2.9198   -0.0005 C.ar    1  LIG1        0.1149
      4 C           0.6823    3.8032    0.0000 C.ar    1  LIG1        0.1924
      5 O          -0.4950    3.1050    0.0005 O.2     1  LIG1       -0.4547
      6 H          -1.0270    1.0693    0.0006 H       1  LIG1        0.1068
      7 O           1.8416    0.4333   -0.0006 O.3     1  LIG1       -0.5028
      8 H           2.7865    0.6515   -0.0010 H       1  LIG1        0.2923
      9 C           3.1383    3.1520   -0.0012 C.1     1  LIG1       -0.0621
     10 C           4.3471    3.2412   -0.0019 C.1     1  LIG1       -0.1137
     11 H           5.4023    3.3778   -0.0026 H       1  LIG1        0.1232
     12 C           0.5361    5.2183    0.0001 C.ar    1  LIG1        0.2144
     13 C          -0.6026    5.9942    0.0004 C.ar    1  LIG1        0.1823
     14 C          -0.1831    7.3628    0.0003 C.ar    1  LIG1        0.1157
     15 C           1.2151    7.3267   -0.0000 C.ar    1  LIG1        0.1934
     16 O           1.6448    6.0377   -0.0001 O.2     1  LIG1       -0.4434
     17 O          -1.8909    5.6044    0.0007 O.3     1  LIG1       -0.5023
     18 H          -1.9109    4.6337    0.0007 H       1  LIG1        0.2923
     19 C          -1.0488    8.4795    0.0005 C.1     1  LIG1       -0.0621
     20 C          -1.8277    9.4102    0.0007 C.1     1  LIG1       -0.1137
     21 H          -2.5204   10.2203    0.0009 H       1  LIG1        0.1232
     22 C           2.2159    8.3421   -0.0002 C.ar    1  LIG1        0.2144
     23 C           2.1888    9.7296   -0.0005 C.ar    1  LIG1        0.1823
     24 C           3.5490   10.1818   -0.0006 C.ar    1  LIG1        0.1157
     25 C           4.3231    9.0277   -0.0003 C.ar    1  LIG1        0.1934
     26 O           3.5365    7.9253   -0.0001 O.2     1  LIG1       -0.4434
     27 O           1.1651   10.5927   -0.0007 O.3     1  LIG1       -0.5023
     28 H           0.3083   10.1253   -0.0005 H       1  LIG1        0.2923
     29 C           3.9603   11.5349   -0.0009 C.1     1  LIG1       -0.0621
     30 C           4.2764   12.7025   -0.0011 C.1     1  LIG1       -0.1137
     31 H           4.5580   13.7297   -0.0014 H       1  LIG1        0.1232
     32 C           5.7365    8.8226   -0.0002 C.ar    1  LIG1        0.2134
     33 C           6.5481    7.7082    0.0004 C.ar    1  LIG1        0.1815
     34 C           7.9099    8.1801    0.0003 C.ar    1  LIG1        0.1045
     35 C           7.8233    9.5499   -0.0003 C.ar    1  LIG1        0.1118
     36 O           6.5378    9.9477   -0.0006 O.2     1  LIG1       -0.4547
     37 H           8.5710   10.3269   -0.0006 H       1  LIG1        0.1043
     38 O           6.1598    6.4174    0.0010 O.3     1  LIG1       -0.5023
     39 H           6.9638    5.8750    0.0015 H       1  LIG1        0.2923
     40 C           9.0459    7.3352    0.0008 C.1     1  LIG1       -0.0628
     41 C           9.9630    6.5441    0.0013 C.1     1  LIG1       -0.1137
     42 H          10.7940    5.8768    0.0016 H       1  LIG1        0.1232
@<TRIPOS>BOND
     1    11    10    1
     2    10     9    3
     3    31    30    1
     4     9     3    1
     5    30    29    3
     6     8     7    1
     7    29    24    1
     8    27    28    1
     9    27    23    1
    10     7     2    1
    11    36    35   ar
    12    36    32   ar
    13    24    23   ar
    14    24    25   ar
    15    37    35    1
    16    23    22   ar
    17     3     2   ar
    18     3     4   ar
    19    25    32    1
    20    25    26   ar
    21    35    34   ar
    22     2     1   ar
    23    22    26   ar
    24    22    15    1
    25    32    33   ar
    26    16    15   ar
    27    16    12   ar
    28    15    14   ar
    29     4    12    1
    30     4     5   ar
    31    12    13   ar
    32     1     5   ar
    33     1     6    1
    34    14    13   ar
    35    14    19    1
    36    34    33   ar
    37    34    40    1
    38    13    17    1
    39    33    38    1
    40    19    20    3
    41    17    18    1
    42    20    21    1
    43    40    41    3
    44    38    39    1
    45    41    42    1
