@<TRIPOS>MOLECULE
mol_data/opt/b3lyp/geoms/mol2/12fe12fe12fe12fe.out
 42 45 0 0 0
SMALL
GASTEIGER

@<TRIPOS>ATOM
      1 C           0.4825    1.7216   -0.0001 C.ar    1  LIG1        0.1353
      2 C           1.8387    1.8093   -0.0001 C.ar    1  LIG1        0.1709
      3 C           2.1792    3.2138   -0.0000 C.ar    1  LIG1        0.1149
      4 C           0.9635    3.8882   -0.0001 C.ar    1  LIG1        0.1924
      5 O          -0.0549    2.9892   -0.0001 O.2     1  LIG1       -0.4547
      6 H          -0.2137    0.9009   -0.0001 H       1  LIG1        0.1068
      7 O           2.7269    0.7870   -0.0000 O.3     1  LIG1       -0.5028
      8 H           3.6147    1.1787    0.0000 H       1  LIG1        0.2923
      9 C           3.5220    3.6503    0.0000 C.1     1  LIG1       -0.0621
     10 C           4.7170    3.8598    0.0001 C.1     1  LIG1       -0.1137
     11 H           5.7518    4.1120    0.0001 H       1  LIG1        0.1232
     12 C           0.5875    5.2688   -0.0001 C.ar    1  LIG1        0.2144
     13 C           1.2706    6.4637   -0.0001 C.ar    1  LIG1        0.1823
     14 C           0.3007    7.5225   -0.0001 C.ar    1  LIG1        0.1157
     15 C          -0.9405    6.8921   -0.0001 C.ar    1  LIG1        0.1934
     16 O          -0.7675    5.5467   -0.0001 O.2     1  LIG1       -0.4434
     17 O           2.6074    6.6320   -0.0000 O.3     1  LIG1       -0.5023
     18 H           2.7802    7.5877   -0.0000 H       1  LIG1        0.2923
     19 C           0.6909    8.8801   -0.0001 C.1     1  LIG1       -0.0621
     20 C           1.1859    9.9872   -0.0001 C.1     1  LIG1       -0.1137
     21 H           1.5578   10.9854   -0.0000 H       1  LIG1        0.1232
     22 C          -2.2904    7.3556   -0.0002 C.ar    1  LIG1        0.2144
     23 C          -2.8945    8.5943   -0.0002 C.ar    1  LIG1        0.1823
     24 C          -4.3148    8.3869   -0.0002 C.ar    1  LIG1        0.1157
     25 C          -4.4906    7.0072   -0.0002 C.ar    1  LIG1        0.1934
     26 O          -3.2827    6.3926   -0.0002 O.2     1  LIG1       -0.4434
     27 O          -2.2813    9.7924   -0.0002 O.3     1  LIG1       -0.5023
     28 H          -2.9724   10.4749   -0.0002 H       1  LIG1        0.2923
     29 C          -5.2189    9.4730   -0.0003 C.1     1  LIG1       -0.0621
     30 C          -5.8570   10.5038   -0.0003 C.1     1  LIG1       -0.1137
     31 H          -6.4732   11.3730   -0.0002 H       1  LIG1        0.1232
     32 C          -5.6343    6.1479   -0.0003 C.ar    1  LIG1        0.2134
     33 C          -6.9990    6.3439   -0.0003 C.ar    1  LIG1        0.1815
     34 C          -7.6138    5.0416   -0.0003 C.ar    1  LIG1        0.1045
     35 C          -6.5727    4.1466   -0.0003 C.ar    1  LIG1        0.1118
     36 O          -5.3901    4.7870   -0.0002 O.2     1  LIG1       -0.4547
     37 H          -6.5398    3.0686   -0.0003 H       1  LIG1        0.1043
     38 O          -7.6443    7.5266   -0.0003 O.3     1  LIG1       -0.5023
     39 H          -8.5975    7.3479   -0.0004 H       1  LIG1        0.2923
     40 C          -9.0121    4.8196   -0.0003 C.1     1  LIG1       -0.0628
     41 C         -10.2186    4.7153   -0.0004 C.1     1  LIG1       -0.1137
     42 H         -11.2767    4.5877   -0.0003 H       1  LIG1        0.1232
@<TRIPOS>BOND
     1    41    40    3
     2    41    42    1
     3    39    38    1
     4    40    34    1
     5    38    33    1
     6    34    33   ar
     7    34    35   ar
     8    33    32   ar
     9    30    29    3
    10    30    31    1
    11    29    24    1
    12    35    37    1
    13    35    36   ar
    14    32    36   ar
    15    32    25    1
    16    24    25   ar
    17    24    23   ar
    18    25    26   ar
    19    28    27    1
    20    23    27    1
    21    23    22   ar
    22    26    22   ar
    23    22    15    1
    24    15    16   ar
    25    15    14   ar
    26    16    12   ar
    27     6     1    1
    28     5     1   ar
    29     5     4   ar
    30     1     2   ar
    31    14    19    1
    32    14    13   ar
    33    12     4    1
    34    12    13   ar
    35    19    20    3
    36     4     3   ar
    37    13    17    1
    38    20    21    1
    39     2     3   ar
    40     2     7    1
    41     3     9    1
    42    17    18    1
    43     7     8    1
    44     9    10    3
    45    10    11    1
