@<TRIPOS>MOLECULE
mol_data/opt/b3lyp/geoms/mol2/12fe12fe-12fe12fe-.out
 42 45 0 0 0
SMALL
GASTEIGER

@<TRIPOS>ATOM
      1 C          -0.0229    1.8056   -0.0001 C.ar    1  LIG1        0.1353
      2 C           1.3292    1.6789   -0.0001 C.ar    1  LIG1        0.1709
      3 C           1.8968    3.0105   -0.0000 C.ar    1  LIG1        0.1149
      4 C           0.8151    3.8737   -0.0001 C.ar    1  LIG1        0.1924
      5 O          -0.3486    3.1541   -0.0001 O.2     1  LIG1       -0.4547
      6 H          -0.8428    1.1093   -0.0001 H       1  LIG1        0.1068
      7 O           2.0363    0.5259   -0.0000 O.3     1  LIG1       -0.5028
      8 H           2.9773    0.7605    0.0000 H       1  LIG1        0.2923
      9 C           3.2847    3.2654    0.0000 C.1     1  LIG1       -0.0621
     10 C           4.4925    3.3709    0.0000 C.1     1  LIG1       -0.1137
     11 H           5.5481    3.5129   -0.0002 H       1  LIG1        0.1232
     12 C           0.6453    5.2862   -0.0001 C.ar    1  LIG1        0.2144
     13 C          -0.5035    6.0502   -0.0001 C.ar    1  LIG1        0.1823
     14 C          -0.1013    7.4254   -0.0001 C.ar    1  LIG1        0.1157
     15 C           1.2927    7.3969   -0.0001 C.ar    1  LIG1        0.1934
     16 O           1.7451    6.1162   -0.0001 O.2     1  LIG1       -0.4434
     17 O          -1.7857    5.6409   -0.0002 O.3     1  LIG1       -0.5023
     18 H          -1.7919    4.6703   -0.0002 H       1  LIG1        0.2923
     19 C          -0.9706    8.5415   -0.0002 C.1     1  LIG1       -0.0621
     20 C          -1.7584    9.4624   -0.0001 C.1     1  LIG1       -0.1137
     21 H          -2.4585   10.2661    0.0009 H       1  LIG1        0.1232
     22 C           2.2693    8.4300   -0.0001 C.ar    1  LIG1        0.2144
     23 C           3.6470    8.4653   -0.0000 C.ar    1  LIG1        0.1823
     24 C           4.0505    9.8458   -0.0000 C.ar    1  LIG1        0.1157
     25 C           2.8737   10.5799   -0.0001 C.ar    1  LIG1        0.1934
     26 O           1.8046    9.7374   -0.0002 O.2     1  LIG1       -0.4434
     27 O           4.4740    7.4046    0.0001 O.3     1  LIG1       -0.5023
     28 H           5.3841    7.7419    0.0001 H       1  LIG1        0.2923
     29 C           5.3998   10.2628    0.0000 C.1     1  LIG1       -0.0621
     30 C           6.5859   10.5123    0.0000 C.1     1  LIG1       -0.1137
     31 H           7.6185   10.7753   -0.0002 H       1  LIG1        0.1232
     32 C           2.5431   11.9617   -0.0002 C.ar    1  LIG1        0.2134
     33 C           1.3151   12.5979   -0.0003 C.ar    1  LIG1        0.1815
     34 C           1.5868   14.0125   -0.0003 C.ar    1  LIG1        0.1045
     35 C           2.9566   14.1169   -0.0003 C.ar    1  LIG1        0.1118
     36 O           3.5484   12.9029   -0.0002 O.2     1  LIG1       -0.4547
     37 H           3.6138   14.9720   -0.0003 H       1  LIG1        0.1043
     38 O           0.0777   12.0822   -0.0003 O.3     1  LIG1       -0.5023
     39 H           0.1084   11.1088   -0.0002 H       1  LIG1        0.2923
     40 C           0.6392   15.0661   -0.0004 C.1     1  LIG1       -0.0628
     41 C          -0.1698   15.9646   -0.0004 C.1     1  LIG1       -0.1137
     42 H          -0.8869   16.7525   -0.0006 H       1  LIG1        0.1232
@<TRIPOS>BOND
     1    42    41    1
     2    41    40    3
     3    40    34    1
     4    34    35   ar
     5    34    33   ar
     6    37    35    1
     7    35    36   ar
     8    38    33    1
     9    38    39    1
    10    33    32   ar
    11    11    10    1
    12    31    30    1
    13    36    32   ar
    14    32    25    1
    15    26    25   ar
    16    26    22   ar
    17    19    14    1
    18    19    20    3
    19    18    17    1
    20    17    13    1
    21     6     1    1
    22     5     1   ar
    23     5     4   ar
    24    25    24   ar
    25    13    14   ar
    26    13    12   ar
    27    14    15   ar
    28     1     2   ar
    29    12     4    1
    30    12    16   ar
    31    15    16   ar
    32    15    22    1
    33     4     3   ar
    34    22    23   ar
    35    20    21    1
    36     2     3   ar
    37     2     7    1
    38    24    23   ar
    39    24    29    1
    40     3     9    1
    41     7     8    1
    42    23    27    1
    43     9    10    3
    44    29    30    3
    45    27    28    1
