@<TRIPOS>MOLECULE
mol_data/opt/b3lyp/geoms/mol2/12fe13di6id12ae.out
 46 49 0 0 0
SMALL
GASTEIGER

@<TRIPOS>ATOM
      1 C           0.3231    1.7497   -0.6312 C.ar    1  LIG1        0.1352
      2 C           1.6763    1.7544   -0.7726 C.ar    1  LIG1        0.1709
      3 C           2.1283    3.1059   -0.5352 C.ar    1  LIG1        0.1132
      4 C           0.9883    3.8367   -0.2464 C.ar    1  LIG1        0.1711
      5 O          -0.1039    3.0176   -0.3088 O.2     1  LIG1       -0.4564
      6 H          -0.4323    0.9871   -0.7116 H       1  LIG1        0.1068
      7 O           2.4633    0.7033   -1.0885 O.3     1  LIG1       -0.5028
      8 H           3.3795    1.0202   -1.1249 H       1  LIG1        0.2923
      9 C           3.4814    3.4871   -0.6662 C.1     1  LIG1       -0.0621
     10 C           4.6638    3.7027   -0.8180 C.1     1  LIG1       -0.1137
     11 H           5.6939    3.9592   -0.9140 H       1  LIG1        0.1232
     12 C           0.6928    5.2134    0.0468 C.ar    1  LIG1        0.1017
     13 C           1.4556    6.3080    0.4834 C.ar    1  LIG1        0.0835
     14 C           0.5880    7.4432    0.5863 C.ar    1  LIG1       -0.0071
     15 C          -0.6835    7.0125    0.2250 C.ar    1  LIG1        0.0529
     16 N          -0.5908    5.6684   -0.0855 N.ar    1  LIG1       -0.3504
     17 H          -1.3418    5.0918   -0.4315 H       1  LIG1        0.1660
     18 N           3.9256    6.4127    1.2252 N.1     1  LIG1       -0.1908
     19 C           2.8198    6.3269    0.8693 C.1     1  LIG1        0.1017
     20 C           1.0061    8.8040    1.0560 C.3     1  LIG1       -0.0365
     21 H           0.1573    9.3695    1.4484 H       1  LIG1        0.0279
     22 H           1.4567    9.3935    0.2483 H       1  LIG1        0.0279
     23 H           1.7581    8.7237    1.8462 H       1  LIG1        0.0279
     24 C          -3.1852    7.2763    0.6390 C.ar    1  LIG1        0.0482
     25 C          -1.9459    7.7548    0.1335 C.ar    1  LIG1        0.0209
     26 C          -1.9604    9.0169   -0.4661 C.ar    1  LIG1       -0.0313
     27 C          -3.1425    9.7577   -0.5633 C.ar    1  LIG1        0.0813
     28 C          -4.3372    9.1862   -0.0508 C.ar    1  LIG1        0.1236
     29 N          -4.3152    7.9763    0.5318 N.ar    1  LIG1       -0.2468
     30 H          -1.0479    9.4292   -0.8814 H       1  LIG1        0.0638
     31 C          -3.3196    5.9530    1.3525 C.3     1  LIG1       -0.0217
     32 H          -2.4380    5.7206    1.9548 H       1  LIG1        0.0293
     33 H          -3.4671    5.1282    0.6429 H       1  LIG1        0.0293
     34 H          -4.2041    5.9864    1.9895 H       1  LIG1        0.0293
     35 N          -3.0137   12.0857   -1.6978 N.1     1  LIG1       -0.1908
     36 C          -3.0853   11.0424   -1.1866 C.1     1  LIG1        0.1014
     37 C          -5.6356    9.8469   -0.1071 C.ar    1  LIG1        0.1554
     38 C          -6.0934   11.0451   -0.5988 C.ar    1  LIG1        0.0011
     39 C          -7.5029   11.0900   -0.3345 C.ar    1  LIG1        0.0630
     40 C          -7.7926    9.9061    0.3018 C.ar    1  LIG1        0.1080
     41 O          -6.6864    9.1524    0.4446 O.2     1  LIG1       -0.4601
     42 H          -8.7108    9.4938    0.6900 H       1  LIG1        0.1042
     43 H          -5.5200   11.8140   -1.0903 H       1  LIG1        0.0668
     44 C          -8.4115   12.1312   -0.6578 C.1     1  LIG1       -0.0665
     45 C          -9.1799   13.0223   -0.9365 C.1     1  LIG1       -0.1138
     46 H          -9.8563   13.8081   -1.1818 H       1  LIG1        0.1232
@<TRIPOS>BOND
     1    35    36    3
     2    36    27    1
     3    46    45    1
     4     8     7    1
     5    43    38    1
     6     7     2    1
     7    45    44    3
     8    11    10    1
     9    30    26    1
    10    10     9    3
    11     2     1   ar
    12     2     3   ar
    13     6     1    1
    14     9     3    1
    15    44    39    1
    16     1     5   ar
    17    38    39   ar
    18    38    37   ar
    19    27    26   ar
    20    27    28   ar
    21     3     4   ar
    22    26    25   ar
    23    17    16    1
    24    39    40   ar
    25     5     4   ar
    26     4    12    1
    27    37    28    1
    28    37    41   ar
    29    16    12   ar
    30    16    15   ar
    31    28    29   ar
    32    12    13   ar
    33    25    15    1
    34    25    24   ar
    35    15    14   ar
    36    22    20    1
    37    40    41   ar
    38    40    42    1
    39    13    14   ar
    40    13    19    1
    41    29    24   ar
    42    14    20    1
    43    24    31    1
    44    33    31    1
    45    19    18    3
    46    20    21    1
    47    20    23    1
    48    31    32    1
    49    31    34    1
