@<TRIPOS>MOLECULE
mol_data/opt/b3lyp/geoms/mol2/12fe12fe-12fe.out
 32 34 0 0 0
SMALL
GASTEIGER

@<TRIPOS>ATOM
      1 C           0.0779    1.7989   -0.0000 C.ar    1  LIG1        0.1353
      2 C           1.4338    1.7257    0.0001 C.ar    1  LIG1        0.1709
      3 C           1.9484    3.0787    0.0001 C.ar    1  LIG1        0.1149
      4 C           0.8335    3.8985   -0.0000 C.ar    1  LIG1        0.1924
      5 O          -0.3005    3.1336   -0.0001 O.2     1  LIG1       -0.4547
      6 H          -0.7140    1.0709   -0.0000 H       1  LIG1        0.1068
      7 O           2.1862    0.6015    0.0002 O.3     1  LIG1       -0.5028
      8 H           3.1171    0.8736    0.0003 H       1  LIG1        0.2923
      9 C           3.3254    3.3872    0.0002 C.1     1  LIG1       -0.0621
     10 C           4.5285    3.5375    0.0002 C.1     1  LIG1       -0.1137
     11 H           5.5780    3.7188   -0.0008 H       1  LIG1        0.1232
     12 C           0.6084    5.3037   -0.0001 C.ar    1  LIG1        0.2144
     13 C          -0.5686    6.0233   -0.0002 C.ar    1  LIG1        0.1823
     14 C          -0.2193    7.4137   -0.0003 C.ar    1  LIG1        0.1157
     15 C           1.1723    7.4374   -0.0002 C.ar    1  LIG1        0.1934
     16 O           1.6743    6.1743   -0.0001 O.2     1  LIG1       -0.4434
     17 O          -1.8346    5.5653   -0.0003 O.3     1  LIG1       -0.5023
     18 H          -1.8038    4.5952   -0.0002 H       1  LIG1        0.2923
     19 C          -1.1279    8.4973   -0.0004 C.1     1  LIG1       -0.0621
     20 C          -1.9330    9.4002   -0.0004 C.1     1  LIG1       -0.1137
     21 H          -2.6393   10.1973    0.0005 H       1  LIG1        0.1232
     22 C           2.1244    8.5014   -0.0002 C.ar    1  LIG1        0.2134
     23 C           3.5023    8.5443   -0.0000 C.ar    1  LIG1        0.1815
     24 C           3.8780    9.9357   -0.0001 C.ar    1  LIG1        0.1045
     25 C           2.6964   10.6345   -0.0003 C.ar    1  LIG1        0.1118
     26 O           1.6433    9.7951   -0.0004 O.2     1  LIG1       -0.4547
     27 H           2.4745   11.6897   -0.0004 H       1  LIG1        0.1043
     28 O           4.3425    7.4904    0.0002 O.3     1  LIG1       -0.5023
     29 H           5.2488    7.8349    0.0002 H       1  LIG1        0.2923
     30 C           5.2145   10.4033   -0.0000 C.1     1  LIG1       -0.0628
     31 C           6.3827   10.7225    0.0000 C.1     1  LIG1       -0.1137
     32 H           7.4009   11.0371   -0.0002 H       1  LIG1        0.1232
@<TRIPOS>BOND
     1    11    10    1
     2    27    25    1
     3    19    20    3
     4    19    14    1
     5    26    25   ar
     6    26    22   ar
     7    20    21    1
     8    25    24   ar
     9    17    18    1
    10    17    13    1
    11    14    13   ar
    12    14    15   ar
    13    13    12   ar
    14    15    22    1
    15    15    16   ar
    16    22    23   ar
    17    32    31    1
    18    12    16   ar
    19    12     4    1
    20    24    23   ar
    21    24    30    1
    22     5     4   ar
    23     5     1   ar
    24     4     3   ar
    25     6     1    1
    26    23    28    1
    27     1     2   ar
    28    30    31    3
    29     3     2   ar
    30     3     9    1
    31     2     7    1
    32    28    29    1
    33    10     9    3
    34     7     8    1
