@<TRIPOS>MOLECULE
mol_data/opt/b3lyp/geoms/mol2/12fe12fe.out
 22 23 0 0 0
SMALL
GASTEIGER

@<TRIPOS>ATOM
      1 C           0.2000    1.7815   -0.0001 C.ar    1  LIG1        0.1353
      2 C           1.5584    1.8247   -0.0000 C.ar    1  LIG1        0.1709
      3 C           1.9437    3.2181   -0.0000 C.ar    1  LIG1        0.1149
      4 C           0.7521    3.9299   -0.0001 C.ar    1  LIG1        0.1923
      5 O          -0.2952    3.0659   -0.0001 O.2     1  LIG1       -0.4547
      6 H          -0.5228    0.9842   -0.0001 H       1  LIG1        0.1068
      7 O           2.4113    0.7738    0.0000 O.3     1  LIG1       -0.5028
      8 H           3.3127    1.1329    0.0001 H       1  LIG1        0.2923
      9 C           3.3000    3.6130    0.0000 C.1     1  LIG1       -0.0621
     10 C           4.5002    3.7872    0.0001 C.1     1  LIG1       -0.1137
     11 H           5.5427    4.0060    0.0001 H       1  LIG1        0.1232
     12 C           0.4184    5.3258   -0.0001 C.ar    1  LIG1        0.2134
     13 C           1.1386    6.4987   -0.0001 C.ar    1  LIG1        0.1815
     14 C           0.1870    7.5815   -0.0001 C.ar    1  LIG1        0.1045
     15 C          -1.0476    6.9830   -0.0002 C.ar    1  LIG1        0.1118
     16 O          -0.9282    5.6420   -0.0001 O.2     1  LIG1       -0.4547
     17 H          -2.0499    7.3809   -0.0002 H       1  LIG1        0.1043
     18 O           2.4821    6.6231   -0.0000 O.3     1  LIG1       -0.5023
     19 H           2.6943    7.5691   -0.0000 H       1  LIG1        0.2923
     20 C           0.5380    8.9532   -0.0001 C.1     1  LIG1       -0.0628
     21 C           0.9207   10.1023   -0.0001 C.1     1  LIG1       -0.1137
     22 H           1.2237   11.1240   -0.0001 H       1  LIG1        0.1232
@<TRIPOS>BOND
     1    17    15    1
     2    15    16   ar
     3    15    14   ar
     4    16    12   ar
     5    22    21    1
     6    21    20    3
     7    14    20    1
     8    14    13   ar
     9     5     4   ar
    10     5     1   ar
    11    12    13   ar
    12    12     4    1
    13    13    18    1
    14     6     1    1
    15     4     3   ar
    16     1     2   ar
    17    19    18    1
    18     3     2   ar
    19     3     9    1
    20     2     7    1
    21     9    10    3
    22     7     8    1
    23    11    10    1
