@<TRIPOS>MOLECULE
mol_data/opt/b3lyp/geoms/mol2/12ff12ff12ff.out
 29 31 0 0 0
SMALL
GASTEIGER

@<TRIPOS>ATOM
      1 C           0.4952    1.5484   -0.0001 C.ar    1  LIG1        0.1379
      2 C           1.8423    1.7623   -0.0000 C.ar    1  LIG1        0.1977
      3 C           2.0332    3.1780   -0.0000 C.ar    1  LIG1        0.2084
      4 C           0.7757    3.7443   -0.0001 C.ar    1  LIG1        0.2184
      5 O          -0.1676    2.7485   -0.0001 O.2     1  LIG1       -0.4521
      6 H          -0.1121    0.6592   -0.0001 H       1  LIG1        0.1069
      7 O           2.8355    0.8335    0.0000 O.3     1  LIG1       -0.5012
      8 H           3.6746    1.3166    0.0000 H       1  LIG1        0.2924
      9 O           3.2811    3.7146    0.0000 O.3     1  LIG1       -0.5007
     10 H           3.2237    4.6875    0.0000 H       1  LIG1        0.2924
     11 C           0.3479    5.1101   -0.0001 C.ar    1  LIG1        0.2194
     12 C           1.0613    6.2856   -0.0000 C.ar    1  LIG1        0.2092
     13 C           0.1306    7.3541   -0.0001 C.ar    1  LIG1        0.2092
     14 C          -1.1233    6.7751   -0.0001 C.ar    1  LIG1        0.2194
     15 O          -0.9891    5.4054   -0.0001 O.2     1  LIG1       -0.4407
     16 O           2.4293    6.3987    0.0000 O.3     1  LIG1       -0.5007
     17 H           2.6577    7.3389    0.0000 H       1  LIG1        0.2924
     18 O           0.5421    8.6474   -0.0001 O.3     1  LIG1       -0.5007
     19 H          -0.2318    9.2408   -0.0001 H       1  LIG1        0.2924
     20 C          -2.4355    7.3461   -0.0002 C.ar    1  LIG1        0.2184
     21 C          -2.8547    8.6544   -0.0002 C.ar    1  LIG1        0.2084
     22 C          -4.2782    8.6394   -0.0003 C.ar    1  LIG1        0.1977
     23 C          -4.6533    7.3265   -0.0003 C.ar    1  LIG1        0.1379
     24 O          -3.5340    6.5315   -0.0003 O.2     1  LIG1       -0.4521
     25 H          -5.6040    6.8196   -0.0004 H       1  LIG1        0.1069
     26 O          -2.0401    9.7616   -0.0001 O.3     1  LIG1       -0.5007
     27 H          -2.5926   10.5552   -0.0002 H       1  LIG1        0.2924
     28 O          -4.9869    9.8070   -0.0003 O.3     1  LIG1       -0.5012
     29 H          -5.9334    9.6176   -0.0003 H       1  LIG1        0.2924
@<TRIPOS>BOND
     1    25    23    1
     2    23    22   ar
     3    23    24   ar
     4    29    28    1
     5    28    22    1
     6    22    21   ar
     7    24    20   ar
     8    21    20   ar
     9    21    26    1
    10    20    14    1
    11    27    26    1
    12    14    15   ar
    13    14    13   ar
    14    15    11   ar
    15    19    18    1
    16    13    18    1
    17    13    12   ar
    18     6     1    1
    19    11     4    1
    20    11    12   ar
    21     5     4   ar
    22     5     1   ar
    23     4     3   ar
    24     1     2   ar
    25    12    16    1
    26     3     2   ar
    27     3     9    1
    28     2     7    1
    29     9    10    1
    30    16    17    1
    31     7     8    1
