@<TRIPOS>MOLECULE
mol_data/opt/b3lyp/geoms/mol2/12ff12ff-12ff12ff-.out
 38 41 0 0 0
SMALL
GASTEIGER

@<TRIPOS>ATOM
      1 C           0.1754    1.6799   -0.0001 C.ar    1  LIG1        0.1379
      2 C           1.5386    1.7292   -0.0000 C.ar    1  LIG1        0.1977
      3 C           1.9050    3.1130   -0.0000 C.ar    1  LIG1        0.2084
      4 C           0.7333    3.8266   -0.0001 C.ar    1  LIG1        0.2184
      5 O          -0.3362    2.9629   -0.0001 O.2     1  LIG1       -0.4521
      6 H          -0.5366    0.8729   -0.0001 H       1  LIG1        0.1069
      7 O           2.4004    0.6800    0.0000 O.3     1  LIG1       -0.5012
      8 H           3.2983    1.0417    0.0001 H       1  LIG1        0.2924
      9 O           3.2012    3.5231   -0.0000 O.3     1  LIG1       -0.5007
     10 H           3.2341    4.4935   -0.0000 H       1  LIG1        0.2924
     11 C           0.4804    5.2267   -0.0001 C.ar    1  LIG1        0.2194
     12 C          -0.6540    5.9998   -0.0001 C.ar    1  LIG1        0.2092
     13 C          -0.2301    7.3599   -0.0001 C.ar    1  LIG1        0.2092
     14 C           1.1486    7.3511   -0.0001 C.ar    1  LIG1        0.2195
     15 O           1.5871    6.0439   -0.0001 O.2     1  LIG1       -0.4407
     16 O          -1.9687    5.6439   -0.0001 O.3     1  LIG1       -0.5007
     17 H          -2.0284    4.6771   -0.0001 H       1  LIG1        0.2924
     18 O          -1.0348    8.4581   -0.0001 O.3     1  LIG1       -0.5007
     19 H          -1.9518    8.1479   -0.0001 H       1  LIG1        0.2924
     20 C           2.1418    8.3682   -0.0001 C.ar    1  LIG1        0.2195
     21 C           3.5206    8.3594   -0.0001 C.ar    1  LIG1        0.2092
     22 C           3.9445    9.7195   -0.0001 C.ar    1  LIG1        0.2092
     23 C           2.8101   10.4926   -0.0002 C.ar    1  LIG1        0.2194
     24 O           1.7034    9.6754   -0.0002 O.2     1  LIG1       -0.4407
     25 O           4.3252    7.2611   -0.0000 O.3     1  LIG1       -0.5007
     26 H           5.2422    7.5714    0.0000 H       1  LIG1        0.2924
     27 O           5.2591   10.0754   -0.0001 O.3     1  LIG1       -0.5007
     28 H           5.3189   11.0422   -0.0001 H       1  LIG1        0.2924
     29 C           2.5572   11.8927   -0.0002 C.ar    1  LIG1        0.2184
     30 C           1.3855   12.6063   -0.0002 C.ar    1  LIG1        0.2084
     31 C           1.7519   13.9900   -0.0003 C.ar    1  LIG1        0.1977
     32 C           3.1151   14.0393   -0.0003 C.ar    1  LIG1        0.1379
     33 O           3.6267   12.7563   -0.0003 O.2     1  LIG1       -0.4521
     34 H           3.8271   14.8463   -0.0003 H       1  LIG1        0.1069
     35 O           0.0893   12.1962   -0.0002 O.3     1  LIG1       -0.5007
     36 H           0.0563   11.2258   -0.0002 H       1  LIG1        0.2924
     37 O           0.8901   15.0393   -0.0002 O.3     1  LIG1       -0.5012
     38 H          -0.0078   14.6776   -0.0002 H       1  LIG1        0.2924
@<TRIPOS>BOND
     1    34    32    1
     2    32    33   ar
     3    32    31   ar
     4    33    29   ar
     5    31    37    1
     6    31    30   ar
     7    37    38    1
     8    29    30   ar
     9    29    23    1
    10    24    23   ar
    11    24    20   ar
    12    30    35    1
    13    23    22   ar
    14    35    36    1
    15    15    14   ar
    16    15    11   ar
    17    20    14    1
    18    20    21   ar
    19    14    13   ar
    20    22    21   ar
    21    22    27    1
    22    13    18    1
    23    13    12   ar
    24    11    12   ar
    25    11     4    1
    26    28    27    1
    27    18    19    1
    28    21    25    1
    29    12    16    1
    30     4     5   ar
    31     4     3   ar
    32     5     1   ar
    33     6     1    1
    34     1     2   ar
    35    17    16    1
    36     3     2   ar
    37     3     9    1
    38    10     9    1
    39     2     7    1
    40    25    26    1
    41     7     8    1
