@<TRIPOS>MOLECULE
mol_data/opt/b3lyp/geoms/mol2/12ff12ff12ff-12ff.out
 38 41 0 0 0
SMALL
GASTEIGER

@<TRIPOS>ATOM
      1 C           0.5417    1.5898   -0.0000 C.ar    1  LIG1        0.1379
      2 C           1.8884    1.8051   -0.0000 C.ar    1  LIG1        0.1977
      3 C           2.0793    3.2213   -0.0000 C.ar    1  LIG1        0.2084
      4 C           0.8224    3.7873   -0.0001 C.ar    1  LIG1        0.2184
      5 O          -0.1227    2.7916   -0.0001 O.2     1  LIG1       -0.4521
      6 H          -0.0648    0.7004   -0.0000 H       1  LIG1        0.1069
      7 O           2.8809    0.8767    0.0000 O.3     1  LIG1       -0.5012
      8 H           3.7210    1.3579    0.0000 H       1  LIG1        0.2924
      9 O           3.3254    3.7611   -0.0000 O.3     1  LIG1       -0.5007
     10 H           3.2651    4.7336   -0.0000 H       1  LIG1        0.2924
     11 C           0.3900    5.1498   -0.0001 C.ar    1  LIG1        0.2194
     12 C           1.0868    6.3363   -0.0001 C.ar    1  LIG1        0.2092
     13 C           0.1422    7.3959   -0.0001 C.ar    1  LIG1        0.2092
     14 C          -1.0990    6.8020   -0.0002 C.ar    1  LIG1        0.2195
     15 O          -0.9587    5.4314   -0.0001 O.2     1  LIG1       -0.4407
     16 O           2.4536    6.4537    0.0000 O.3     1  LIG1       -0.5007
     17 H           2.6836    7.3933    0.0000 H       1  LIG1        0.2924
     18 O           0.5030    8.7054   -0.0001 O.3     1  LIG1       -0.5007
     19 H          -0.2935    9.2629   -0.0001 H       1  LIG1        0.2924
     20 C          -2.4050    7.3564   -0.0002 C.ar    1  LIG1        0.2195
     21 C          -3.6776    6.8412   -0.0002 C.ar    1  LIG1        0.2092
     22 C          -4.5758    7.9494   -0.0002 C.ar    1  LIG1        0.2092
     23 C          -3.8051    9.0922   -0.0003 C.ar    1  LIG1        0.2194
     24 O          -2.4722    8.7284   -0.0002 O.2     1  LIG1       -0.4407
     25 O          -4.1159    5.5520   -0.0002 O.3     1  LIG1       -0.5007
     26 H          -3.3512    4.9572   -0.0001 H       1  LIG1        0.2924
     27 O          -5.9304    7.8761   -0.0002 O.3     1  LIG1       -0.5007
     28 H          -6.1695    6.9380   -0.0002 H       1  LIG1        0.2924
     29 C          -4.0535   10.4979   -0.0003 C.ar    1  LIG1        0.2184
     30 C          -3.1997   11.5777   -0.0002 C.ar    1  LIG1        0.2084
     31 C          -4.0232   12.7435   -0.0003 C.ar    1  LIG1        0.1977
     32 C          -5.3190   12.3164   -0.0004 C.ar    1  LIG1        0.1379
     33 O          -5.3485   10.9459   -0.0004 O.2     1  LIG1       -0.4521
     34 H          -6.2726   12.8185   -0.0005 H       1  LIG1        0.1069
     35 O          -1.8346   11.5565   -0.0001 O.3     1  LIG1       -0.5007
     36 H          -1.5326   12.4762   -0.0001 H       1  LIG1        0.2924
     37 O          -3.4581   13.9876   -0.0002 O.3     1  LIG1       -0.5012
     38 H          -4.1476   14.6631   -0.0003 H       1  LIG1        0.2924
@<TRIPOS>BOND
     1    34    32    1
     2    33    32   ar
     3    33    29   ar
     4    32    31   ar
     5    29    23    1
     6    29    30   ar
     7    31    37    1
     8    31    30   ar
     9    23    24   ar
    10    23    22   ar
    11    38    37    1
    12    24    20   ar
    13    27    22    1
    14    27    28    1
    15    22    21   ar
    16    30    35    1
    17    20    21   ar
    18    20    14    1
    19    21    25    1
    20    14    15   ar
    21    14    13   ar
    22    25    26    1
    23    15    11   ar
    24    19    18    1
    25    13    18    1
    26    13    12   ar
    27    35    36    1
    28    11     4    1
    29    11    12   ar
    30     5     4   ar
    31     5     1   ar
    32     4     3   ar
    33    12    16    1
    34     6     1    1
    35     1     2   ar
    36     3     9    1
    37     3     2   ar
    38     9    10    1
    39     2     7    1
    40    16    17    1
    41     7     8    1
