@<TRIPOS>MOLECULE
mol_data/opt/b3lyp/geoms/mol2/12ff12ff-.out
 20 21 0 0 0
SMALL
GASTEIGER

@<TRIPOS>ATOM
      1 C           0.1817    1.7878   -0.0002 C.ar    1  LIG1        0.1379
      2 C           1.5452    1.7995   -0.0000 C.ar    1  LIG1        0.1977
      3 C           1.9471    3.1739    0.0000 C.ar    1  LIG1        0.2084
      4 C           0.7998    3.9214   -0.0001 C.ar    1  LIG1        0.2184
      5 O          -0.2923    3.0847   -0.0001 O.2     1  LIG1       -0.4521
      6 H          -0.5524    1.0011   -0.0003 H       1  LIG1        0.1069
      7 O           2.3784    0.7270    0.0001 O.3     1  LIG1       -0.5012
      8 H           3.2862    1.0627    0.0002 H       1  LIG1        0.2924
      9 O           3.2557    3.5525    0.0001 O.3     1  LIG1       -0.5007
     10 H           3.2967    4.5205    0.0001 H       1  LIG1        0.2924
     11 C           0.5584    5.3285   -0.0001 C.ar    1  LIG1        0.2184
     12 C          -0.5888    6.0760   -0.0001 C.ar    1  LIG1        0.2084
     13 C          -0.1869    7.4504   -0.0002 C.ar    1  LIG1        0.1977
     14 C           1.1765    7.4621   -0.0003 C.ar    1  LIG1        0.1379
     15 O           1.6505    6.1652   -0.0001 O.2     1  LIG1       -0.4521
     16 H           1.9106    8.2488   -0.0004 H       1  LIG1        0.1069
     17 O          -1.8975    5.6975    0.0001 O.3     1  LIG1       -0.5007
     18 H          -1.9385    4.7295    0.0001 H       1  LIG1        0.2924
     19 O          -1.0202    8.5230   -0.0002 O.3     1  LIG1       -0.5012
     20 H          -1.9279    8.1873   -0.0000 H       1  LIG1        0.2924
@<TRIPOS>BOND
     1    16    14    1
     2     6     1    1
     3    14    13   ar
     4    14    15   ar
     5     1     5   ar
     6     1     2   ar
     7    13    19    1
     8    13    12   ar
     9    19    20    1
    10    15    11   ar
    11    11     4    1
    12    11    12   ar
    13     4     5   ar
    14     4     3   ar
    15    12    17    1
    16     2     3   ar
    17     2     7    1
    18     3     9    1
    19    17    18    1
    20    10     9    1
    21     7     8    1
