@<TRIPOS>MOLECULE
mol_data/opt/b3lyp/geoms/mol2/12ff12ff12ff-12ff-.out
 38 41 0 0 0
SMALL
GASTEIGER

@<TRIPOS>ATOM
      1 C           0.3767    1.5522   -0.0001 C.ar    1  LIG1        0.1379
      2 C           1.7354    1.6706   -0.0000 C.ar    1  LIG1        0.1977
      3 C           2.0272    3.0697   -0.0000 C.ar    1  LIG1        0.2084
      4 C           0.8137    3.7238   -0.0001 C.ar    1  LIG1        0.2184
      5 O          -0.2005    2.7982   -0.0001 O.2     1  LIG1       -0.4521
      6 H          -0.2914    0.7080   -0.0001 H       1  LIG1        0.1069
      7 O           2.6575    0.6731    0.0000 O.3     1  LIG1       -0.5012
      8 H           3.5310    1.0907    0.0000 H       1  LIG1        0.2924
      9 O           3.3083    3.5187   -0.0000 O.3     1  LIG1       -0.5007
     10 H           3.3191    4.4928   -0.0000 H       1  LIG1        0.2924
     11 C           0.4778    5.1128   -0.0001 C.ar    1  LIG1        0.2194
     12 C           1.2534    6.2489   -0.0001 C.ar    1  LIG1        0.2092
     13 C           0.3818    7.3695   -0.0001 C.ar    1  LIG1        0.2092
     14 C          -0.8974    6.8654   -0.0002 C.ar    1  LIG1        0.2195
     15 O          -0.8485    5.4866   -0.0001 O.2     1  LIG1       -0.4407
     16 O           2.6243    6.2704    0.0000 O.3     1  LIG1       -0.5007
     17 H           2.9234    7.1902   -0.0000 H       1  LIG1        0.2924
     18 O           0.8301    8.6531   -0.0001 O.3     1  LIG1       -0.5007
     19 H           0.0684    9.2532   -0.0001 H       1  LIG1        0.2924
     20 C          -2.1781    7.4766   -0.0002 C.ar    1  LIG1        0.2195
     21 C          -3.4573    6.9725   -0.0002 C.ar    1  LIG1        0.2092
     22 C          -4.3288    8.0932   -0.0002 C.ar    1  LIG1        0.2092
     23 C          -3.5532    9.2292   -0.0002 C.ar    1  LIG1        0.2194
     24 O          -2.2269    8.8555   -0.0002 O.2     1  LIG1       -0.4407
     25 O          -3.9056    5.6890   -0.0001 O.3     1  LIG1       -0.5007
     26 H          -3.1438    5.0889   -0.0001 H       1  LIG1        0.2924
     27 O          -5.6997    8.0718   -0.0002 O.3     1  LIG1       -0.5007
     28 H          -5.9989    7.1519   -0.0002 H       1  LIG1        0.2924
     29 C          -3.8891   10.6182   -0.0002 C.ar    1  LIG1        0.2184
     30 C          -5.1027   11.2722   -0.0003 C.ar    1  LIG1        0.2084
     31 C          -4.8111   12.6712   -0.0003 C.ar    1  LIG1        0.1977
     32 C          -3.4525   12.7898   -0.0003 C.ar    1  LIG1        0.1379
     33 O          -2.8751   11.5440   -0.0003 O.2     1  LIG1       -0.4521
     34 H          -2.7845   13.6341   -0.0003 H       1  LIG1        0.1069
     35 O          -6.3837   10.8229   -0.0003 O.3     1  LIG1       -0.5007
     36 H          -6.3943    9.8487   -0.0002 H       1  LIG1        0.2924
     37 O          -5.7334   13.6686   -0.0003 O.3     1  LIG1       -0.5012
     38 H          -6.6069   13.2509   -0.0003 H       1  LIG1        0.2924
@<TRIPOS>BOND
     1    37    38    1
     2    37    31    1
     3    34    32    1
     4    32    31   ar
     5    32    33   ar
     6    31    30   ar
     7    30    35    1
     8    30    29   ar
     9    35    36    1
    10    33    29   ar
    11    29    23    1
    12    23    24   ar
    13    23    22   ar
    14    24    20   ar
    15    27    22    1
    16    27    28    1
    17    22    21   ar
    18    20    21   ar
    19    20    14    1
    20    21    25    1
    21    14    15   ar
    22    14    13   ar
    23    15    11   ar
    24    26    25    1
    25    19    18    1
    26    13    18    1
    27    13    12   ar
    28    11     4    1
    29    11    12   ar
    30     5     4   ar
    31     5     1   ar
    32     4     3   ar
    33     6     1    1
    34    12    16    1
    35     1     2   ar
    36     3     2   ar
    37     3     9    1
    38     2     7    1
    39     9    10    1
    40    17    16    1
    41     7     8    1
