@<TRIPOS>MOLECULE
mol_data/opt/b3lyp/geoms/mol2/12ff12ff-12ff.out
 29 31 0 0 0
SMALL
GASTEIGER

@<TRIPOS>ATOM
      1 C           0.2620    1.7367   -0.0000 C.ar    1  LIG1        0.1379
      2 C           1.6224    1.8374    0.0000 C.ar    1  LIG1        0.1977
      3 C           1.9369    3.2340   -0.0000 C.ar    1  LIG1        0.2084
      4 C           0.7390    3.9023   -0.0001 C.ar    1  LIG1        0.2184
      5 O          -0.2975    2.9998   -0.0001 O.2     1  LIG1       -0.4521
      6 H          -0.4193    0.9038   -0.0000 H       1  LIG1        0.1069
      7 O           2.5248    0.8222    0.0001 O.3     1  LIG1       -0.5012
      8 H           3.4069    1.2208    0.0001 H       1  LIG1        0.2924
      9 O           3.2169    3.6918   -0.0000 O.3     1  LIG1       -0.5007
     10 H           3.2159    4.6636   -0.0000 H       1  LIG1        0.2924
     11 C           0.4421    5.2946   -0.0001 C.ar    1  LIG1        0.2194
     12 C          -0.7083    6.0407   -0.0001 C.ar    1  LIG1        0.2092
     13 C          -0.3174    7.4133   -0.0001 C.ar    1  LIG1        0.2092
     14 C           1.0601    7.4373   -0.0002 C.ar    1  LIG1        0.2194
     15 O           1.5264    6.1373   -0.0002 O.2     1  LIG1       -0.4407
     16 O          -2.0161    5.6571   -0.0001 O.3     1  LIG1       -0.5007
     17 H          -2.0553    4.6895   -0.0001 H       1  LIG1        0.2924
     18 O          -1.1554    8.4808   -0.0001 O.3     1  LIG1       -0.5007
     19 H          -2.0607    8.1381   -0.0001 H       1  LIG1        0.2924
     20 C           2.0678    8.4493   -0.0002 C.ar    1  LIG1        0.2184
     21 C           3.4420    8.3738   -0.0001 C.ar    1  LIG1        0.2084
     22 C           3.9201    9.7190   -0.0001 C.ar    1  LIG1        0.1977
     23 C           2.8243   10.5318   -0.0002 C.ar    1  LIG1        0.1379
     24 O           1.6875    9.7660   -0.0003 O.2     1  LIG1       -0.4521
     25 H           2.6851   11.6004   -0.0003 H       1  LIG1        0.1069
     26 O           4.2109    7.2462    0.0000 O.3     1  LIG1       -0.5007
     27 H           5.1368    7.5284    0.0001 H       1  LIG1        0.2924
     28 O           5.2625    9.9750   -0.0001 O.3     1  LIG1       -0.5012
     29 H           5.4161   10.9278   -0.0001 H       1  LIG1        0.2924
@<TRIPOS>BOND
     1    25    23    1
     2    24    23   ar
     3    24    20   ar
     4    23    22   ar
     5    20    14    1
     6    20    21   ar
     7    14    15   ar
     8    14    13   ar
     9    15    11   ar
    10    22    28    1
    11    22    21   ar
    12    13    18    1
    13    13    12   ar
    14    18    19    1
    15    29    28    1
    16    11    12   ar
    17    11     4    1
    18    12    16    1
    19    21    26    1
    20     5     4   ar
    21     5     1   ar
    22     4     3   ar
    23    16    17    1
    24     3     9    1
    25     3     2   ar
    26    10     9    1
    27     1     6    1
    28     1     2   ar
    29     2     7    1
    30    26    27    1
    31     7     8    1
