@<TRIPOS>MOLECULE
mol_data/opt/b3lyp/geoms/mol2/12ff12ff-12ff-12ff-.out
 38 41 0 0 0
SMALL
GASTEIGER

@<TRIPOS>ATOM
      1 C          -0.2845    1.6381   -0.0001 C.ar    1  LIG1        0.1379
      2 C           1.0745    1.5249   -0.0000 C.ar    1  LIG1        0.1977
      3 C           1.6031    2.8555   -0.0000 C.ar    1  LIG1        0.2084
      4 C           0.5270    3.7054   -0.0001 C.ar    1  LIG1        0.2184
      5 O          -0.6388    2.9736   -0.0001 O.2     1  LIG1       -0.4521
      6 H          -1.0878    0.9220   -0.0001 H       1  LIG1        0.1069
      7 O           1.8050    0.3811    0.0000 O.3     1  LIG1       -0.5012
      8 H           2.7401    0.6315    0.0000 H       1  LIG1        0.2924
      9 O           2.9398    3.1048    0.0000 O.3     1  LIG1       -0.5007
     10 H           3.0876    4.0629   -0.0000 H       1  LIG1        0.2924
     11 C           0.4191    5.1244   -0.0001 C.ar    1  LIG1        0.2194
     12 C          -0.6521    5.9849   -0.0001 C.ar    1  LIG1        0.2092
     13 C          -0.1139    7.2981   -0.0001 C.ar    1  LIG1        0.2092
     14 C           1.2582    7.1875   -0.0001 C.ar    1  LIG1        0.2195
     15 O           1.5912    5.8516   -0.0001 O.2     1  LIG1       -0.4407
     16 O          -1.9892    5.7320   -0.0001 O.3     1  LIG1       -0.5007
     17 H          -2.1196    4.7715   -0.0001 H       1  LIG1        0.2924
     18 O          -0.8102    8.4806   -0.0001 O.3     1  LIG1       -0.5007
     19 H          -1.7579    8.2870   -0.0001 H       1  LIG1        0.2924
     20 C           2.2939    8.1665   -0.0001 C.ar    1  LIG1        0.2195
     21 C           2.2605    9.5483   -0.0001 C.ar    1  LIG1        0.2092
     22 C           3.6103    9.9777   -0.0001 C.ar    1  LIG1        0.2092
     23 C           4.4072    8.8562   -0.0001 C.ar    1  LIG1        0.2194
     24 O           3.6051    7.7447   -0.0001 O.2     1  LIG1       -0.4407
     25 O           1.2333   10.4345   -0.0001 O.3     1  LIG1       -0.5007
     26 H           0.3838    9.9562   -0.0001 H       1  LIG1        0.2924
     27 O           4.0527   11.2764   -0.0002 O.3     1  LIG1       -0.5007
     28 H           3.2833   11.8631   -0.0002 H       1  LIG1        0.2924
     29 C           5.8289    8.7029   -0.0001 C.ar    1  LIG1        0.2184
     30 C           6.8520    9.6280   -0.0002 C.ar    1  LIG1        0.2084
     31 C           8.0725    8.8856   -0.0002 C.ar    1  LIG1        0.1977
     32 C           7.7286    7.5657   -0.0001 C.ar    1  LIG1        0.1379
     33 O           6.3629    7.4388   -0.0001 O.2     1  LIG1       -0.4521
     34 H           8.3005    6.6534   -0.0001 H       1  LIG1        0.1069
     35 O           6.8586   10.9856   -0.0002 O.3     1  LIG1       -0.5007
     36 H           5.9440   11.3222   -0.0002 H       1  LIG1        0.2924
     37 O           9.3214    9.4218   -0.0002 O.3     1  LIG1       -0.5012
     38 H           9.2178   10.3845   -0.0002 H       1  LIG1        0.2924
@<TRIPOS>BOND
     1    35    36    1
     2    35    30    1
     3    38    37    1
     4    37    31    1
     5    30    31   ar
     6    30    29   ar
     7    27    28    1
     8    27    22    1
     9    31    32   ar
    10    22    23   ar
    11    22    21   ar
    12    25    21    1
    13    25    26    1
    14    23    29    1
    15    23    24   ar
    16    21    20   ar
    17    29    33   ar
    18    24    20   ar
    19    32    33   ar
    20    32    34    1
    21    14    20    1
    22    14    15   ar
    23    14    13   ar
    24    15    11   ar
    25     5     4   ar
    26     5     1   ar
    27    18    13    1
    28    18    19    1
    29    13    12   ar
    30    11    12   ar
    31    11     4    1
    32    12    16    1
    33    17    16    1
    34     4     3   ar
    35     6     1    1
    36     1     2   ar
    37     3     2   ar
    38     3     9    1
    39     2     7    1
    40    10     9    1
    41     7     8    1
