@<TRIPOS>MOLECULE
mol_data/opt/b3lyp/geoms/mol2/12ff12ff-12ff12ff.out
 38 41 0 0 0
SMALL
GASTEIGER

@<TRIPOS>ATOM
      1 C           0.4147    1.6032   -0.0001 C.ar    1  LIG1        0.1379
      2 C           1.7679    1.7756   -0.0000 C.ar    1  LIG1        0.1977
      3 C           2.0086    3.1867   -0.0000 C.ar    1  LIG1        0.2084
      4 C           0.7769    3.7911   -0.0001 C.ar    1  LIG1        0.2184
      5 O          -0.2107    2.8350   -0.0001 O.2     1  LIG1       -0.4521
      6 H          -0.2216    0.7354   -0.0000 H       1  LIG1        0.1069
      7 O           2.7224    0.8090    0.0000 O.3     1  LIG1       -0.5012
      8 H           3.5823    1.2535    0.0000 H       1  LIG1        0.2924
      9 O           3.2629    3.7104   -0.0000 O.3     1  LIG1       -0.5007
     10 H           3.2126    4.6811   -0.0000 H       1  LIG1        0.2924
     11 C           0.4070    5.1651   -0.0001 C.ar    1  LIG1        0.2194
     12 C          -0.7817    5.8497   -0.0001 C.ar    1  LIG1        0.2092
     13 C          -0.4650    7.2401   -0.0001 C.ar    1  LIG1        0.2092
     14 C           0.9112    7.3381   -0.0001 C.ar    1  LIG1        0.2195
     15 O           1.4452    6.0637   -0.0001 O.2     1  LIG1       -0.4407
     16 O          -2.0669    5.3955   -0.0001 O.3     1  LIG1       -0.5007
     17 H          -2.0529    4.4272   -0.0001 H       1  LIG1        0.2924
     18 O          -1.3577    8.2616   -0.0001 O.3     1  LIG1       -0.5007
     19 H          -2.2438    7.8719   -0.0001 H       1  LIG1        0.2924
     20 C           1.8634    8.3971   -0.0001 C.ar    1  LIG1        0.2195
     21 C           3.2427    8.3890   -0.0001 C.ar    1  LIG1        0.2092
     22 C           3.6635    9.7451   -0.0001 C.ar    1  LIG1        0.2092
     23 C           2.5191   10.5175   -0.0002 C.ar    1  LIG1        0.2194
     24 O           1.4183    9.6944   -0.0002 O.2     1  LIG1       -0.4407
     25 O           4.0649    7.3011    0.0000 O.3     1  LIG1       -0.5007
     26 H           4.9742    7.6348    0.0000 H       1  LIG1        0.2924
     27 O           4.9823   10.0675   -0.0000 O.3     1  LIG1       -0.5007
     28 H           5.0871   11.0366   -0.0001 H       1  LIG1        0.2924
     29 C           2.3256   11.9350   -0.0002 C.ar    1  LIG1        0.2184
     30 C           3.2245   12.9744   -0.0002 C.ar    1  LIG1        0.2084
     31 C           2.4709   14.1818   -0.0003 C.ar    1  LIG1        0.1977
     32 C           1.1545   13.8186   -0.0003 C.ar    1  LIG1        0.1379
     33 O           1.0581   12.4495   -0.0003 O.2     1  LIG1       -0.4521
     34 H           0.2268   14.3668   -0.0003 H       1  LIG1        0.1069
     35 O           4.5936   12.8556   -0.0001 O.3     1  LIG1       -0.5007
     36 H           4.9836   13.7405   -0.0002 H       1  LIG1        0.2924
     37 O           3.0985   15.3951   -0.0003 O.3     1  LIG1       -0.5012
     38 H           2.4437   16.1043   -0.0003 H       1  LIG1        0.2924
@<TRIPOS>BOND
     1    34    32    1
     2    38    37    1
     3    32    33   ar
     4    32    31   ar
     5    37    31    1
     6    33    29   ar
     7    31    30   ar
     8    29    30   ar
     9    29    23    1
    10    30    35    1
    11    24    23   ar
    12    24    20   ar
    13    23    22   ar
    14    36    35    1
    15    15    14   ar
    16    15    11   ar
    17    14    20    1
    18    14    13   ar
    19    20    21   ar
    20    11    12   ar
    21    11     4    1
    22    13    12   ar
    23    13    18    1
    24     5     4   ar
    25     5     1   ar
    26    12    16    1
    27    18    19    1
    28     4     3   ar
    29    17    16    1
    30    22    21   ar
    31    22    27    1
    32    21    25    1
    33    28    27    1
    34     1     6    1
    35     1     2   ar
    36     3     2   ar
    37     3     9    1
    38    10     9    1
    39     2     7    1
    40    25    26    1
    41     7     8    1
