@<TRIPOS>MOLECULE
mol_data/opt/b3lyp/geoms/mol2/12ff12ff.out
 20 21 0 0 0
SMALL
GASTEIGER

@<TRIPOS>ATOM
      1 C           0.2119    1.7238   -0.0001 C.ar    1  LIG1        0.1379
      2 C           1.5710    1.8342    0.0000 C.ar    1  LIG1        0.1977
      3 C           1.8688    3.2322   -0.0000 C.ar    1  LIG1        0.2084
      4 C           0.6598    3.8915   -0.0001 C.ar    1  LIG1        0.2184
      5 O          -0.3572    2.9714   -0.0001 O.2     1  LIG1       -0.4521
      6 H          -0.4614    0.8838   -0.0001 H       1  LIG1        0.1069
      7 O           2.4907    0.8327    0.0001 O.3     1  LIG1       -0.5012
      8 H           3.3643    1.2501    0.0001 H       1  LIG1        0.2924
      9 O           3.1540    3.6729    0.0000 O.3     1  LIG1       -0.5007
     10 H           3.1694    4.6471   -0.0000 H       1  LIG1        0.2924
     11 C           0.3340    5.2890   -0.0001 C.ar    1  LIG1        0.2184
     12 C           1.1298    6.4070   -0.0001 C.ar    1  LIG1        0.2084
     13 C           0.2650    7.5387   -0.0001 C.ar    1  LIG1        0.1977
     14 C          -1.0107    7.0530   -0.0002 C.ar    1  LIG1        0.1379
     15 O          -0.9767    5.6808   -0.0001 O.2     1  LIG1       -0.4521
     16 H          -1.9860    7.5112   -0.0003 H       1  LIG1        0.1069
     17 O           2.5040    6.4194   -0.0000 O.3     1  LIG1       -0.5007
     18 H           2.8072    7.3375   -0.0000 H       1  LIG1        0.2924
     19 O           0.7757    8.8058   -0.0001 O.3     1  LIG1       -0.5012
     20 H           0.0568    9.4500   -0.0001 H       1  LIG1        0.2924
@<TRIPOS>BOND
     1    16    14    1
     2    14    15   ar
     3    14    13   ar
     4    15    11   ar
     5    13    19    1
     6    13    12   ar
     7    20    19    1
     8     6     1    1
     9    11    12   ar
    10    11     4    1
    11    12    17    1
    12     1     5   ar
    13     1     2   ar
    14     4     5   ar
    15     4     3   ar
    16    17    18    1
    17     3     9    1
    18     3     2   ar
    19    10     9    1
    20     2     7    1
    21     7     8    1
