@<TRIPOS>MOLECULE
mol_data/opt/b3lyp/geoms/mol2/12ff12ff12ff12ff.out
 38 41 0 0 0
SMALL
GASTEIGER

@<TRIPOS>ATOM
      1 C           1.0249    1.5158   -0.0000 C.ar    1  LIG1        0.1379
      2 C           2.3515    1.8332   -0.0000 C.ar    1  LIG1        0.1977
      3 C           2.4325    3.2591   -0.0000 C.ar    1  LIG1        0.2084
      4 C           1.1347    3.7269   -0.0001 C.ar    1  LIG1        0.2184
      5 O           0.2714    2.6610   -0.0001 O.2     1  LIG1       -0.4521
      6 H           0.4882    0.5824   -0.0000 H       1  LIG1        0.1069
      7 O           3.4139    0.9840    0.0000 O.3     1  LIG1       -0.5012
      8 H           4.2127    1.5311    0.0000 H       1  LIG1        0.2924
      9 O           3.6349    3.8911   -0.0000 O.3     1  LIG1       -0.5007
     10 H           3.5016    4.8566   -0.0000 H       1  LIG1        0.2924
     11 C           0.6029    5.0550   -0.0001 C.ar    1  LIG1        0.2194
     12 C           1.2237    6.2827   -0.0000 C.ar    1  LIG1        0.2092
     13 C           0.2150    7.2758   -0.0001 C.ar    1  LIG1        0.2092
     14 C          -0.9928    6.6015   -0.0001 C.ar    1  LIG1        0.2195
     15 O          -0.7528    5.2462   -0.0001 O.2     1  LIG1       -0.4407
     16 O           2.5792    6.5006    0.0000 O.3     1  LIG1       -0.5007
     17 H           2.7343    7.4557   -0.0000 H       1  LIG1        0.2924
     18 O           0.5246    8.5969   -0.0001 O.3     1  LIG1       -0.5007
     19 H          -0.2934    9.1285   -0.0001 H       1  LIG1        0.2924
     20 C          -2.3399    7.0719   -0.0002 C.ar    1  LIG1        0.2195
     21 C          -2.8554    8.3486   -0.0002 C.ar    1  LIG1        0.2092
     22 C          -4.2671    8.2425   -0.0002 C.ar    1  LIG1        0.2092
     23 C          -4.5540    6.8906   -0.0003 C.ar    1  LIG1        0.2194
     24 O          -3.3766    6.1779   -0.0002 O.2     1  LIG1       -0.4407
     25 O          -2.1245    9.5114   -0.0001 O.3     1  LIG1       -0.5007
     26 H          -2.7392   10.2588   -0.0001 H       1  LIG1        0.2924
     27 O          -5.0581    9.3452   -0.0002 O.3     1  LIG1       -0.5007
     28 H          -5.9964    9.0789   -0.0003 H       1  LIG1        0.2924
     29 C          -5.7962    6.1813   -0.0003 C.ar    1  LIG1        0.2184
     30 C          -7.0956    6.6279   -0.0003 C.ar    1  LIG1        0.2084
     31 C          -7.9348    5.4784   -0.0004 C.ar    1  LIG1        0.1977
     32 C          -7.1067    4.3925   -0.0004 C.ar    1  LIG1        0.1379
     33 O          -5.8004    4.8139   -0.0003 O.2     1  LIG1       -0.4521
     34 H          -7.2690    3.3274   -0.0004 H       1  LIG1        0.1069
     35 O          -7.4951    7.9432   -0.0003 O.3     1  LIG1       -0.5007
     36 H          -8.4616    7.9755   -0.0003 H       1  LIG1        0.2924
     37 O          -9.2944    5.6087   -0.0004 O.3     1  LIG1       -0.5012
     38 H          -9.7087    4.7368   -0.0004 H       1  LIG1        0.2924
@<TRIPOS>BOND
     1    38    37    1
     2    34    32    1
     3    37    31    1
     4    32    31   ar
     5    32    33   ar
     6    31    30   ar
     7    33    29   ar
     8    30    29   ar
     9    30    35    1
    10    36    35    1
    11    29    23    1
    12    28    27    1
    13    23    22   ar
    14    23    24   ar
    15    27    22    1
    16    22    21   ar
    17    24    20   ar
    18    21    20   ar
    19    21    25    1
    20    20    14    1
    21    14    15   ar
    22    14    13   ar
    23    26    25    1
    24    15    11   ar
    25    19    18    1
    26    13    18    1
    27    13    12   ar
    28    11     4    1
    29    11    12   ar
    30     5     4   ar
    31     5     1   ar
    32     4     3   ar
    33    12    16    1
    34     6     1    1
    35     1     2   ar
    36     3     9    1
    37     3     2   ar
    38     9    10    1
    39     2     7    1
    40    17    16    1
    41     7     8    1
