@<TRIPOS>MOLECULE
mol_data/opt/b3lyp/geoms/mol2/12ff12ff12ff12ff-.out
 38 41 0 0 0
SMALL
GASTEIGER

@<TRIPOS>ATOM
      1 C           0.8015    1.5477   -0.0000 C.ar    1  LIG1        0.1379
      2 C           2.1416    1.8022   -0.0000 C.ar    1  LIG1        0.1977
      3 C           2.2898    3.2230   -0.0000 C.ar    1  LIG1        0.2084
      4 C           1.0158    3.7514   -0.0001 C.ar    1  LIG1        0.2184
      5 O           0.1020    2.7275   -0.0001 O.2     1  LIG1       -0.4521
      6 H           0.2220    0.6402   -0.0000 H       1  LIG1        0.1069
      7 O           3.1609    0.9032    0.0000 O.3     1  LIG1       -0.5012
      8 H           3.9865    1.4090    0.0000 H       1  LIG1        0.2924
      9 O           3.5195    3.7984    0.0000 O.3     1  LIG1       -0.5007
     10 H           3.4320    4.7690    0.0000 H       1  LIG1        0.2924
     11 C           0.5455    5.1018   -0.0001 C.ar    1  LIG1        0.2194
     12 C           1.2177    6.3022   -0.0000 C.ar    1  LIG1        0.2092
     13 C           0.2517    7.3381   -0.0001 C.ar    1  LIG1        0.2092
     14 C          -0.9828    6.7162   -0.0001 C.ar    1  LIG1        0.2195
     15 O          -0.8024    5.3507   -0.0001 O.2     1  LIG1       -0.4407
     16 O           2.5807    6.4585    0.0000 O.3     1  LIG1       -0.5007
     17 H           2.7814    7.4051    0.0000 H       1  LIG1        0.2924
     18 O           0.6126    8.6458   -0.0001 O.3     1  LIG1       -0.5007
     19 H          -0.1834    9.2087   -0.0001 H       1  LIG1        0.2924
     20 C          -2.3109    7.2329   -0.0002 C.ar    1  LIG1        0.2195
     21 C          -2.7986    8.5203   -0.0002 C.ar    1  LIG1        0.2092
     22 C          -4.2158    8.4443   -0.0002 C.ar    1  LIG1        0.2092
     23 C          -4.5347    7.1078   -0.0003 C.ar    1  LIG1        0.2194
     24 O          -3.3756    6.3600   -0.0002 O.2     1  LIG1       -0.4407
     25 O          -2.0282    9.6559   -0.0001 O.3     1  LIG1       -0.5007
     26 H          -2.6089   10.4293   -0.0001 H       1  LIG1        0.2924
     27 O          -5.0169    9.5443   -0.0003 O.3     1  LIG1       -0.5007
     28 H          -5.9407    9.2508   -0.0003 H       1  LIG1        0.2924
     29 C          -5.7708    6.4026   -0.0003 C.ar    1  LIG1        0.2184
     30 C          -6.0780    5.0662   -0.0003 C.ar    1  LIG1        0.2084
     31 C          -7.5068    4.9741   -0.0004 C.ar    1  LIG1        0.1977
     32 C          -7.9865    6.2507   -0.0004 C.ar    1  LIG1        0.1379
     33 O          -6.9313    7.1427   -0.0004 O.2     1  LIG1       -0.4521
     34 H          -8.9775    6.6700   -0.0005 H       1  LIG1        0.1069
     35 O          -5.2804    3.9651   -0.0002 O.3     1  LIG1       -0.5007
     36 H          -4.3512    4.2418   -0.0002 H       1  LIG1        0.2924
     37 O          -8.2276    3.8242   -0.0004 O.3     1  LIG1       -0.5012
     38 H          -7.6010    3.0864   -0.0003 H       1  LIG1        0.2924
@<TRIPOS>BOND
     1    34    32    1
     2    32    33   ar
     3    32    31   ar
     4    33    29   ar
     5    31    37    1
     6    31    30   ar
     7    37    38    1
     8    29    30   ar
     9    29    23    1
    10    28    27    1
    11    30    35    1
    12    23    24   ar
    13    23    22   ar
    14    27    22    1
    15    24    20   ar
    16    22    21   ar
    17    35    36    1
    18    21    20   ar
    19    21    25    1
    20    20    14    1
    21    14    15   ar
    22    14    13   ar
    23    26    25    1
    24    15    11   ar
    25    19    18    1
    26    13    18    1
    27    13    12   ar
    28     5     4   ar
    29     5     1   ar
    30    11     4    1
    31    11    12   ar
    32     4     3   ar
    33     6     1    1
    34    12    16    1
    35     1     2   ar
    36     3     2   ar
    37     3     9    1
    38     2     7    1
    39     9    10    1
    40    17    16    1
    41     7     8    1
