@<TRIPOS>MOLECULE
mol_data/opt/b3lyp/geoms/mol2/12ff12ff-12ff-12ff.out
 38 41 0 0 0
SMALL
GASTEIGER

@<TRIPOS>ATOM
      1 C          -0.0537    1.6623   -0.0000 C.ar    1  LIG1        0.1379
      2 C           1.3097    1.6321   -0.0000 C.ar    1  LIG1        0.1977
      3 C           1.7577    2.9918   -0.0000 C.ar    1  LIG1        0.2084
      4 C           0.6312    3.7743   -0.0001 C.ar    1  LIG1        0.2184
      5 O          -0.4881    2.9742   -0.0001 O.2     1  LIG1       -0.4521
      6 H          -0.8123    0.8992   -0.0000 H       1  LIG1        0.1069
      7 O           2.1099    0.5350    0.0000 O.3     1  LIG1       -0.5012
      8 H           3.0267    0.8455    0.0000 H       1  LIG1        0.2924
      9 O           3.0776    3.3193   -0.0000 O.3     1  LIG1       -0.5007
     10 H           3.1739    4.2848   -0.0000 H       1  LIG1        0.2924
     11 C           0.4493    5.1855   -0.0001 C.ar    1  LIG1        0.2194
     12 C          -0.6544    6.0044   -0.0001 C.ar    1  LIG1        0.2092
     13 C          -0.1665    7.3383   -0.0001 C.ar    1  LIG1        0.2092
     14 C           1.2085    7.2789   -0.0001 C.ar    1  LIG1        0.2195
     15 O           1.5909    5.9575   -0.0001 O.2     1  LIG1       -0.4407
     16 O          -1.9815    5.6998   -0.0001 O.3     1  LIG1       -0.5007
     17 H          -2.0749    4.7354   -0.0001 H       1  LIG1        0.2924
     18 O          -0.9032    8.4960   -0.0001 O.3     1  LIG1       -0.5007
     19 H          -1.8433    8.2692   -0.0001 H       1  LIG1        0.2924
     20 C           2.2172    8.2846   -0.0001 C.ar    1  LIG1        0.2195
     21 C           2.1615    9.6631   -0.0002 C.ar    1  LIG1        0.2092
     22 C           3.5052   10.1296   -0.0002 C.ar    1  LIG1        0.2092
     23 C           4.3161    9.0140   -0.0002 C.ar    1  LIG1        0.2194
     24 O           3.5302    7.8856   -0.0002 O.2     1  LIG1       -0.4407
     25 O           1.1137   10.5271   -0.0001 O.3     1  LIG1       -0.5007
     26 H           0.2761   10.0301   -0.0001 H       1  LIG1        0.2924
     27 O           3.8897   11.4318   -0.0002 O.3     1  LIG1       -0.5007
     28 H           3.0816   11.9655   -0.0002 H       1  LIG1        0.2924
     29 C           5.7303    8.8099   -0.0002 C.ar    1  LIG1        0.2184
     30 C           6.5158    7.6785   -0.0001 C.ar    1  LIG1        0.2084
     31 C           7.8709    8.1295   -0.0001 C.ar    1  LIG1        0.1977
     32 C           7.8400    9.4930   -0.0003 C.ar    1  LIG1        0.1379
     33 O           6.5393    9.9196   -0.0003 O.2     1  LIG1       -0.4521
     34 H           8.5987   10.2586   -0.0003 H       1  LIG1        0.1069
     35 O           6.1080    6.3800    0.0001 O.3     1  LIG1       -0.5007
     36 H           6.9059    5.8317    0.0001 H       1  LIG1        0.2924
     37 O           8.8978    7.2269   -0.0001 O.3     1  LIG1       -0.5012
     38 H           9.7437    7.6915   -0.0001 H       1  LIG1        0.2924
@<TRIPOS>BOND
     1    34    32    1
     2    33    32   ar
     3    33    29   ar
     4    32    31   ar
     5    23    29    1
     6    23    22   ar
     7    23    24   ar
     8    27    22    1
     9    27    28    1
    10    29    30   ar
    11    22    21   ar
    12    24    20   ar
    13    21    20   ar
    14    21    25    1
    15    20    14    1
    16    25    26    1
    17    14    15   ar
    18    14    13   ar
    19    15    11   ar
    20    31    30   ar
    21    31    37    1
    22    13    18    1
    23    13    12   ar
    24    18    19    1
    25    11    12   ar
    26    11     4    1
    27    12    16    1
    28     5     4   ar
    29     5     1   ar
    30    38    37    1
    31     4     3   ar
    32    30    35    1
    33    17    16    1
    34     1     6    1
    35     1     2   ar
    36     3     9    1
    37     3     2   ar
    38    10     9    1
    39     2     7    1
    40     7     8    1
    41    35    36    1
