@<TRIPOS>MOLECULE
mol_data/opt/b3lyp/geoms/mol2/12ff13fi12dh6ie6aa-6ad-6fa-13ll.out
 92 99 0 0 0
SMALL
GASTEIGER

@<TRIPOS>ATOM
      1 C           0.9827    1.8262   -0.6628 C.ar    1  LIG1        0.1378
      2 C           2.3053    1.8516   -0.3313 C.ar    1  LIG1        0.1977
      3 C           2.6232    3.2076   -0.0046 C.ar    1  LIG1        0.2067
      4 C           1.4634    3.9332   -0.1588 C.ar    1  LIG1        0.1994
      5 O           0.4527    3.0895   -0.5629 O.2     1  LIG1       -0.4538
      6 H           0.3141    1.0411   -0.9722 H       1  LIG1        0.1069
      7 O           3.1746    0.8096   -0.3067 O.3     1  LIG1       -0.5012
      8 H           4.0302    1.1544   -0.0125 H       1  LIG1        0.2924
      9 O           3.8692    3.5705    0.3777 O.3     1  LIG1       -0.5008
     10 H           3.8712    4.5295    0.5718 H       1  LIG1        0.2924
     11 C           1.1416    5.3162    0.0202 C.ar    1  LIG1        0.1286
     12 C           1.9434    6.4031    0.3773 C.ar    1  LIG1        0.1488
     13 C           1.1657    7.5766    0.4314 C.ar    1  LIG1        0.0200
     14 C          -0.1361    7.1856    0.0734 C.ar    1  LIG1        0.0905
     15 N          -0.1196    5.8172   -0.1465 N.ar    1  LIG1       -0.3461
     16 H          -0.9178    5.2665   -0.4213 H       1  LIG1        0.1662
     17 O           3.2864    6.2792    0.7022 O.3     1  LIG1       -0.5043
     18 H           3.7883    6.9728    0.2531 H       1  LIG1        0.2922
     19 C           1.6664    8.9200    0.8690 C.3     1  LIG1       -0.0341
     20 H           0.9399    9.4280    1.5087 H       1  LIG1        0.0279
     21 H           1.8741    9.5930    0.0306 H       1  LIG1        0.0279
     22 H           2.5877    8.8018    1.4483 H       1  LIG1        0.0279
     23 C          -1.3659    7.9012   -0.0414 C.ar    1  LIG1        0.1713
     24 C          -1.7206    9.2355   -0.2241 C.ar    1  LIG1        0.1201
     25 C          -3.1599    9.2825   -0.2724 C.ar    1  LIG1        0.0893
     26 C          -3.6057    7.9839   -0.1341 C.ar    1  LIG1        0.1593
     27 O          -2.4965    7.1520    0.0036 O.2     1  LIG1       -0.4501
     28 N          -0.2867   11.3197   -0.7163 N.1     1  LIG1       -0.1907
     29 C          -0.8974   10.3553   -0.4762 C.1     1  LIG1        0.1049
     30 N          -3.8966   10.4461   -0.4146 N.pl3   1  LIG1       -0.3540
     31 H          -3.3635   11.2298   -0.7716 H       1  LIG1        0.1425
     32 H          -4.7806   10.3389   -0.8952 H       1  LIG1        0.1425
     33 C          -5.2617    6.0770   -0.4556 C.ar    1  LIG1        0.0497
     34 C          -4.9362    7.4112   -0.0749 C.ar    1  LIG1        0.0413
     35 C          -5.9954    8.2051    0.3866 C.ar    1  LIG1       -0.0318
     36 C          -7.3123    7.7277    0.4277 C.ar    1  LIG1        0.0513
     37 C          -7.5423    6.4008   -0.0183 C.ar    1  LIG1        0.0881
     38 N          -6.5156    5.6293   -0.4171 N.ar    1  LIG1       -0.2499
     39 H          -5.7981    9.2028    0.7634 H       1  LIG1        0.0638
     40 C          -4.2368    5.0826   -0.9411 C.3     1  LIG1       -0.0216
     41 H          -3.5788    4.7619   -0.1261 H       1  LIG1        0.0293
     42 H          -3.6019    5.5100   -1.7236 H       1  LIG1        0.0293
     43 H          -4.7573    4.2090   -1.3342 H       1  LIG1        0.0293
     44 C          -8.3178    8.5840    0.9734 C.1     1  LIG1       -0.0675
     45 C          -9.1136    9.3585    1.4555 C.1     1  LIG1       -0.1138
     46 H          -9.8273   10.0215    1.8878 H       1  LIG1        0.1232
     47 C          -8.9558    4.3495    0.0898 C.ar    1  LIG1        0.0375
     48 C          -8.8702    5.7473   -0.0693 C.ar    1  LIG1        0.0197
     49 C         -10.0762    6.4217   -0.3029 C.ar    1  LIG1       -0.0491
     50 C         -11.2662    5.7058   -0.3608 C.ar    1  LIG1       -0.0350
     51 C         -11.2432    4.3144   -0.1897 C.ar    1  LIG1        0.0725
     52 N         -10.0881    3.6564    0.0393 N.ar    1  LIG1       -0.2543
     53 H         -10.0886    7.4946   -0.4476 H       1  LIG1        0.0625
     54 H          -8.0455    3.7842    0.2652 H       1  LIG1        0.0836
     55 H         -12.1974    6.2339   -0.5326 H       1  LIG1        0.0639
     56 C         -12.4243    2.1328    0.1509 C.ar    1  LIG1        0.0375
     57 C         -12.4643    3.4801   -0.2408 C.ar    1  LIG1        0.0197
     58 C         -13.7036    3.9360   -0.6941 C.ar    1  LIG1       -0.0316
     59 C         -14.8273    3.1004   -0.7126 C.ar    1  LIG1        0.0785
     60 C         -14.7163    1.7565   -0.2358 C.ar    1  LIG1        0.0934
     61 N         -13.4847    1.3341    0.1555 N.ar    1  LIG1       -0.2529
     62 H         -13.8215    4.9454   -1.0723 H       1  LIG1        0.0638
     63 H         -11.4821    1.7018    0.4731 H       1  LIG1        0.0836
     64 N         -16.9201    4.2230   -1.7561 N.1     1  LIG1       -0.1908
     65 C         -16.0102    3.6778   -1.2759 C.1     1  LIG1        0.1013
     66 C         -15.5260   -0.6212    0.1125 C.ar    1  LIG1        0.2224
     67 C         -15.7970    0.7734   -0.1404 C.ar    1  LIG1        0.0630
     68 C         -17.1626    1.1071   -0.2702 C.ar    1  LIG1       -0.0453
     69 C         -18.1531    0.1478   -0.2107 C.ar    1  LIG1       -0.0333
     70 C         -17.7662   -1.1933   -0.0228 C.ar    1  LIG1        0.0946
     71 N         -16.4781   -1.5482    0.1436 N.ar    1  LIG1       -0.2109
     72 H         -17.4585    2.1381   -0.4066 H       1  LIG1        0.0626
     73 O         -14.2973   -1.0829    0.3298 O.3     1  LIG1       -0.4919
     74 H         -13.6959   -0.2824    0.3508 H       1  LIG1        0.2937
     75 H         -19.2005    0.4062   -0.2968 H       1  LIG1        0.0640
     76 C         -18.7130   -2.2863    0.0222 C.ar    1  LIG1        0.1110
     77 C         -20.1009   -2.3719   -0.1291 C.ar    1  LIG1        0.1884
     78 C         -20.4637   -3.7376    0.0279 C.ar    1  LIG1        0.1795
     79 C         -19.2973   -4.4519    0.2656 C.ar    1  LIG1        0.0482
     80 N         -18.2623   -3.5673    0.2591 N.ar    1  LIG1       -0.3534
     81 H         -17.2770   -3.7457    0.3949 H       1  LIG1        0.1656
     82 H         -19.1580   -5.5095    0.4286 H       1  LIG1        0.0845
     83 O         -20.9434   -1.3153   -0.3461 O.3     1  LIG1       -0.4895
     84 C         -21.6975   -1.4047   -1.5647 C.3     1  LIG1        0.0791
     85 H         -22.3566   -0.5348   -1.5809 H       1  LIG1        0.0660
     86 H         -21.0309   -1.3760   -2.4347 H       1  LIG1        0.0660
     87 H         -22.2910   -2.3235   -1.5950 H       1  LIG1        0.0660
     88 O         -21.7223   -4.2740   -0.0727 O.3     1  LIG1       -0.4900
     89 C         -22.5887   -3.9162    1.0097 C.3     1  LIG1        0.0790
     90 H         -23.5544   -4.3813    0.8003 H       1  LIG1        0.0660
     91 H         -22.2002   -4.2945    1.9635 H       1  LIG1        0.0660
     92 H         -22.7115   -2.8296    1.0802 H       1  LIG1        0.0660
@<TRIPOS>BOND
     1    86    84    1
     2    64    65    3
     3    42    40    1
     4    87    84    1
     5    85    84    1
     6    84    83    1
     7    43    40    1
     8    65    59    1
     9    62    58    1
    10     6     1    1
    11    40    33    1
    12    40    41    1
    13    32    30    1
    14    31    30    1
    15    28    29    3
    16    59    58   ar
    17    59    60   ar
    18    58    57   ar
    19     1     5   ar
    20     1     2   ar
    21     5     4   ar
    22    55    50    1
    23    29    24    1
    24    33    38   ar
    25    33    34   ar
    26    53    49    1
    27    16    15    1
    28    38    37   ar
    29    30    25    1
    30    72    68    1
    31    50    49   ar
    32    50    51   ar
    33    83    77    1
    34     2     7    1
    35     2     3   ar
    36     7     8    1
    37    49    48   ar
    38    75    69    1
    39    25    24   ar
    40    25    26   ar
    41    68    69   ar
    42    68    67   ar
    43    57    51    1
    44    57    56   ar
    45    60    67    1
    46    60    61   ar
    47    24    23   ar
    48    69    70   ar
    49    51    52   ar
    50     4     3   ar
    51     4    11    1
    52    15    11   ar
    53    15    14   ar
    54    67    66   ar
    55    26    34    1
    56    26    27   ar
    57    77    76   ar
    58    77    78   ar
    59    34    35   ar
    60    88    78    1
    61    88    89    1
    62    48    37    1
    63    48    47   ar
    64    23    27   ar
    65    23    14    1
    66    70    76    1
    67    70    71   ar
    68    37    36   ar
    69     3     9    1
    70    11    12   ar
    71    76    80   ar
    72    78    79   ar
    73    21    19    1
    74    52    47   ar
    75    14    13   ar
    76    47    54    1
    77    66    71   ar
    78    66    73    1
    79    56    61   ar
    80    56    63    1
    81    18    17    1
    82    80    79   ar
    83    80    81    1
    84    79    82    1
    85    73    74    1
    86    12    13   ar
    87    12    17    1
    88     9    10    1
    89    35    36   ar
    90    35    39    1
    91    36    44    1
    92    13    19    1
    93    90    89    1
    94    19    22    1
    95    19    20    1
    96    44    45    3
    97    89    92    1
    98    89    91    1
    99    45    46    1
