@<TRIPOS>MOLECULE
mol_data/opt/b3lyp/geoms/mol2/12ff6dh6lf-4hd-.out
 50 53 0 0 0
SMALL
GASTEIGER

@<TRIPOS>ATOM
      1 C           0.2729    1.4771    0.2349 C.ar    1  LIG1        0.1377
      2 C           1.6351    1.5785    0.2278 C.ar    1  LIG1        0.1976
      3 C           1.9269    2.9733    0.1669 C.ar    1  LIG1        0.2052
      4 C           0.7243    3.6448    0.1377 C.ar    1  LIG1        0.1826
      5 O          -0.2851    2.7221    0.1888 O.2     1  LIG1       -0.4553
      6 H          -0.4061    0.6423    0.2740 H       1  LIG1        0.1069
      7 O           2.5439    0.5716    0.2753 O.3     1  LIG1       -0.5012
      8 H           3.4224    0.9767    0.3158 H       1  LIG1        0.2924
      9 O           3.2169    3.4348    0.1542 O.3     1  LIG1       -0.5008
     10 H           3.2623    4.2676    0.6447 H       1  LIG1        0.2924
     11 C          -0.7848    5.6382    0.5791 C.ar    1  LIG1        0.1516
     12 C           0.4089    5.0589    0.0752 C.ar    1  LIG1        0.0586
     13 C           1.3305    5.9396   -0.5085 C.ar    1  LIG1       -0.0254
     14 C           1.0803    7.3135   -0.5762 C.ar    1  LIG1        0.0518
     15 C          -0.1495    7.7846   -0.0344 C.ar    1  LIG1        0.0982
     16 N          -1.0335    6.9525    0.5089 N.ar    1  LIG1       -0.2336
     17 H           2.2346    5.5422   -0.9609 H       1  LIG1        0.0644
     18 N          -2.6444    4.2781    1.7898 N.1     1  LIG1       -0.1893
     19 C          -1.8071    4.8649    1.2359 C.1     1  LIG1        0.1198
     20 N           2.0087    8.1736   -1.1331 N.pl3   1  LIG1       -0.3563
     21 H           2.6690    7.7615   -1.7771 H       1  LIG1        0.1424
     22 H           1.6581    9.0733   -1.4299 H       1  LIG1        0.1424
     23 C          -1.7274    9.7049   -0.5988 C.ar    1  LIG1        0.2247
     24 C          -0.5058    9.2310   -0.0434 C.ar    1  LIG1        0.0671
     25 C           0.3141   10.1920    0.5307 C.ar    1  LIG1       -0.0037
     26 C          -0.0649   11.5456    0.5926 C.ar    1  LIG1        0.1436
     27 C          -1.3116   11.9018    0.0426 C.ar    1  LIG1        0.1179
     28 N          -2.1005   10.9682   -0.5436 N.ar    1  LIG1       -0.2086
     29 H           1.2581    9.9136    0.9883 H       1  LIG1        0.0663
     30 O          -2.5082    8.8040   -1.2296 O.3     1  LIG1       -0.4792
     31 C          -3.7699    9.2588   -1.7237 C.3     1  LIG1        0.0804
     32 H          -4.2264    8.3856   -2.1903 H       1  LIG1        0.0660
     33 H          -4.4024    9.6233   -0.9093 H       1  LIG1        0.0660
     34 H          -3.6440   10.0624   -2.4551 H       1  LIG1        0.0660
     35 O           0.7791   12.3835    1.2471 O.3     1  LIG1       -0.5046
     36 H           0.6974   13.2904    0.8712 H       1  LIG1        0.2922
     37 C          -1.2182   14.4664   -0.0481 C.ar    1  LIG1        0.0340
     38 C          -1.8580   15.6995    0.1396 C.ar    1  LIG1       -0.0392
     39 C          -1.9227   13.2580    0.1515 C.ar    1  LIG1        0.0259
     40 C          -3.1983   15.7607    0.4869 C.ar    1  LIG1       -0.0426
     41 H          -1.2968   16.6182   -0.0097 H       1  LIG1        0.0636
     42 C          -3.2867   13.3381    0.4590 C.ar    1  LIG1       -0.0333
     43 C          -3.9294   14.5692    0.6331 C.ar    1  LIG1        0.0525
     44 H          -3.8419   12.4155    0.5761 H       1  LIG1        0.0637
     45 H          -3.6874   16.7183    0.6271 H       1  LIG1        0.0631
     46 N           0.1522   14.4290   -0.4052 N.pl3   1  LIG1       -0.3575
     47 H           0.3391   13.7984   -1.1807 H       1  LIG1        0.1423
     48 H           0.5360   15.3452   -0.6080 H       1  LIG1        0.1423
     49 N          -6.4545   14.6615    1.2312 N.1     1  LIG1       -0.1909
     50 C          -5.3227   14.6155    0.9653 C.1     1  LIG1        0.0992
@<TRIPOS>BOND
     1    34    31    1
     2    32    31    1
     3    21    20    1
     4    31    30    1
     5    31    33    1
     6    22    20    1
     7    30    23    1
     8    47    46    1
     9    20    14    1
    10    17    13    1
    11    48    46    1
    12    23    28   ar
    13    23    24   ar
    14    14    13   ar
    15    14    15   ar
    16    28    27   ar
    17    13    12   ar
    18    46    37    1
    19    37    38   ar
    20    37    39   ar
    21    24    15    1
    22    24    25   ar
    23    15    16   ar
    24    41    38    1
    25    27    39    1
    26    27    26   ar
    27    12     4    1
    28    12    11   ar
    29     4     3   ar
    30     4     5   ar
    31    38    40   ar
    32    39    42   ar
    33     9     3    1
    34     9    10    1
    35     3     2   ar
    36     5     1   ar
    37     2     1   ar
    38     2     7    1
    39     1     6    1
    40     7     8    1
    41    42    44    1
    42    42    43   ar
    43    40    45    1
    44    40    43   ar
    45    16    11   ar
    46    25    26   ar
    47    25    29    1
    48    11    19    1
    49    26    35    1
    50    43    50    1
    51    36    35    1
    52    50    49    3
    53    19    18    3
