@<TRIPOS>MOLECULE
mol_data/opt/b3lyp/geoms/mol2/12fg12fg-12fg12fg-.out
 38 41 0 0 0
SMALL
GASTEIGER

@<TRIPOS>ATOM
      1 C           0.2481    1.7494    0.0000 C.ar    1  LIG1        0.1352
      2 C           1.6102    1.7286   -0.0000 C.ar    1  LIG1        0.1686
      3 C           2.0536    3.0948   -0.0000 C.ar    1  LIG1        0.0954
      4 C           0.9038    3.8641   -0.0001 C.ar    1  LIG1        0.1901
      5 O          -0.1919    3.0417   -0.0000 O.2     1  LIG1       -0.4548
      6 H          -0.5013    0.9763    0.0000 H       1  LIG1        0.1068
      7 O           2.3797    0.6069    0.0000 O.3     1  LIG1       -0.5029
      8 H           3.3132    0.8565    0.0001 H       1  LIG1        0.2923
      9 S           3.7839    3.4741   -0.0001 S.3     1  LIG1       -0.1354
     10 H           3.6651    4.8165   -0.0000 H       1  LIG1        0.1073
     11 C           0.6006    5.2711   -0.0001 C.ar    1  LIG1        0.2141
     12 C           1.3240    6.4442   -0.0001 C.ar    1  LIG1        0.1800
     13 C           0.4019    7.5322   -0.0001 C.ar    1  LIG1        0.0962
     14 C          -0.8579    6.9594   -0.0002 C.ar    1  LIG1        0.1912
     15 O          -0.7316    5.5966   -0.0001 O.2     1  LIG1       -0.4435
     16 O           2.6866    6.5424   -0.0000 O.3     1  LIG1       -0.5024
     17 H           2.9522    7.4720    0.0000 H       1  LIG1        0.2923
     18 S           0.9885    9.2044   -0.0002 S.3     1  LIG1       -0.1353
     19 H          -0.2181    9.8056   -0.0001 H       1  LIG1        0.1073
     20 C          -2.2106    7.4408   -0.0002 C.ar    1  LIG1        0.2142
     21 C          -2.8265    8.6747   -0.0002 C.ar    1  LIG1        0.1800
     22 C          -4.2370    8.4640   -0.0002 C.ar    1  LIG1        0.0962
     23 C          -4.4132    7.0923   -0.0003 C.ar    1  LIG1        0.1912
     24 O          -3.1898    6.4807   -0.0002 O.2     1  LIG1       -0.4435
     25 O          -2.1907    9.8833   -0.0001 O.3     1  LIG1       -0.5024
     26 H          -2.8386   10.6010   -0.0001 H       1  LIG1        0.2923
     27 S          -5.3487    9.8446   -0.0003 S.3     1  LIG1       -0.1353
     28 H          -6.4960    9.1374   -0.0002 H       1  LIG1        0.1073
     29 C          -5.5355    6.1916   -0.0003 C.ar    1  LIG1        0.2131
     30 C          -6.9094    6.3166   -0.0003 C.ar    1  LIG1        0.1792
     31 C          -7.4584    4.9946   -0.0004 C.ar    1  LIG1        0.0849
     32 C          -6.3868    4.1493   -0.0004 C.ar    1  LIG1        0.1096
     33 O          -5.2273    4.8532   -0.0004 O.2     1  LIG1       -0.4549
     34 H          -6.2952    3.0751   -0.0004 H       1  LIG1        0.1042
     35 O          -7.6034    7.4943   -0.0002 O.3     1  LIG1       -0.5024
     36 H          -8.5544    7.3257   -0.0002 H       1  LIG1        0.2923
     37 S          -9.2024    4.6634   -0.0004 S.3     1  LIG1       -0.1361
     38 H          -9.1076    3.3215   -0.0003 H       1  LIG1        0.1073
@<TRIPOS>BOND
     1    34    32    1
     2    37    31    1
     3    37    38    1
     4    32    31   ar
     5    32    33   ar
     6    31    30   ar
     7    33    29   ar
     8    30    29   ar
     9    30    35    1
    10    29    23    1
    11    27    22    1
    12    27    28    1
    13    23    22   ar
    14    23    24   ar
    15    35    36    1
    16    22    21   ar
    17    24    20   ar
    18    20    21   ar
    19    20    14    1
    20    21    25    1
    21    18    13    1
    22    18    19    1
    23    14    13   ar
    24    14    15   ar
    25    13    12   ar
    26    15    11   ar
    27    25    26    1
    28     9     3    1
    29     9    10    1
    30    11    12   ar
    31    11     4    1
    32    12    16    1
    33     4     3   ar
    34     4     5   ar
    35     3     2   ar
    36    16    17    1
    37     5     1   ar
    38     2     1   ar
    39     2     7    1
    40     1     6    1
    41     7     8    1
