@<TRIPOS>MOLECULE
mol_data/opt/b3lyp/geoms/mol2/12fg12fg12fg-12fg-.out
 38 41 0 0 0
SMALL
GASTEIGER

@<TRIPOS>ATOM
      1 C           1.0186    1.8909    1.4973 C.ar    1  LIG1        0.1352
      2 C           2.1111    1.8546    0.6818 C.ar    1  LIG1        0.1686
      3 C           2.1298    3.0953   -0.0422 C.ar    1  LIG1        0.0954
      4 C           1.0430    3.8157    0.4047 C.ar    1  LIG1        0.1901
      5 O           0.3694    3.0914    1.3434 O.2     1  LIG1       -0.4548
      6 H           0.5898    1.1932    2.1961 H       1  LIG1        0.1068
      7 O           2.9975    0.8382    0.5565 O.3     1  LIG1       -0.5029
      8 H           3.6969    1.1414   -0.0451 H       1  LIG1        0.2923
      9 S           3.2779    3.4328   -1.3467 S.3     1  LIG1       -0.1354
     10 H           3.8597    4.5299   -0.8172 H       1  LIG1        0.1073
     11 C           0.5808    5.1444    0.1194 C.ar    1  LIG1        0.2141
     12 C           1.2302    6.3200   -0.1776 C.ar    1  LIG1        0.1800
     13 C           0.2290    7.3178   -0.3915 C.ar    1  LIG1        0.0962
     14 C          -0.9832    6.6965   -0.1694 C.ar    1  LIG1        0.1912
     15 O          -0.7785    5.3864    0.1430 O.2     1  LIG1       -0.4435
     16 O           2.5705    6.5103   -0.2301 O.3     1  LIG1       -0.5024
     17 H           2.7193    7.4587   -0.3826 H       1  LIG1        0.2923
     18 S           0.6085    8.9487   -0.9650 S.3     1  LIG1       -0.1353
     19 H           0.0887    9.6427    0.0692 H       1  LIG1        0.1073
     20 C          -2.3295    7.1878   -0.1432 C.ar    1  LIG1        0.2142
     21 C          -2.8849    8.3952    0.2155 C.ar    1  LIG1        0.1800
     22 C          -4.2959    8.2918    0.0105 C.ar    1  LIG1        0.0962
     23 C          -4.5245    7.0033   -0.4252 C.ar    1  LIG1        0.1912
     24 O          -3.3455    6.3299   -0.5159 O.2     1  LIG1       -0.4435
     25 O          -2.2271    9.4729    0.7040 O.3     1  LIG1       -0.5024
     26 H          -2.8973   10.1358    0.9417 H       1  LIG1        0.2923
     27 S          -5.3972    9.6654    0.1931 S.3     1  LIG1       -0.1353
     28 H          -6.1945    9.1439    1.1493 H       1  LIG1        0.1073
     29 C          -5.7323    6.2822   -0.7116 C.ar    1  LIG1        0.2131
     30 C          -6.9975    6.3120   -0.1752 C.ar    1  LIG1        0.1792
     31 C          -7.7748    5.3322   -0.8793 C.ar    1  LIG1        0.0849
     32 C          -6.9276    4.7717   -1.7943 C.ar    1  LIG1        0.1096
     33 O          -5.7002    5.3211   -1.7068 O.2     1  LIG1       -0.4549
     34 H          -7.0630    4.0016   -2.5377 H       1  LIG1        0.1042
     35 O          -7.4221    7.0749    0.8583 O.3     1  LIG1       -0.5024
     36 H          -8.3768    6.9207    0.9581 H       1  LIG1        0.2923
     37 S          -9.4980    5.0233   -0.6066 S.3     1  LIG1       -0.1361
     38 H          -9.3770    4.0699    0.3452 H       1  LIG1        0.1073
@<TRIPOS>BOND
     1    34    32    1
     2    32    33   ar
     3    32    31   ar
     4    33    29   ar
     5     9    10    1
     6     9     3    1
     7    18    13    1
     8    18    19    1
     9    31    37    1
    10    31    30   ar
    11    29    23    1
    12    29    30   ar
    13    37    38    1
    14    24    23   ar
    15    24    20   ar
    16    23    22   ar
    17    13    12   ar
    18    13    14   ar
    19    17    16    1
    20    16    12    1
    21    12    11   ar
    22    30    35    1
    23    14    20    1
    24    14    15   ar
    25    20    21   ar
    26     8     7    1
    27     3     4   ar
    28     3     2   ar
    29    22    27    1
    30    22    21   ar
    31    11    15   ar
    32    11     4    1
    33    27    28    1
    34    21    25    1
    35     4     5   ar
    36     7     2    1
    37     2     1   ar
    38    25    26    1
    39    35    36    1
    40     5     1   ar
    41     1     6    1
