@<TRIPOS>MOLECULE
mol_data/opt/b3lyp/geoms/mol2/12fg12fg12fg-12fg.out
 38 41 0 0 0
SMALL
GASTEIGER

@<TRIPOS>ATOM
      1 C           1.0186    1.8863    1.4821 C.ar    1  LIG1        0.1352
      2 C           2.1103    1.8516    0.6655 C.ar    1  LIG1        0.1686
      3 C           2.1290    3.0942   -0.0552 C.ar    1  LIG1        0.0954
      4 C           1.0432    3.8141    0.3947 C.ar    1  LIG1        0.1901
      5 O           0.3700    3.0876    1.3321 O.2     1  LIG1       -0.4548
      6 H           0.5900    1.1870    2.1795 H       1  LIG1        0.1068
      7 O           2.9960    0.8349    0.5365 O.3     1  LIG1       -0.5029
      8 H           3.6951    1.1395   -0.0647 H       1  LIG1        0.2923
      9 S           3.2762    3.4344   -1.3599 S.3     1  LIG1       -0.1354
     10 H           3.8602    4.5289   -0.8274 H       1  LIG1        0.1073
     11 C           0.5811    5.1437    0.1135 C.ar    1  LIG1        0.2141
     12 C           1.2304    6.3200   -0.1815 C.ar    1  LIG1        0.1800
     13 C           0.2291    7.3186   -0.3908 C.ar    1  LIG1        0.0962
     14 C          -0.9829    6.6970   -0.1683 C.ar    1  LIG1        0.1912
     15 O          -0.7780    5.3860    0.1401 O.2     1  LIG1       -0.4435
     16 O           2.5706    6.5100   -0.2359 O.3     1  LIG1       -0.5024
     17 H           2.7195    7.4589   -0.3854 H       1  LIG1        0.2923
     18 S           0.6081    8.9509   -0.9607 S.3     1  LIG1       -0.1353
     19 H           0.0890    9.6424    0.0756 H       1  LIG1        0.1073
     20 C          -2.3291    7.1885   -0.1383 C.ar    1  LIG1        0.2142
     21 C          -2.8837    8.3951    0.2242 C.ar    1  LIG1        0.1800
     22 C          -4.2951    8.2923    0.0217 C.ar    1  LIG1        0.0962
     23 C          -4.5247    7.0049   -0.4165 C.ar    1  LIG1        0.1912
     24 O          -3.3460    6.3316   -0.5109 O.2     1  LIG1       -0.4435
     25 O          -2.2249    9.4716    0.7139 O.3     1  LIG1       -0.5024
     26 H          -2.8946   10.1342    0.9543 H       1  LIG1        0.2923
     27 S          -5.3960    9.6655    0.2095 S.3     1  LIG1       -0.1353
     28 H          -6.1915    9.1420    1.1662 H       1  LIG1        0.1073
     29 C          -5.7331    6.2843   -0.7020 C.ar    1  LIG1        0.2131
     30 C          -6.9973    6.3131   -0.1632 C.ar    1  LIG1        0.1792
     31 C          -7.7759    5.3348   -0.8681 C.ar    1  LIG1        0.0849
     32 C          -6.9304    4.7762   -1.7857 C.ar    1  LIG1        0.1096
     33 O          -5.7028    5.3252   -1.6992 O.2     1  LIG1       -0.4549
     34 H          -7.0672    4.0076   -2.5304 H       1  LIG1        0.1042
     35 O          -7.4200    7.0738    0.8725 O.3     1  LIG1       -0.5024
     36 H          -8.3746    6.9199    0.9735 H       1  LIG1        0.2923
     37 S          -9.4987    5.0255   -0.5933 S.3     1  LIG1       -0.1361
     38 H          -9.3764    4.0712    0.3574 H       1  LIG1        0.1073
@<TRIPOS>BOND
     1    34    32    1
     2    32    33   ar
     3    32    31   ar
     4    33    29   ar
     5     9    10    1
     6     9     3    1
     7    18    13    1
     8    18    19    1
     9    31    37    1
    10    31    30   ar
    11    29    23    1
    12    29    30   ar
    13    37    38    1
    14    24    23   ar
    15    24    20   ar
    16    23    22   ar
    17    13    12   ar
    18    13    14   ar
    19    17    16    1
    20    16    12    1
    21    12    11   ar
    22    14    20    1
    23    14    15   ar
    24    30    35    1
    25    20    21   ar
    26     8     7    1
    27     3     4   ar
    28     3     2   ar
    29    22    27    1
    30    22    21   ar
    31    11    15   ar
    32    11     4    1
    33    27    28    1
    34    21    25    1
    35     4     5   ar
    36     7     2    1
    37     2     1   ar
    38    25    26    1
    39    35    36    1
    40     5     1   ar
    41     1     6    1
