@<TRIPOS>MOLECULE
mol_data/opt/b3lyp/geoms/mol2/12fg12fg-12fg.out
 29 31 0 0 0
SMALL
GASTEIGER

@<TRIPOS>ATOM
      1 C           0.1973    1.7330    0.0000 C.ar    1  LIG1        0.1352
      2 C           1.5595    1.7184   -0.0000 C.ar    1  LIG1        0.1686
      3 C           1.9966    3.0869   -0.0000 C.ar    1  LIG1        0.0954
      4 C           0.8436    3.8507   -0.0001 C.ar    1  LIG1        0.1901
      5 O          -0.2486    3.0235   -0.0000 O.2     1  LIG1       -0.4548
      6 H          -0.5486    0.9567    0.0000 H       1  LIG1        0.1068
      7 O           2.3339    0.6005    0.0000 O.3     1  LIG1       -0.5029
      8 H           3.2665    0.8538    0.0001 H       1  LIG1        0.2923
      9 S           3.7251    3.4741   -0.0001 S.3     1  LIG1       -0.1354
     10 H           3.6007    4.8159   -0.0000 H       1  LIG1        0.1073
     11 C           0.5340    5.2567   -0.0001 C.ar    1  LIG1        0.2141
     12 C           1.2509    6.4330   -0.0001 C.ar    1  LIG1        0.1800
     13 C           0.3217    7.5166   -0.0001 C.ar    1  LIG1        0.0962
     14 C          -0.9330    6.9372   -0.0002 C.ar    1  LIG1        0.1912
     15 O          -0.8000    5.5754   -0.0001 O.2     1  LIG1       -0.4435
     16 O           2.6127    6.5390   -0.0000 O.3     1  LIG1       -0.5024
     17 H           2.8741    7.4697    0.0001 H       1  LIG1        0.2923
     18 S           0.9005    9.1918   -0.0002 S.3     1  LIG1       -0.1353
     19 H          -0.3084    9.7874   -0.0001 H       1  LIG1        0.1073
     20 C          -2.2930    7.4092   -0.0002 C.ar    1  LIG1        0.2131
     21 C          -2.9163    8.6397   -0.0002 C.ar    1  LIG1        0.1792
     22 C          -4.3284    8.4034   -0.0003 C.ar    1  LIG1        0.0849
     23 C          -4.4765    7.0468   -0.0003 C.ar    1  LIG1        0.1096
     24 O          -3.2638    6.4375   -0.0003 O.2     1  LIG1       -0.4549
     25 H          -5.3383    6.3992   -0.0004 H       1  LIG1        0.1042
     26 O          -2.2866    9.8536   -0.0001 O.3     1  LIG1       -0.5024
     27 H          -2.9346   10.5697   -0.0000 H       1  LIG1        0.2923
     28 S          -5.5342    9.7061   -0.0003 S.3     1  LIG1       -0.1361
     29 H          -6.6220    8.9147   -0.0002 H       1  LIG1        0.1073
@<TRIPOS>BOND
     1    25    23    1
     2    23    24   ar
     3    23    22   ar
     4    28    22    1
     5    28    29    1
     6    24    20   ar
     7    22    21   ar
     8    20    21   ar
     9    20    14    1
    10    21    26    1
    11    14    15   ar
    12    14    13   ar
    13    18    13    1
    14    18    19    1
    15    15    11   ar
    16    13    12   ar
    17    26    27    1
    18     9     3    1
    19     9    10    1
    20    11    12   ar
    21    11     4    1
    22    12    16    1
    23     4     3   ar
    24     4     5   ar
    25     3     2   ar
    26     5     1   ar
    27     2     1   ar
    28     2     7    1
    29    16    17    1
    30     1     6    1
    31     7     8    1
