@<TRIPOS>MOLECULE
mol_data/opt/b3lyp/geoms/mol2/12fg12fg12fg12fg.out
 38 41 0 0 0
SMALL
GASTEIGER

@<TRIPOS>ATOM
      1 C           1.0293    1.8959    1.4964 C.ar    1  LIG1        0.1352
      2 C           2.1153    1.8559    0.6725 C.ar    1  LIG1        0.1686
      3 C           2.1289    3.0938   -0.0564 C.ar    1  LIG1        0.0954
      4 C           1.0462    3.8166    0.3964 C.ar    1  LIG1        0.1901
      5 O           0.3796    3.0962    1.3431 O.2     1  LIG1       -0.4548
      6 H           0.6056    1.2012    2.2013 H       1  LIG1        0.1068
      7 O           3.0000    0.8384    0.5439 O.3     1  LIG1       -0.5029
      8 H           3.6950    1.1392   -0.0641 H       1  LIG1        0.2923
      9 S           3.2670    3.4254   -1.3713 S.3     1  LIG1       -0.1354
     10 H           3.8554    4.5228   -0.8497 H       1  LIG1        0.1073
     11 C           0.5821    5.1443    0.1098 C.ar    1  LIG1        0.2141
     12 C           1.2291    6.3186   -0.1979 C.ar    1  LIG1        0.1800
     13 C           0.2262    7.3158   -0.4066 C.ar    1  LIG1        0.0962
     14 C          -0.9841    6.6958   -0.1708 C.ar    1  LIG1        0.1912
     15 O          -0.7768    5.3868    0.1449 O.2     1  LIG1       -0.4435
     16 O           2.5689    6.5083   -0.2634 O.3     1  LIG1       -0.5024
     17 H           2.7166    7.4561   -0.4205 H       1  LIG1        0.2923
     18 S           0.6009    8.9442   -0.9902 S.3     1  LIG1       -0.1353
     19 H           0.0876    9.6427    0.0443 H       1  LIG1        0.1073
     20 C          -2.3299    7.1876   -0.1340 C.ar    1  LIG1        0.2142
     21 C          -2.8817    8.3966    0.2249 C.ar    1  LIG1        0.1800
     22 C          -4.2945    8.2928    0.0335 C.ar    1  LIG1        0.0962
     23 C          -4.5276    7.0026   -0.3948 C.ar    1  LIG1        0.1912
     24 O          -3.3497    6.3285   -0.4937 O.2     1  LIG1       -0.4435
     25 O          -2.2191    9.4761    0.7029 O.3     1  LIG1       -0.5024
     26 H          -2.8868   10.1404    0.9436 H       1  LIG1        0.2923
     27 S          -5.3938    9.6675    0.2204 S.3     1  LIG1       -0.1353
     28 H          -6.1819    9.1507    1.1868 H       1  LIG1        0.1073
     29 C          -5.7382    6.2805   -0.6667 C.ar    1  LIG1        0.2131
     30 C          -6.9984    6.3131   -0.1188 C.ar    1  LIG1        0.1792
     31 C          -7.7823    5.3304   -0.8113 C.ar    1  LIG1        0.0849
     32 C          -6.9437    4.7655   -1.7316 C.ar    1  LIG1        0.1096
     33 O          -5.7154    5.3149   -1.6578 O.2     1  LIG1       -0.4549
     34 H          -7.0861    3.9920   -2.4701 H       1  LIG1        0.1042
     35 O          -7.4133    7.0807    0.9150 O.3     1  LIG1       -0.5024
     36 H          -8.3670    6.9273    1.0244 H       1  LIG1        0.2923
     37 S          -9.5030    5.0228   -0.5217 S.3     1  LIG1       -0.1361
     38 H          -9.3736    4.0748    0.4343 H       1  LIG1        0.1073
@<TRIPOS>BOND
     1    34    32    1
     2    32    33   ar
     3    32    31   ar
     4    33    29   ar
     5     9    10    1
     6     9     3    1
     7    18    13    1
     8    18    19    1
     9    31    37    1
    10    31    30   ar
    11    29    23    1
    12    29    30   ar
    13    37    38    1
    14    24    23   ar
    15    24    20   ar
    16    17    16    1
    17    13    12   ar
    18    13    14   ar
    19    23    22   ar
    20    16    12    1
    21    12    11   ar
    22    14    20    1
    23    14    15   ar
    24    20    21   ar
    25    30    35    1
    26     8     7    1
    27     3     4   ar
    28     3     2   ar
    29    22    27    1
    30    22    21   ar
    31    11    15   ar
    32    11     4    1
    33    27    28    1
    34    21    25    1
    35     4     5   ar
    36     7     2    1
    37     2     1   ar
    38    25    26    1
    39    35    36    1
    40     5     1   ar
    41     1     6    1
