@<TRIPOS>MOLECULE
mol_data/opt/b3lyp/geoms/mol2/12fg12fg12fg.out
 29 31 0 0 0
SMALL
GASTEIGER

@<TRIPOS>ATOM
      1 C           0.4980    1.7205    0.8820 C.ar    1  LIG1        0.1352
      2 C           1.7171    1.7593    0.2717 C.ar    1  LIG1        0.1686
      3 C           1.8901    3.0962   -0.2247 C.ar    1  LIG1        0.0954
      4 C           0.7570    3.7897    0.1416 C.ar    1  LIG1        0.1901
      5 O          -0.0881    2.9608    0.8184 O.2     1  LIG1       -0.4548
      6 H          -0.0626    0.9432    1.3725 H       1  LIG1        0.1068
      7 O           2.5898    0.7323    0.1365 O.3     1  LIG1       -0.5029
      8 H           3.3946    1.0915   -0.2711 H       1  LIG1        0.2923
      9 S           3.2599    3.5802   -1.2363 S.3     1  LIG1       -0.1354
     10 H           3.7456    4.5627   -0.4481 H       1  LIG1        0.1073
     11 C           0.3819    5.1688    0.0048 C.ar    1  LIG1        0.2141
     12 C           1.0983    6.3423    0.0283 C.ar    1  LIG1        0.1800
     13 C           0.1726    7.4108   -0.1894 C.ar    1  LIG1        0.0962
     14 C          -1.0704    6.8233   -0.2930 C.ar    1  LIG1        0.1912
     15 O          -0.9538    5.4722   -0.1726 O.2     1  LIG1       -0.4435
     16 O           2.4290    6.4705    0.2471 O.3     1  LIG1       -0.5024
     17 H           2.6249    7.4221    0.2776 H       1  LIG1        0.2923
     18 S           0.6767    9.0950   -0.3964 S.3     1  LIG1       -0.1353
     19 H           0.0111    9.6254    0.6514 H       1  LIG1        0.1073
     20 C          -2.3897    7.3745   -0.4257 C.ar    1  LIG1        0.2131
     21 C          -2.9845    8.5192    0.0485 C.ar    1  LIG1        0.1792
     22 C          -4.3418    8.5114   -0.4187 C.ar    1  LIG1        0.0849
     23 C          -4.4803    7.3603   -1.1432 C.ar    1  LIG1        0.1096
     24 O          -3.3269    6.6633   -1.1552 O.2     1  LIG1       -0.4549
     25 H          -5.3126    6.9321   -1.6797 H       1  LIG1        0.1042
     26 O          -2.4220    9.4525    0.8507 O.3     1  LIG1       -0.5024
     27 H          -3.0684   10.1710    0.9551 H       1  LIG1        0.2923
     28 S          -5.5175    9.8057   -0.1329 S.3     1  LIG1       -0.1361
     29 H          -6.0396    9.3439    1.0264 H       1  LIG1        0.1073
@<TRIPOS>BOND
     1    25    23    1
     2     9    10    1
     3     9     3    1
     4    24    23   ar
     5    24    20   ar
     6    23    22   ar
     7    20    14    1
     8    20    21   ar
     9    22    28    1
    10    22    21   ar
    11    18    13    1
    12    18    19    1
    13    14    13   ar
    14    14    15   ar
    15     8     7    1
    16     3     4   ar
    17     3     2   ar
    18    13    12   ar
    19    15    11   ar
    20    28    29    1
    21    11    12   ar
    22    11     4    1
    23    12    16    1
    24    21    26    1
    25     7     2    1
    26     4     5   ar
    27    16    17    1
    28     2     1   ar
    29     5     1   ar
    30    26    27    1
    31     1     6    1
