@<TRIPOS>MOLECULE
mol_data/opt/b3lyp/geoms/mol2/12fg12fg-12fg-.out
 29 31 0 0 0
SMALL
GASTEIGER

@<TRIPOS>ATOM
      1 C           0.5137    1.7199   -0.8764 C.ar    1  LIG1        0.1352
      2 C           1.7279    1.7631   -0.2567 C.ar    1  LIG1        0.1686
      3 C           1.8940    3.1018    0.2373 C.ar    1  LIG1        0.0954
      4 C           0.7622    3.7917   -0.1395 C.ar    1  LIG1        0.1901
      5 O          -0.0757    2.9590   -0.8206 O.2     1  LIG1       -0.4548
      6 H          -0.0414    0.9400   -1.3689 H       1  LIG1        0.1068
      7 O           2.6017    0.7384   -0.1117 O.3     1  LIG1       -0.5029
      8 H           3.4027    1.1007    0.3006 H       1  LIG1        0.2923
      9 S           3.2545    3.5910    1.2591 S.3     1  LIG1       -0.1354
     10 H           3.7454    4.5719    0.4723 H       1  LIG1        0.1073
     11 C           0.3832    5.1704   -0.0099 C.ar    1  LIG1        0.2141
     12 C           1.0975    6.3453   -0.0299 C.ar    1  LIG1        0.1800
     13 C           0.1679    7.4124    0.1775 C.ar    1  LIG1        0.0962
     14 C          -1.0749    6.8228    0.2718 C.ar    1  LIG1        0.1912
     15 O          -0.9546    5.4715    0.1557 O.2     1  LIG1       -0.4435
     16 O           2.4297    6.4757   -0.2377 O.3     1  LIG1       -0.5024
     17 H           2.6237    7.4276   -0.2702 H       1  LIG1        0.2923
     18 S           0.6666    9.0982    0.3845 S.3     1  LIG1       -0.1353
     19 H           0.0079    9.6245   -0.6698 H       1  LIG1        0.1073
     20 C          -2.3962    7.3718    0.3921 C.ar    1  LIG1        0.2131
     21 C          -2.9890    8.5141   -0.0901 C.ar    1  LIG1        0.1792
     22 C          -4.3500    8.5054    0.3660 C.ar    1  LIG1        0.0849
     23 C          -4.4924    7.3561    1.0927 C.ar    1  LIG1        0.1096
     24 O          -3.3380    6.6611    1.1161 O.2     1  LIG1       -0.4549
     25 H          -5.3283    6.9279    1.6237 H       1  LIG1        0.1042
     26 O          -2.4216    9.4460   -0.8906 O.3     1  LIG1       -0.5024
     27 H          -3.0682   10.1632   -1.0018 H       1  LIG1        0.2923
     28 S          -5.5253    9.7971    0.0673 S.3     1  LIG1       -0.1361
     29 H          -6.0381    9.3311   -1.0944 H       1  LIG1        0.1073
@<TRIPOS>BOND
     1     6     1    1
     2    29    28    1
     3    27    26    1
     4    26    21    1
     5     1     5   ar
     6     1     2   ar
     7     5     4   ar
     8    19    18    1
     9    17    16    1
    10     2     7    1
    11     2     3   ar
    12    16    12    1
    13     4    11    1
    14     4     3   ar
    15     7     8    1
    16    21    22   ar
    17    21    20   ar
    18    12    11   ar
    19    12    13   ar
    20    11    15   ar
    21    28    22    1
    22    15    14   ar
    23    13    14   ar
    24    13    18    1
    25     3     9    1
    26    14    20    1
    27    22    23   ar
    28    20    24   ar
    29    10     9    1
    30    23    24   ar
    31    23    25    1
