@<TRIPOS>MOLECULE
mol_data/opt/b3lyp/geoms/mol2/12fg12fg12fg12fg-.out
 38 41 0 0 0
SMALL
GASTEIGER

@<TRIPOS>ATOM
      1 C           1.0307    1.9015    1.5051 C.ar    1  LIG1        0.1352
      2 C           2.1166    1.8593    0.6812 C.ar    1  LIG1        0.1686
      3 C           2.1300    3.0951   -0.0513 C.ar    1  LIG1        0.0954
      4 C           1.0471    3.8190    0.3995 C.ar    1  LIG1        0.1901
      5 O           0.3808    3.1013    1.3484 O.2     1  LIG1       -0.4548
      6 H           0.6072    1.2087    2.2120 H       1  LIG1        0.1068
      7 O           3.0016    0.8416    0.5553 O.3     1  LIG1       -0.5029
      8 H           3.6954    1.1403   -0.0550 H       1  LIG1        0.2923
      9 S           3.2675    3.4231   -1.3675 S.3     1  LIG1       -0.1354
     10 H           3.8597    4.5190   -0.8471 H       1  LIG1        0.1073
     11 C           0.5825    5.1458    0.1092 C.ar    1  LIG1        0.2141
     12 C           1.2289    6.3194   -0.2023 C.ar    1  LIG1        0.1800
     13 C           0.2255    7.3156   -0.4133 C.ar    1  LIG1        0.0962
     14 C          -0.9844    6.6957   -0.1752 C.ar    1  LIG1        0.1912
     15 O          -0.7765    5.3878    0.1442 O.2     1  LIG1       -0.4435
     16 O           2.5685    6.5095   -0.2688 O.3     1  LIG1       -0.5024
     17 H           2.7157    7.4569   -0.4295 H       1  LIG1        0.2923
     18 S           0.5989    8.9425   -1.0019 S.3     1  LIG1       -0.1353
     19 H           0.0864    9.6437    0.0312 H       1  LIG1        0.1073
     20 C          -2.3305    7.1872   -0.1395 C.ar    1  LIG1        0.2142
     21 C          -2.8825    8.3968    0.2165 C.ar    1  LIG1        0.1800
     22 C          -4.2954    8.2922    0.0257 C.ar    1  LIG1        0.0962
     23 C          -4.5281    7.0008   -0.3992 C.ar    1  LIG1        0.1912
     24 O          -3.3501    6.3268   -0.4966 O.2     1  LIG1       -0.4435
     25 O          -2.2201    9.4778    0.6914 O.3     1  LIG1       -0.5024
     26 H          -2.8881   10.1428    0.9298 H       1  LIG1        0.2923
     27 S          -5.3950    9.6671    0.2090 S.3     1  LIG1       -0.1353
     28 H          -6.1815    9.1537    1.1786 H       1  LIG1        0.1073
     29 C          -5.7387    6.2778   -0.6687 C.ar    1  LIG1        0.2131
     30 C          -6.9986    6.3117   -0.1202 C.ar    1  LIG1        0.1792
     31 C          -7.7828    5.3270   -0.8097 C.ar    1  LIG1        0.0849
     32 C          -6.9445    4.7597   -1.7288 C.ar    1  LIG1        0.1096
     33 O          -5.7163    5.3095   -1.6572 O.2     1  LIG1       -0.4549
     34 H          -7.0873    3.9843   -2.4653 H       1  LIG1        0.1042
     35 O          -7.4130    7.0819    0.9119 O.3     1  LIG1       -0.5024
     36 H          -8.3666    6.9282    1.0225 H       1  LIG1        0.2923
     37 S          -9.5031    5.0198   -0.5182 S.3     1  LIG1       -0.1361
     38 H          -9.3729    4.0727    0.4386 H       1  LIG1        0.1073
@<TRIPOS>BOND
     1    34    32    1
     2    32    33   ar
     3    32    31   ar
     4    33    29   ar
     5     9    10    1
     6     9     3    1
     7    18    13    1
     8    18    19    1
     9    31    37    1
    10    31    30   ar
    11    29    23    1
    12    29    30   ar
    13    37    38    1
    14    24    23   ar
    15    24    20   ar
    16    17    16    1
    17    13    12   ar
    18    13    14   ar
    19    23    22   ar
    20    16    12    1
    21    12    11   ar
    22    14    20    1
    23    14    15   ar
    24    20    21   ar
    25    30    35    1
    26     8     7    1
    27     3     4   ar
    28     3     2   ar
    29    22    27    1
    30    22    21   ar
    31    11    15   ar
    32    11     4    1
    33    27    28    1
    34    21    25    1
    35     4     5   ar
    36     7     2    1
    37     2     1   ar
    38    25    26    1
    39    35    36    1
    40     5     1   ar
    41     1     6    1
