@<TRIPOS>MOLECULE
mol_data/opt/b3lyp/geoms/mol2/12fg12fg-.out
 20 21 0 0 0
SMALL
GASTEIGER

@<TRIPOS>ATOM
      1 C           0.1368    1.7701    0.0000 C.ar    1  LIG1        0.1352
      2 C           1.4986    1.7655    0.0000 C.ar    1  LIG1        0.1686
      3 C           1.9257    3.1380   -0.0000 C.ar    1  LIG1        0.0954
      4 C           0.7682    3.8921   -0.0001 C.ar    1  LIG1        0.1901
      5 O          -0.3181    3.0579   -0.0002 O.2     1  LIG1       -0.4548
      6 H          -0.6039    0.9892    0.0001 H       1  LIG1        0.1068
      7 O           2.2811    0.6536    0.0000 O.3     1  LIG1       -0.5029
      8 H           3.2119    0.9132    0.0001 H       1  LIG1        0.2923
      9 S           3.6526    3.5364    0.0000 S.3     1  LIG1       -0.1354
     10 H           3.5205    4.8771    0.0001 H       1  LIG1        0.1073
     11 C           0.4452    5.2989   -0.0001 C.ar    1  LIG1        0.2131
     12 C           1.1534    6.4809   -0.0001 C.ar    1  LIG1        0.1792
     13 C           0.2002    7.5506   -0.0002 C.ar    1  LIG1        0.0849
     14 C          -1.0263    6.9539   -0.0002 C.ar    1  LIG1        0.1096
     15 O          -0.8950    5.6026   -0.0003 O.2     1  LIG1       -0.4549
     16 H          -2.0337    7.3382   -0.0002 H       1  LIG1        0.1042
     17 O           2.5160    6.5967    0.0000 O.3     1  LIG1       -0.5024
     18 H           2.7750    7.5270    0.0001 H       1  LIG1        0.2923
     19 S           0.6601    9.2655   -0.0002 S.3     1  LIG1       -0.1361
     20 H          -0.5892    9.7644   -0.0001 H       1  LIG1        0.1073
@<TRIPOS>BOND
     1    15    14   ar
     2    15    11   ar
     3     5     4   ar
     4     5     1   ar
     5    16    14    1
     6    14    13   ar
     7    19    13    1
     8    19    20    1
     9    13    12   ar
    10    11     4    1
    11    11    12   ar
    12     4     3   ar
    13    12    17    1
    14     3     2   ar
    15     3     9    1
    16     2     1   ar
    17     2     7    1
    18    17    18    1
    19     1     6    1
    20     9    10    1
    21     7     8    1
