@<TRIPOS>MOLECULE
mol_data/opt/b3lyp/geoms/mol2/12fg12fg-12fg-12fg.out
 38 41 0 0 0
SMALL
GASTEIGER

@<TRIPOS>ATOM
      1 C           1.0323    1.8867    1.4847 C.ar    1  LIG1        0.1352
      2 C           2.1169    1.8522    0.6586 C.ar    1  LIG1        0.1686
      3 C           2.1291    3.0949   -0.0621 C.ar    1  LIG1        0.0954
      4 C           1.0472    3.8146    0.3975 C.ar    1  LIG1        0.1901
      5 O           0.3823    3.0879    1.3405 O.2     1  LIG1       -0.4548
      6 H           0.6100    1.1872    2.1858 H       1  LIG1        0.1068
      7 O           3.0015    0.8356    0.5218 O.3     1  LIG1       -0.5029
      8 H           3.6953    1.1404   -0.0854 H       1  LIG1        0.2923
      9 S           3.2649    3.4355   -1.3768 S.3     1  LIG1       -0.1354
     10 H           3.8542    4.5293   -0.8488 H       1  LIG1        0.1073
     11 C           0.5822    5.1441    0.1204 C.ar    1  LIG1        0.2141
     12 C           1.2285    6.3205   -0.1806 C.ar    1  LIG1        0.1800
     13 C           0.2252    7.3188   -0.3810 C.ar    1  LIG1        0.0962
     14 C          -0.9846    6.6970   -0.1473 C.ar    1  LIG1        0.1912
     15 O          -0.7766    5.3861    0.1594 O.2     1  LIG1       -0.4435
     16 O           2.5682    6.5109   -0.2469 O.3     1  LIG1       -0.5024
     17 H           2.7154    7.4598   -0.3983 H       1  LIG1        0.2923
     18 S           0.5986    8.9512   -0.9547 S.3     1  LIG1       -0.1353
     19 H           0.0876    9.6428    0.0855 H       1  LIG1        0.1073
     20 C          -2.3306    7.1883   -0.1052 C.ar    1  LIG1        0.2142
     21 C          -2.8820    8.3949    0.2621 C.ar    1  LIG1        0.1800
     22 C          -4.2951    8.2919    0.0723 C.ar    1  LIG1        0.0962
     23 C          -4.5285    7.0043   -0.3634 C.ar    1  LIG1        0.1912
     24 O          -3.3506    6.3311   -0.4683 O.2     1  LIG1       -0.4435
     25 O          -2.2189    9.4716    0.7457 O.3     1  LIG1       -0.5024
     26 H          -2.8865   10.1341    0.9918 H       1  LIG1        0.2923
     27 S          -5.3944    9.6651    0.2695 S.3     1  LIG1       -0.1353
     28 H          -6.1813    9.1418    1.2334 H       1  LIG1        0.1073
     29 C          -5.7394    6.2838   -0.6381 C.ar    1  LIG1        0.2131
     30 C          -6.9985    6.3123   -0.0874 C.ar    1  LIG1        0.1792
     31 C          -7.7837    5.3342   -0.7851 C.ar    1  LIG1        0.0849
     32 C          -6.9467    4.7758   -1.7108 C.ar    1  LIG1        0.1096
     33 O          -5.7184    5.3249   -1.6357 O.2     1  LIG1       -0.4549
     34 H          -7.0904    4.0073   -2.4543 H       1  LIG1        0.1042
     35 O          -7.4115    7.0729    0.9525 O.3     1  LIG1       -0.5024
     36 H          -8.3650    6.9189    1.0624 H       1  LIG1        0.2923
     37 S          -9.5035    5.0245   -0.4944 S.3     1  LIG1       -0.1361
     38 H          -9.3723    4.0702    0.4552 H       1  LIG1        0.1073
@<TRIPOS>BOND
     1    34    32    1
     2    32    33   ar
     3    32    31   ar
     4    33    29   ar
     5     9    10    1
     6     9     3    1
     7    18    13    1
     8    18    19    1
     9    31    37    1
    10    31    30   ar
    11    29    23    1
    12    29    30   ar
    13    37    38    1
    14    24    23   ar
    15    24    20   ar
    16    17    16    1
    17    13    12   ar
    18    13    14   ar
    19    23    22   ar
    20    16    12    1
    21    12    11   ar
    22    14    20    1
    23    14    15   ar
    24    20    21   ar
    25    30    35    1
    26     8     7    1
    27     3     4   ar
    28     3     2   ar
    29    22    21   ar
    30    22    27    1
    31    11    15   ar
    32    11     4    1
    33    21    25    1
    34    27    28    1
    35     4     5   ar
    36     7     2    1
    37     2     1   ar
    38    25    26    1
    39    35    36    1
    40     5     1   ar
    41     1     6    1
