@<TRIPOS>MOLECULE
mol_data/opt/b3lyp/geoms/mol2/12fg12fg-12fg-12fg-.out
 38 41 0 0 0
SMALL
GASTEIGER

@<TRIPOS>ATOM
      1 C           0.8654    1.5629    0.0192 C.ar    1  LIG1        0.1352
      2 C           2.0909    1.8354    0.5512 C.ar    1  LIG1        0.1686
      3 C           2.1969    3.2656    0.6391 C.ar    1  LIG1        0.0954
      4 C           1.0196    3.7683    0.1281 C.ar    1  LIG1        0.1901
      5 O           0.2108    2.7398   -0.2536 O.2     1  LIG1       -0.4548
      6 H           0.3410    0.6514   -0.2112 H       1  LIG1        0.1068
      7 O           3.0238    0.9356    0.9450 O.3     1  LIG1       -0.5029
      8 H           3.8121    1.4376    1.2083 H       1  LIG1        0.2923
      9 S           3.5548    4.0867    1.4237 S.3     1  LIG1       -0.1354
     10 H           3.9852    4.8073    0.3662 H       1  LIG1        0.1073
     11 C           0.5649    5.1078   -0.1165 C.ar    1  LIG1        0.2141
     12 C           1.2054    6.2663   -0.4910 C.ar    1  LIG1        0.1800
     13 C           0.2086    7.2837   -0.6156 C.ar    1  LIG1        0.0962
     14 C          -0.9942    6.6807   -0.3053 C.ar    1  LIG1        0.1912
     15 O          -0.7853    5.3722    0.0052 O.2     1  LIG1       -0.4435
     16 O           2.5232    6.4065   -0.7686 O.3     1  LIG1       -0.5024
     17 H           2.6717    7.3442   -0.9795 H       1  LIG1        0.2923
     18 S           0.5554    8.8913   -1.2699 S.3     1  LIG1       -0.1353
     19 H           0.2782    9.6188   -0.1673 H       1  LIG1        0.1073
     20 C          -2.3315    7.1846   -0.2001 C.ar    1  LIG1        0.2142
     21 C          -2.8547    8.4053    0.1640 C.ar    1  LIG1        0.1800
     22 C          -4.2772    8.3030    0.0645 C.ar    1  LIG1        0.0962
     23 C          -4.5415    7.0045   -0.3186 C.ar    1  LIG1        0.1912
     24 O          -3.3746    6.3222   -0.4738 O.2     1  LIG1       -0.4435
     25 O          -2.1598    9.4923    0.5701 O.3     1  LIG1       -0.5024
     26 H          -2.8092   10.1648    0.8373 H       1  LIG1        0.2923
     27 S          -5.3571    9.6881    0.2840 S.3     1  LIG1       -0.1353
     28 H          -6.0832    9.2031    1.3133 H       1  LIG1        0.1073
     29 C          -5.7680    6.2820   -0.5032 C.ar    1  LIG1        0.2131
     30 C          -6.9969    6.3343    0.1108 C.ar    1  LIG1        0.1792
     31 C          -7.8194    5.3364   -0.5122 C.ar    1  LIG1        0.0849
     32 C          -7.0331    4.7438   -1.4608 C.ar    1  LIG1        0.1096
     33 O          -5.8013    5.2900   -1.4677 O.2     1  LIG1       -0.4549
     34 H          -7.2171    3.9515   -2.1695 H       1  LIG1        0.1042
     35 O          -7.3541    7.1307    1.1443 O.3     1  LIG1       -0.5024
     36 H          -8.3010    6.9834    1.3080 H       1  LIG1        0.2923
     37 S          -9.5228    5.0435   -0.1232 S.3     1  LIG1       -0.1361
     38 H          -9.3453    4.1191    0.8482 H       1  LIG1        0.1073
@<TRIPOS>BOND
     1    34    32    1
     2    33    32   ar
     3    33    29   ar
     4    32    31   ar
     5    18    13    1
     6    18    19    1
     7    17    16    1
     8    16    12    1
     9    13    12   ar
    10    13    14   ar
    11    31    37    1
    12    31    30   ar
    13    29    23    1
    14    29    30   ar
    15    12    11   ar
    16    24    23   ar
    17    24    20   ar
    18    23    22   ar
    19    14    20    1
    20    14    15   ar
    21     5     1   ar
    22     5     4   ar
    23     6     1    1
    24    20    21   ar
    25    37    38    1
    26    11    15   ar
    27    11     4    1
    28     1     2   ar
    29    22    21   ar
    30    22    27    1
    31    30    35    1
    32     4     3   ar
    33    21    25    1
    34    27    28    1
    35    10     9    1
    36     2     3   ar
    37     2     7    1
    38    25    26    1
    39     3     9    1
    40     7     8    1
    41    35    36    1
