@<TRIPOS>MOLECULE
mol_data/opt/b3lyp/geoms/mol2/12fg12fg-12fg12fg.out
 38 41 0 0 0
SMALL
GASTEIGER

@<TRIPOS>ATOM
      1 C           0.9745    1.5528    0.0445 C.ar    1  LIG1        0.1352
      2 C           2.2445    1.8645   -0.3417 C.ar    1  LIG1        0.1686
      3 C           2.3209    3.2982   -0.3992 C.ar    1  LIG1        0.0954
      4 C           1.0801    3.7627   -0.0191 C.ar    1  LIG1        0.1901
      5 O           0.2616    2.7084    0.2562 O.2     1  LIG1       -0.4548
      6 H           0.4519    0.6248    0.2016 H       1  LIG1        0.1068
      7 O           3.2400    0.9952   -0.6387 O.3     1  LIG1       -0.5029
      8 H           4.0369    1.5221   -0.8126 H       1  LIG1        0.2923
      9 S           3.7335    4.1669   -1.0174 S.3     1  LIG1       -0.1354
     10 H           4.0338    4.8721    0.0941 H       1  LIG1        0.1073
     11 C           0.5675    5.0875    0.1876 C.ar    1  LIG1        0.2141
     12 C           1.1314    6.2518    0.6542 C.ar    1  LIG1        0.1800
     13 C           0.1066    7.2493    0.6632 C.ar    1  LIG1        0.0962
     14 C          -1.0346    6.6284    0.1945 C.ar    1  LIG1        0.1912
     15 O          -0.7624    5.3287   -0.1007 O.2     1  LIG1       -0.4435
     16 O           2.4007    6.4125    1.0968 O.3     1  LIG1       -0.5024
     17 H           2.5000    7.3482    1.3427 H       1  LIG1        0.2923
     18 S           0.3361    8.8543    1.3724 S.3     1  LIG1       -0.1353
     19 H           0.2126    9.5901    0.2473 H       1  LIG1        0.1073
     20 C          -2.3585    7.1074   -0.0733 C.ar    1  LIG1        0.2142
     21 C          -2.8603    8.3205   -0.4887 C.ar    1  LIG1        0.1800
     22 C          -4.2743    8.1670   -0.6360 C.ar    1  LIG1        0.0962
     23 C          -4.5546    6.8583   -0.2979 C.ar    1  LIG1        0.1912
     24 O          -3.4077    6.2167    0.0491 O.2     1  LIG1       -0.4435
     25 O          -2.1489    9.4317   -0.7799 O.3     1  LIG1       -0.5024
     26 H          -2.7861   10.1167   -1.0468 H       1  LIG1        0.2923
     27 S          -5.3086    9.4193   -1.3388 S.3     1  LIG1       -0.1353
     28 H          -6.0168    9.7365   -0.2342 H       1  LIG1        0.1073
     29 C          -5.7823    6.1216   -0.2024 C.ar    1  LIG1        0.2131
     30 C          -7.0722    6.4670    0.1280 C.ar    1  LIG1        0.1792
     31 C          -7.8550    5.2655    0.0640 C.ar    1  LIG1        0.0849
     32 C          -6.9879    4.2726   -0.2990 C.ar    1  LIG1        0.1096
     33 O          -5.7425    4.7618   -0.4558 O.2     1  LIG1       -0.4549
     34 H          -7.1198    3.2160   -0.4724 H       1  LIG1        0.1042
     35 O          -7.5159    7.6889    0.4961 O.3     1  LIG1       -0.5024
     36 H          -8.4806    7.6265    0.5981 H       1  LIG1        0.2923
     37 S          -9.6033    5.1829    0.3394 S.3     1  LIG1       -0.1361
     38 H          -9.5806    4.9457    1.6707 H       1  LIG1        0.1073
@<TRIPOS>BOND
     1    27    22    1
     2    27    28    1
     3    26    25    1
     4     9     3    1
     5     9    10    1
     6     8     7    1
     7    25    21    1
     8     7     2    1
     9    22    21   ar
    10    22    23   ar
    11    21    20   ar
    12    34    32    1
    13    33    32   ar
    14    33    29   ar
    15     3     2   ar
    16     3     4   ar
    17     2     1   ar
    18    32    31   ar
    19    23    29    1
    20    23    24   ar
    21    29    30   ar
    22    15    11   ar
    23    15    14   ar
    24    20    24   ar
    25    20    14    1
    26     4    11    1
    27     4     5   ar
    28     1     6    1
    29     1     5   ar
    30    31    30   ar
    31    31    37    1
    32    30    35    1
    33    11    12   ar
    34    14    13   ar
    35    19    18    1
    36    37    38    1
    37    35    36    1
    38    12    13   ar
    39    12    16    1
    40    13    18    1
    41    16    17    1
