@<TRIPOS>MOLECULE
mol_data/opt/b3lyp/geoms/mol2/12fg12fg12fg-.out
 29 31 0 0 0
SMALL
GASTEIGER

@<TRIPOS>ATOM
      1 C           0.5029    1.7174    0.8638 C.ar    1  LIG1        0.1352
      2 C           1.7240    1.7618    0.2578 C.ar    1  LIG1        0.1686
      3 C           1.8961    3.1019   -0.2306 C.ar    1  LIG1        0.0954
      4 C           0.7604    3.7912    0.1356 C.ar    1  LIG1        0.1901
      5 O          -0.0853    2.9569    0.8051 O.2     1  LIG1       -0.4548
      6 H          -0.0578    0.9363    1.3480 H       1  LIG1        0.1068
      7 O           2.5991    0.7374    0.1198 O.3     1  LIG1       -0.5029
      8 H           3.4044    1.1003   -0.2834 H       1  LIG1        0.2923
      9 S           3.2679    3.5936   -1.2358 S.3     1  LIG1       -0.1354
     10 H           3.7508    4.5716   -0.4404 H       1  LIG1        0.1073
     11 C           0.3831    5.1703    0.0056 C.ar    1  LIG1        0.2141
     12 C           1.0973    6.3451    0.0366 C.ar    1  LIG1        0.1800
     13 C           0.1702    7.4129   -0.1781 C.ar    1  LIG1        0.0962
     14 C          -1.0715    6.8237   -0.2878 C.ar    1  LIG1        0.1912
     15 O          -0.9527    5.4722   -0.1739 O.2     1  LIG1       -0.4435
     16 O           2.4272    6.4746    0.2592 O.3     1  LIG1       -0.5024
     17 H           2.6209    7.4264    0.2964 H       1  LIG1        0.2923
     18 S           0.6715    9.0990   -0.3753 S.3     1  LIG1       -0.1353
     19 H           0.0022    9.6228    0.6735 H       1  LIG1        0.1073
     20 C          -2.3914    7.3733   -0.4210 C.ar    1  LIG1        0.2131
     21 C          -2.9893    8.5144    0.0577 C.ar    1  LIG1        0.1792
     22 C          -4.3453    8.5070   -0.4133 C.ar    1  LIG1        0.0849
     23 C          -4.4799    7.3596   -1.1444 C.ar    1  LIG1        0.1096
     24 O          -3.3254    6.6645   -1.1569 O.2     1  LIG1       -0.4549
     25 H          -5.3100    6.9328   -1.6854 H       1  LIG1        0.1042
     26 O          -2.4305    9.4442    0.8666 O.3     1  LIG1       -0.5024
     27 H          -3.0781   10.1613    0.9723 H       1  LIG1        0.2923
     28 S          -5.5235    9.7984   -0.1244 S.3     1  LIG1       -0.1361
     29 H          -6.0495    9.3295    1.0302 H       1  LIG1        0.1073
@<TRIPOS>BOND
     1    25    23    1
     2     9    10    1
     3     9     3    1
     4    24    23   ar
     5    24    20   ar
     6    23    22   ar
     7    20    14    1
     8    20    21   ar
     9    22    28    1
    10    22    21   ar
    11    18    13    1
    12    18    19    1
    13    14    13   ar
    14    14    15   ar
    15     8     7    1
    16     3     4   ar
    17     3     2   ar
    18    13    12   ar
    19    15    11   ar
    20    28    29    1
    21    11    12   ar
    22    11     4    1
    23    12    16    1
    24    21    26    1
    25     7     2    1
    26     4     5   ar
    27     2     1   ar
    28    16    17    1
    29     5     1   ar
    30     1     6    1
    31    26    27    1
