@<TRIPOS>MOLECULE
mol_data/opt/b3lyp/geoms/mol2/12fg12fg.out
 20 21 0 0 0
SMALL
GASTEIGER

@<TRIPOS>ATOM
      1 C           0.2300    1.7766    0.4621 C.ar    1  LIG1        0.1352
      2 C           1.5426    1.8323    0.0964 C.ar    1  LIG1        0.1686
      3 C           1.8157    3.1975   -0.2597 C.ar    1  LIG1        0.0954
      4 C           0.6394    3.8860   -0.0643 C.ar    1  LIG1        0.1901
      5 O          -0.3242    3.0310    0.3798 O.2     1  LIG1       -0.4548
      6 H          -0.4193    0.9790    0.7805 H       1  LIG1        0.1068
      7 O           2.4175    0.7998    0.0538 O.3     1  LIG1       -0.5029
      8 H           3.2865    1.1679   -0.1746 H       1  LIG1        0.2923
      9 S           3.3568    3.7313   -0.9480 S.3     1  LIG1       -0.1354
     10 H           3.6954    4.6232    0.0075 H       1  LIG1        0.1073
     11 C           0.3089    5.2814   -0.1725 C.ar    1  LIG1        0.2131
     12 C           1.0060    6.4351    0.0900 C.ar    1  LIG1        0.1792
     13 C           0.1325    7.5329   -0.2160 C.ar    1  LIG1        0.0849
     14 C          -1.0386    6.9710   -0.6414 C.ar    1  LIG1        0.1096
     15 O          -0.9560    5.6253   -0.6186 O.2     1  LIG1       -0.4549
     16 H          -1.9728    7.3957   -0.9741 H       1  LIG1        0.1042
     17 O           2.2599    6.5280    0.5936 O.3     1  LIG1       -0.5024
     18 H           2.5014    7.4693    0.5925 H       1  LIG1        0.2923
     19 S           0.5796    9.2442   -0.1105 S.3     1  LIG1       -0.1361
     20 H           0.2174    9.4639    1.1742 H       1  LIG1        0.1073
@<TRIPOS>BOND
     1    16    14    1
     2     9     3    1
     3     9    10    1
     4    14    15   ar
     5    14    13   ar
     6    15    11   ar
     7     3     4   ar
     8     3     2   ar
     9    13    19    1
    10    13    12   ar
    11     8     7    1
    12    11     4    1
    13    11    12   ar
    14    19    20    1
    15     4     5   ar
    16     7     2    1
    17    12    17    1
    18     2     1   ar
    19     5     1   ar
    20     1     6    1
    21    18    17    1
