@<TRIPOS>MOLECULE
mol_data/opt/b3lyp/geoms/mol2/12fh6fh4ef-12ie.out
 49 52 0 0 0
SMALL
GASTEIGER

@<TRIPOS>ATOM
      1 C           0.7102    1.7496    1.4197 C.ar    1  LIG1        0.1358
      2 C           1.3869    1.5400    0.2590 C.ar    1  LIG1        0.1763
      3 C           1.5216    2.8114   -0.3977 C.ar    1  LIG1        0.1132
      4 C           0.9323    3.7392    0.4296 C.ar    1  LIG1        0.1642
      5 O           0.4224    3.0805    1.5433 O.2     1  LIG1       -0.4571
      6 H           0.3734    1.0976    2.2082 H       1  LIG1        0.1068
      7 O           1.8010    0.3390   -0.2517 O.3     1  LIG1       -0.5024
      8 H           2.7338    0.4208   -0.4981 H       1  LIG1        0.2923
      9 N           2.1708    2.9709   -1.6274 N.pl3   1  LIG1       -0.3522
     10 H           1.9931    2.1793   -2.2389 H       1  LIG1        0.1425
     11 H           1.9104    3.8283   -2.1021 H       1  LIG1        0.1425
     12 C          -0.3635    5.8541    0.9242 C.ar    1  LIG1        0.2240
     13 C           0.7397    5.1754    0.3352 C.ar    1  LIG1        0.0822
     14 C           1.6243    5.9664   -0.4046 C.ar    1  LIG1       -0.0231
     15 C           1.4192    7.3409   -0.5930 C.ar    1  LIG1        0.0519
     16 C           0.2841    7.9024    0.0385 C.ar    1  LIG1        0.0967
     17 N          -0.5634    7.1471    0.7614 N.ar    1  LIG1       -0.2105
     18 H           2.5129    5.5088   -0.8324 H       1  LIG1        0.0645
     19 O          -1.2981    5.2212    1.6791 O.3     1  LIG1       -0.4919
     20 H          -1.0094    4.3097    1.8397 H       1  LIG1        0.2938
     21 N           2.2573    8.0561   -1.4557 N.pl3   1  LIG1       -0.3563
     22 H           3.1158    7.5619   -1.6657 H       1  LIG1        0.1424
     23 H           2.4706    8.9972   -1.1492 H       1  LIG1        0.1424
     24 C           0.6747   10.4524    0.1329 C.ar    1  LIG1        0.0348
     25 C           0.1394   11.7416   -0.0499 C.ar    1  LIG1       -0.0315
     26 C          -0.1456    9.3238   -0.1127 C.ar    1  LIG1        0.0211
     27 C          -1.1839   11.9650   -0.4328 C.ar    1  LIG1        0.0601
     28 H           0.7878   12.5947    0.1140 H       1  LIG1        0.0638
     29 C          -1.4778    9.5485   -0.4767 C.ar    1  LIG1       -0.0091
     30 C          -2.0033   10.8289   -0.6330 C.ar    1  LIG1        0.1282
     31 H          -2.1212    8.6840   -0.6140 H       1  LIG1        0.0661
     32 C           2.0166   10.3479    0.6125 C.1     1  LIG1       -0.0690
     33 C           3.1608   10.2990    1.0089 C.1     1  LIG1       -0.1139
     34 H           4.1537   10.2472    1.3916 H       1  LIG1        0.1232
     35 O          -3.3065   11.0305   -0.9636 O.3     1  LIG1       -0.5060
     36 H          -3.7508   10.1736   -1.0181 H       1  LIG1        0.2922
     37 C          -1.6908   13.3320   -0.5712 C.ar    1  LIG1        0.1424
     38 C          -1.5362   14.4591    0.1940 C.ar    1  LIG1        0.0108
     39 C          -2.2686   15.5041   -0.4922 C.ar    1  LIG1        0.0658
     40 C          -2.8047   14.9200   -1.6098 C.ar    1  LIG1        0.1082
     41 O          -2.4680   13.6146   -1.6735 O.2     1  LIG1       -0.4613
     42 H          -3.4220   15.3009   -2.4081 H       1  LIG1        0.1042
     43 C          -0.8101   14.6213    1.4932 C.3     1  LIG1       -0.0349
     44 H          -1.3957   15.2356    2.1841 H       1  LIG1        0.0279
     45 H           0.1543   15.1260    1.3583 H       1  LIG1        0.0279
     46 H          -0.6196   13.6550    1.9662 H       1  LIG1        0.0279
     47 C          -2.4120   16.8530   -0.0770 C.1     1  LIG1       -0.0662
     48 C          -2.5220   17.9990    0.2969 C.1     1  LIG1       -0.1138
     49 H          -2.6246   19.0094    0.6178 H       1  LIG1        0.1232
@<TRIPOS>BOND
     1    42    40    1
     2    10     9    1
     3    11     9    1
     4    41    40   ar
     5    41    37   ar
     6    22    21    1
     7     9     3    1
     8    40    39   ar
     9    21    23    1
    10    21    15    1
    11    36    35    1
    12    35    30    1
    13    18    14    1
    14    30    29   ar
    15    30    27   ar
    16    31    29    1
    17    15    14   ar
    18    15    16   ar
    19    37    27    1
    20    37    38   ar
    21     8     7    1
    22    39    47    1
    23    39    38   ar
    24    29    26   ar
    25    27    25   ar
    26    14    13   ar
    27     3     2   ar
    28     3     4   ar
    29     7     2    1
    30    26    16    1
    31    26    24   ar
    32    47    48    3
    33    25    28    1
    34    25    24   ar
    35    16    17   ar
    36    24    32    1
    37    38    43    1
    38     2     1   ar
    39    48    49    1
    40    13     4    1
    41    13    12   ar
    42     4     5   ar
    43    32    33    3
    44    17    12   ar
    45    12    19    1
    46    33    34    1
    47    45    43    1
    48     1     5   ar
    49     1     6    1
    50    43    46    1
    51    43    44    1
    52    19    20    1
