@<TRIPOS>MOLECULE
mol_data/opt/b3lyp/geoms/mol2/12fh12fe4id-4de.out
 49 52 0 0 0
SMALL
GASTEIGER

@<TRIPOS>ATOM
      1 C           0.5168    1.7072    0.7016 C.ar    1  LIG1        0.1359
      2 C           1.8078    1.7443    0.2658 C.ar    1  LIG1        0.1764
      3 C           2.0981    3.1005   -0.0932 C.ar    1  LIG1        0.1163
      4 C           0.9479    3.8133    0.1714 C.ar    1  LIG1        0.1976
      5 O          -0.0160    2.9718    0.6563 O.2     1  LIG1       -0.4540
      6 H          -0.1290    0.9237    1.0600 H       1  LIG1        0.1068
      7 O           2.6978    0.7254    0.1674 O.3     1  LIG1       -0.5024
      8 H           3.5641    1.1479    0.0397 H       1  LIG1        0.2923
      9 N           3.3742    3.4744   -0.5740 N.pl3   1  LIG1       -0.3521
     10 H           3.4661    3.2895   -1.5707 H       1  LIG1        0.1425
     11 H           3.5646    4.4600   -0.4169 H       1  LIG1        0.1425
     12 C           0.6173    5.2066    0.0667 C.ar    1  LIG1        0.2149
     13 C           1.3649    6.3492   -0.0743 C.ar    1  LIG1        0.1822
     14 C           0.4574    7.4608   -0.1186 C.ar    1  LIG1        0.1125
     15 C          -0.8137    6.9235    0.0206 C.ar    1  LIG1        0.1551
     16 O          -0.7092    5.5669    0.1183 O.2     1  LIG1       -0.4466
     17 O           2.7213    6.4222   -0.1517 O.3     1  LIG1       -0.5023
     18 H           2.9670    7.3555   -0.2476 H       1  LIG1        0.2923
     19 C           0.8995    8.7821   -0.3662 C.1     1  LIG1       -0.0622
     20 C           1.3947    9.8651   -0.5923 C.1     1  LIG1       -0.1137
     21 H           1.7841   10.8337   -0.8084 H       1  LIG1        0.1232
     22 C          -2.5759    8.6417    0.6416 C.ar    1  LIG1       -0.0391
     23 C          -3.9073    9.0521    0.5155 C.ar    1  LIG1       -0.0492
     24 C          -2.1761    7.4534   -0.0168 C.ar    1  LIG1        0.0228
     25 C          -4.8682    8.3423   -0.2092 C.ar    1  LIG1        0.0010
     26 H          -4.2140    9.9546    1.0341 H       1  LIG1        0.0627
     27 C          -3.1343    6.7113   -0.7249 C.ar    1  LIG1       -0.0328
     28 C          -4.4613    7.1369   -0.8300 C.ar    1  LIG1        0.0602
     29 H          -2.8354    5.7940   -1.2179 H       1  LIG1        0.0638
     30 C          -1.6469    9.4491    1.5109 C.3     1  LIG1       -0.0390
     31 H          -2.2170   10.0504    2.2232 H       1  LIG1        0.0278
     32 H          -1.0307   10.1298    0.9159 H       1  LIG1        0.0278
     33 H          -0.9624    8.8049    2.0699 H       1  LIG1        0.0278
     34 N          -6.0719    5.6787   -2.2547 N.1     1  LIG1       -0.1908
     35 C          -5.3653    6.3438   -1.6130 C.1     1  LIG1        0.0998
     36 C          -6.5717   10.1550   -0.7033 C.ar    1  LIG1        0.0596
     37 C          -7.9044   10.6009   -0.7347 C.ar    1  LIG1       -0.0426
     38 C          -6.2695    8.8363   -0.2812 C.ar    1  LIG1        0.0019
     39 C          -8.9396    9.7614   -0.3539 C.ar    1  LIG1       -0.0451
     40 H          -8.1136   11.6113   -1.0685 H       1  LIG1        0.0631
     41 C          -7.3279    8.0047    0.0945 C.ar    1  LIG1       -0.0373
     42 C          -8.6615    8.4475    0.0661 C.ar    1  LIG1        0.0253
     43 H          -7.1214    6.9948    0.4284 H       1  LIG1        0.0636
     44 H          -9.9661   10.1095   -0.3793 H       1  LIG1        0.0630
     45 N          -4.7493   11.8307   -1.4893 N.1     1  LIG1       -0.1909
     46 C          -5.5480   11.0621   -1.1347 C.1     1  LIG1        0.0998
     47 C          -9.7173    7.5751    0.4680 C.1     1  LIG1       -0.0696
     48 C         -10.6138    6.8384    0.8097 C.1     1  LIG1       -0.1139
     49 H         -11.4007    6.1833    1.1057 H       1  LIG1        0.1232
@<TRIPOS>BOND
     1    34    35    3
     2    35    28    1
     3    10     9    1
     4    45    46    3
     5    29    27    1
     6    46    36    1
     7    40    37    1
     8    28    27   ar
     9    28    25   ar
    10    21    20    1
    11    37    36   ar
    12    37    39   ar
    13    27    24   ar
    14    36    38   ar
    15    20    19    3
    16     9    11    1
    17     9     3    1
    18    44    39    1
    19    19    14    1
    20    39    42   ar
    21    38    25    1
    22    38    41   ar
    23    18    17    1
    24    25    23   ar
    25    17    13    1
    26    14    13   ar
    27    14    15   ar
    28     3     4   ar
    29     3     2   ar
    30    13    12   ar
    31    24    15    1
    32    24    22   ar
    33    15    16   ar
    34     8     7    1
    35    42    41   ar
    36    42    47    1
    37    12    16   ar
    38    12     4    1
    39    41    43    1
    40     7     2    1
    41     4     5   ar
    42     2     1   ar
    43    47    48    3
    44    23    22   ar
    45    23    26    1
    46    22    30    1
    47     5     1   ar
    48     1     6    1
    49    48    49    1
    50    32    30    1
    51    30    33    1
    52    30    31    1
