@<TRIPOS>MOLECULE
mol_data/opt/b3lyp/geoms/mol2/12fh12he4ha-12he.out
 46 49 0 0 0
SMALL
GASTEIGER

@<TRIPOS>ATOM
      1 C           0.6232    1.8273    0.9230 C.ar    1  LIG1        0.1359
      2 C           1.8567    1.8391    0.3435 C.ar    1  LIG1        0.1764
      3 C           2.0896    3.1693   -0.1355 C.ar    1  LIG1        0.1162
      4 C           0.9686    3.8963    0.2080 C.ar    1  LIG1        0.1958
      5 O           0.0698    3.0830    0.8390 O.2     1  LIG1       -0.4541
      6 H           0.0215    1.0681    1.3956 H       1  LIG1        0.1068
      7 O           2.7830    0.8499    0.1751 O.3     1  LIG1       -0.5024
      8 H           2.4740    0.0458    0.6111 H       1  LIG1        0.2923
      9 N           3.2300    3.6337   -0.8541 N.pl3   1  LIG1       -0.3521
     10 H           4.0464    3.0892   -0.5863 H       1  LIG1        0.1425
     11 H           3.1066    3.4997   -1.8568 H       1  LIG1        0.1425
     12 C           0.6259    5.2782    0.0402 C.ar    1  LIG1        0.1942
     13 C           1.3890    6.4052   -0.1831 C.ar    1  LIG1        0.0904
     14 C           0.4532    7.5026   -0.2785 C.ar    1  LIG1        0.0918
     15 C          -0.8179    6.9750   -0.0691 C.ar    1  LIG1        0.1548
     16 O          -0.7092    5.6338    0.1160 O.2     1  LIG1       -0.4484
     17 N           2.7592    6.5153   -0.2415 N.pl3   1  LIG1       -0.3540
     18 H           3.2387    5.6509   -0.5010 H       1  LIG1        0.1425
     19 H           3.0899    7.3493   -0.7078 H       1  LIG1        0.1425
     20 C           0.8359    8.8201   -0.6196 C.1     1  LIG1       -0.0640
     21 C           1.2239    9.9341   -0.9054 C.1     1  LIG1       -0.1137
     22 H           1.5438   10.9101   -1.1882 H       1  LIG1        0.1232
     23 C          -2.5465    8.7755    0.4408 C.ar    1  LIG1        0.0360
     24 C          -3.8970    9.1620    0.3843 C.ar    1  LIG1       -0.0296
     25 C          -2.1784    7.4996   -0.0718 C.ar    1  LIG1        0.0392
     26 C          -4.8963    8.3249   -0.1306 C.ar    1  LIG1        0.0209
     27 H          -4.1728   10.1143    0.8279 H       1  LIG1        0.0643
     28 C          -3.2032    6.6596   -0.5576 C.ar    1  LIG1       -0.0486
     29 C          -4.5301    7.0444   -0.5948 C.ar    1  LIG1       -0.0502
     30 H          -2.9218    5.6793   -0.9262 H       1  LIG1        0.0625
     31 N          -1.6478    9.6068    1.0911 N.pl3   1  LIG1       -0.3574
     32 H          -0.6823    9.5833    0.7953 H       1  LIG1        0.1423
     33 H          -1.9794   10.5478    1.2473 H       1  LIG1        0.1423
     34 H          -5.2850    6.3767   -0.9922 H       1  LIG1        0.0625
     35 C          -6.2755    8.7700   -0.1883 C.ar    1  LIG1        0.1566
     36 C          -6.8835   10.0063   -0.1420 C.ar    1  LIG1        0.0865
     37 C          -8.3052    9.7739   -0.2686 C.ar    1  LIG1        0.0836
     38 C          -8.4503    8.4152   -0.3894 C.ar    1  LIG1        0.1098
     39 O          -7.2543    7.8007   -0.3528 O.2     1  LIG1       -0.4598
     40 H          -9.3193    7.7867   -0.5049 H       1  LIG1        0.1043
     41 N          -6.3021   11.2624    0.0141 N.pl3   1  LIG1       -0.3541
     42 H          -5.4136   11.3618   -0.4626 H       1  LIG1        0.1425
     43 H          -6.9369   12.0120   -0.2365 H       1  LIG1        0.1425
     44 C          -9.3070   10.7755   -0.2847 C.1     1  LIG1       -0.0646
     45 C         -10.1218   11.6713   -0.3025 C.1     1  LIG1       -0.1138
     46 H         -10.8586   12.4407   -0.3102 H       1  LIG1        0.1232
@<TRIPOS>BOND
     1    11     9    1
     2    22    21    1
     3    34    29    1
     4    30    28    1
     5    21    20    3
     6     9    10    1
     7     9     3    1
     8    19    17    1
     9    20    14    1
    10    29    28   ar
    11    29    26   ar
    12    28    25   ar
    13    40    38    1
    14    18    17    1
    15    42    41    1
    16    38    39   ar
    17    38    37   ar
    18    39    35   ar
    19    46    45    1
    20    45    44    3
    21    44    37    1
    22    14    13   ar
    23    14    15   ar
    24    37    36   ar
    25    17    13    1
    26    43    41    1
    27    35    36   ar
    28    35    26    1
    29    13    12   ar
    30    36    41    1
    31     3     4   ar
    32     3     2   ar
    33    26    24   ar
    34    25    15    1
    35    25    23   ar
    36    15    16   ar
    37    12    16   ar
    38    12     4    1
    39     7     2    1
    40     7     8    1
    41     4     5   ar
    42     2     1   ar
    43    24    23   ar
    44    24    27    1
    45    23    31    1
    46    32    31    1
    47     5     1   ar
    48     1     6    1
    49    31    33    1
