@<TRIPOS>MOLECULE
mol_data/opt/b3lyp/geoms/mol2/12fh4ef13if6da-.out
 47 50 0 0 0
SMALL
GASTEIGER

@<TRIPOS>ATOM
      1 C           0.3513    1.6048   -0.4221 C.ar    1  LIG1        0.1358
      2 C           1.6508    1.5745   -0.0235 C.ar    1  LIG1        0.1763
      3 C           2.0997    2.9360    0.0898 C.ar    1  LIG1        0.1131
      4 C           1.0162    3.7244   -0.2588 C.ar    1  LIG1        0.1603
      5 O          -0.0554    2.8899   -0.5674 O.2     1  LIG1       -0.4572
      6 H          -0.3627    0.8318   -0.6570 H       1  LIG1        0.1068
      7 O           2.4413    0.4714    0.1886 O.3     1  LIG1       -0.5024
      8 H           2.6902    0.4530    1.1242 H       1  LIG1        0.2923
      9 N           3.3553    3.2464    0.5934 N.pl3   1  LIG1       -0.3522
     10 H           4.0250    2.5137    0.3839 H       1  LIG1        0.1425
     11 H           3.7096    4.1519    0.3045 H       1  LIG1        0.1425
     12 C           1.6297    6.1837   -0.4943 C.ar    1  LIG1        0.0362
     13 C           1.2196    7.5238   -0.3855 C.ar    1  LIG1       -0.0330
     14 C           0.6971    5.1415   -0.2376 C.ar    1  LIG1        0.0380
     15 C          -0.0857    7.9088   -0.0595 C.ar    1  LIG1        0.0413
     16 H           1.9525    8.2862   -0.6111 H       1  LIG1        0.0638
     17 C          -0.6275    5.5222    0.0449 C.ar    1  LIG1       -0.0076
     18 C          -1.0160    6.8515    0.1218 C.ar    1  LIG1        0.1267
     19 H          -1.3643    4.7457    0.2255 H       1  LIG1        0.0662
     20 C           2.9552    5.9424   -0.9653 C.1     1  LIG1       -0.0689
     21 C           4.0861    5.7926   -1.3775 C.1     1  LIG1       -0.1139
     22 H           5.0582    5.6622   -1.7938 H       1  LIG1        0.1232
     23 O          -2.3068    7.1972    0.3984 O.3     1  LIG1       -0.5061
     24 H          -2.8694    6.4167    0.4827 H       1  LIG1        0.2922
     25 C          -0.4519    9.3212    0.0572 C.ar    1  LIG1        0.0570
     26 C           0.3527   10.4508    0.2979 C.ar    1  LIG1        0.0170
     27 C          -0.5180   11.5559    0.2980 C.ar    1  LIG1        0.1456
     28 C          -1.8344   11.1251    0.0598 C.ar    1  LIG1        0.0919
     29 N          -1.7487    9.7522   -0.0637 N.ar    1  LIG1       -0.3509
     30 H          -2.5254    9.1118   -0.1503 H       1  LIG1        0.1660
     31 C           1.8222   10.5459    0.5810 C.3     1  LIG1       -0.0342
     32 H           2.0320   11.4894    1.0916 H       1  LIG1        0.0279
     33 H           2.4312   10.5352   -0.3320 H       1  LIG1        0.0279
     34 H           2.1684    9.7257    1.2173 H       1  LIG1        0.0279
     35 O          -0.0805   12.8403    0.5171 O.3     1  LIG1       -0.5044
     36 H          -0.7038   13.2860    1.1066 H       1  LIG1        0.2922
     37 C          -4.3768   11.4130    0.0796 C.ar    1  LIG1        0.1492
     38 C          -3.0483   11.9073   -0.0673 C.ar    1  LIG1        0.0377
     39 C          -2.9633   13.2875   -0.3771 C.ar    1  LIG1       -0.0484
     40 C          -4.1058   14.0600   -0.4896 C.ar    1  LIG1       -0.0429
     41 C          -5.3557   13.4559   -0.3058 C.ar    1  LIG1        0.0291
     42 N          -5.4889   12.1611   -0.0380 N.ar    1  LIG1       -0.2440
     43 H          -1.9899   13.7259   -0.5639 H       1  LIG1        0.0625
     44 H          -6.2753   14.0305   -0.3854 H       1  LIG1        0.0830
     45 N          -4.8734    8.9072    0.5928 N.1     1  LIG1       -0.1893
     46 C          -4.6473   10.0272    0.3706 C.1     1  LIG1        0.1198
     47 H          -4.0368   15.1149   -0.7359 H       1  LIG1        0.0633
@<TRIPOS>BOND
     1    22    21    1
     2    21    20    3
     3    20    12    1
     4    47    40    1
     5     6     1    1
     6    16    13    1
     7     5     1   ar
     8     5     4   ar
     9    43    39    1
    10    12    13   ar
    11    12    14   ar
    12    40    39   ar
    13    40    41   ar
    14     1     2   ar
    15    13    15   ar
    16    44    41    1
    17    39    38   ar
    18    33    31    1
    19    41    42   ar
    20     4    14    1
    21     4     3   ar
    22    14    17   ar
    23    30    29    1
    24    38    28    1
    25    38    37   ar
    26    29    25   ar
    27    29    28   ar
    28    15    25    1
    29    15    18   ar
    30    42    37   ar
    31     2     3   ar
    32     2     7    1
    33    17    18   ar
    34    17    19    1
    35    25    26   ar
    36    28    27   ar
    37    37    46    1
    38     3     9    1
    39    18    23    1
    40     7     8    1
    41    26    27   ar
    42    26    31    1
    43    27    35    1
    44    11     9    1
    45    46    45    3
    46    10     9    1
    47    23    24    1
    48    35    36    1
    49    31    32    1
    50    31    34    1
