@<TRIPOS>MOLECULE
mol_data/opt/b3lyp/geoms/mol2/12fi12fi12fi12fi.out
 46 49 0 0 0
SMALL
GASTEIGER

@<TRIPOS>ATOM
      1 C           0.6751    1.8684   -1.3863 C.ar    1  LIG1        0.1343
      2 C           1.8743    1.8166   -0.7414 C.ar    1  LIG1        0.1581
      3 C           2.1142    3.1061   -0.1575 C.ar    1  LIG1        0.0399
      4 C           1.0203    3.8676   -0.5109 C.ar    1  LIG1        0.1799
      5 O           0.1446    3.1231   -1.2542 O.2     1  LIG1       -0.4557
      6 H           0.0966    1.1482   -1.9394 H       1  LIG1        0.1068
      7 O           2.6809    0.7174   -0.6602 O.3     1  LIG1       -0.5034
      8 H           3.4737    0.9599   -0.1656 H       1  LIG1        0.2923
      9 C           3.2952    3.4492    0.6995 C.3     1  LIG1       -0.0325
     10 H           3.3223    4.5121    0.9385 H       1  LIG1        0.0280
     11 H           4.2406    3.2127    0.1916 H       1  LIG1        0.0280
     12 H           3.2821    2.8877    1.6434 H       1  LIG1        0.0280
     13 C           0.6362    5.2356   -0.2741 C.ar    1  LIG1        0.2124
     14 C           1.3184    6.4055   -0.0324 C.ar    1  LIG1        0.1694
     15 C           0.3682    7.4610    0.1171 C.ar    1  LIG1        0.0407
     16 C          -0.8622    6.8649   -0.0747 C.ar    1  LIG1        0.1809
     17 O          -0.7083    5.5263   -0.3042 O.2     1  LIG1       -0.4444
     18 O           2.6775    6.5226    0.0525 O.3     1  LIG1       -0.5029
     19 H           2.8958    7.4568    0.1648 H       1  LIG1        0.2923
     20 C           0.7175    8.8786    0.4570 C.3     1  LIG1       -0.0325
     21 H          -0.1535    9.5307    0.4006 H       1  LIG1        0.0280
     22 H           1.4640    9.2853   -0.2396 H       1  LIG1        0.0280
     23 H           1.1373    8.9553    1.4689 H       1  LIG1        0.0280
     24 C          -2.2167    7.3485   -0.0831 C.ar    1  LIG1        0.2125
     25 C          -2.8134    8.5643   -0.3308 C.ar    1  LIG1        0.1694
     26 C          -4.2261    8.4115   -0.1889 C.ar    1  LIG1        0.0407
     27 C          -4.4128    7.0790    0.1157 C.ar    1  LIG1        0.1809
     28 O          -3.2104    6.4355    0.1865 O.2     1  LIG1       -0.4444
     29 O          -2.1533    9.7156   -0.6545 O.3     1  LIG1       -0.5029
     30 H          -2.8081   10.4022   -0.8359 H       1  LIG1        0.2923
     31 C          -5.2212    9.5253   -0.3179 C.3     1  LIG1       -0.0325
     32 H          -6.2448    9.1526   -0.2974 H       1  LIG1        0.0280
     33 H          -5.0990   10.0630   -1.2685 H       1  LIG1        0.0280
     34 H          -5.1082   10.2589    0.4912 H       1  LIG1        0.0280
     35 C          -5.5730    6.2628    0.3657 C.ar    1  LIG1        0.2114
     36 C          -6.8958    6.3158   -0.0100 C.ar    1  LIG1        0.1687
     37 C          -7.5619    5.1779    0.5546 C.ar    1  LIG1        0.0295
     38 C          -6.5861    4.5029    1.2283 C.ar    1  LIG1        0.0993
     39 O          -5.3906    5.1339    1.1348 O.2     1  LIG1       -0.4557
     40 H          -6.5956    3.5881    1.8009 H       1  LIG1        0.1033
     41 O          -7.4536    7.2854   -0.7949 O.3     1  LIG1       -0.5030
     42 H          -8.3657    7.0374   -0.9925 H       1  LIG1        0.2923
     43 C          -9.0103    4.8247    0.4029 C.3     1  LIG1       -0.0332
     44 H          -9.2425    3.8967    0.9312 H       1  LIG1        0.0280
     45 H          -9.2881    4.6743   -0.6485 H       1  LIG1        0.0280
     46 H          -9.6665    5.6044    0.8100 H       1  LIG1        0.0280
@<TRIPOS>BOND
     1     6     1    1
     2     1     5   ar
     3     1     2   ar
     4    33    31    1
     5     5     4   ar
     6    42    41    1
     7    30    29    1
     8    41    36    1
     9     2     7    1
    10     2     3   ar
    11     7     8    1
    12    29    25    1
    13    45    43    1
    14     4    13    1
    15     4     3   ar
    16    25    26   ar
    17    25    24   ar
    18    31    32    1
    19    31    26    1
    20    31    34    1
    21    17    13   ar
    22    17    16   ar
    23    13    14   ar
    24    22    20    1
    25    26    27   ar
    26     3     9    1
    27    24    16    1
    28    24    28   ar
    29    16    15   ar
    30    14    18    1
    31    14    15   ar
    32    36    35   ar
    33    36    37   ar
    34    18    19    1
    35    27    28   ar
    36    27    35    1
    37    15    20    1
    38    11     9    1
    39    35    39   ar
    40    21    20    1
    41    43    37    1
    42    43    46    1
    43    43    44    1
    44    20    23    1
    45    37    38   ar
    46     9    10    1
    47     9    12    1
    48    39    38   ar
    49    38    40    1
