@<TRIPOS>MOLECULE
mol_data/opt/b3lyp/geoms/mol2/12fi12fi-12fi.out
 35 37 0 0 0
SMALL
GASTEIGER

@<TRIPOS>ATOM
      1 C           0.0634    1.7729   -0.0482 C.ar    1  LIG1        0.1343
      2 C           1.4234    1.7151   -0.0527 C.ar    1  LIG1        0.1581
      3 C           1.9332    3.0605   -0.0386 C.ar    1  LIG1        0.0399
      4 C           0.8174    3.8637   -0.0262 C.ar    1  LIG1        0.1799
      5 O          -0.3255    3.0977   -0.0318 O.2     1  LIG1       -0.4557
      6 H          -0.7181    1.0333   -0.0546 H       1  LIG1        0.1068
      7 O           2.1589    0.5676   -0.0681 O.3     1  LIG1       -0.5034
      8 H           3.0945    0.8063   -0.0675 H       1  LIG1        0.2923
      9 C           3.3812    3.4495   -0.0380 C.3     1  LIG1       -0.0325
     10 H           3.4991    4.5340   -0.0261 H       1  LIG1        0.0280
     11 H           3.9006    3.0704   -0.9289 H       1  LIG1        0.0280
     12 H           3.9054    3.0504    0.8412 H       1  LIG1        0.0280
     13 C           0.5792    5.2738   -0.0091 C.ar    1  LIG1        0.2124
     14 C          -0.5928    5.9979    0.0030 C.ar    1  LIG1        0.1694
     15 C          -0.2548    7.3847    0.0181 C.ar    1  LIG1        0.0407
     16 C           1.1256    7.4155    0.0141 C.ar    1  LIG1        0.1809
     17 O           1.6405    6.1448   -0.0023 O.2     1  LIG1       -0.4444
     18 O          -1.8687    5.5387    0.0016 O.3     1  LIG1       -0.5029
     19 H          -1.8340    4.5692   -0.0098 H       1  LIG1        0.2923
     20 C          -1.2450    8.5081    0.0341 C.3     1  LIG1       -0.0325
     21 H          -1.8936    8.4417    0.9151 H       1  LIG1        0.0280
     22 H          -1.8994    8.4616   -0.8438 H       1  LIG1        0.0280
     23 H          -0.7481    9.4778    0.0435 H       1  LIG1        0.0280
     24 C           2.1030    8.4658    0.0233 C.ar    1  LIG1        0.2114
     25 C           3.4808    8.4745    0.0193 C.ar    1  LIG1        0.1687
     26 C           3.9077    9.8452    0.0340 C.ar    1  LIG1        0.0295
     27 C           2.7563   10.5751    0.0460 C.ar    1  LIG1        0.0993
     28 O           1.6603    9.7697    0.0399 O.2     1  LIG1       -0.4557
     29 H           2.5636   11.6367    0.0590 H       1  LIG1        0.1033
     30 O           4.2757    7.3670    0.0039 O.3     1  LIG1       -0.5030
     31 H           5.1984    7.6514    0.0042 H       1  LIG1        0.2923
     32 C           5.3234   10.3364    0.0352 C.3     1  LIG1       -0.0332
     33 H           5.3583   11.4286    0.0481 H       1  LIG1        0.0280
     34 H           5.8712   10.0045   -0.8559 H       1  LIG1        0.0280
     35 H           5.8770    9.9835    0.9146 H       1  LIG1        0.0280
@<TRIPOS>BOND
     1    11     9    1
     2    34    32    1
     3    22    20    1
     4     7     8    1
     5     7     2    1
     6     6     1    1
     7     2     1   ar
     8     2     3   ar
     9     1     5   ar
    10     3     9    1
    11     3     4   ar
    12     9    10    1
    13     9    12    1
    14     5     4   ar
    15     4    13    1
    16    19    18    1
    17    13    17   ar
    18    13    14   ar
    19    17    16   ar
    20    18    14    1
    21    14    15   ar
    22    30    31    1
    23    30    25    1
    24    16    15   ar
    25    16    24    1
    26    15    20    1
    27    25    24   ar
    28    25    26   ar
    29    24    28   ar
    30    26    32    1
    31    26    27   ar
    32    20    23    1
    33    20    21    1
    34    32    33    1
    35    32    35    1
    36    28    27   ar
    37    27    29    1
