@<TRIPOS>MOLECULE
mol_data/opt/b3lyp/geoms/mol2/12fi12fi12fi-12fi-.out
 46 49 0 0 0
SMALL
GASTEIGER

@<TRIPOS>ATOM
      1 C           0.0777    1.7503    0.3327 C.ar    1  LIG1        0.1343
      2 C           1.3842    1.6521   -0.0396 C.ar    1  LIG1        0.1581
      3 C           1.8921    2.9825   -0.2278 C.ar    1  LIG1        0.0399
      4 C           0.8310    3.8139    0.0637 C.ar    1  LIG1        0.1799
      5 O          -0.2726    3.0742    0.4019 O.2     1  LIG1       -0.4557
      6 H          -0.6875    1.0289    0.5636 H       1  LIG1        0.1068
      7 O           2.0683    0.4851   -0.2133 O.3     1  LIG1       -0.5034
      8 H           2.9770    0.6978   -0.4610 H       1  LIG1        0.2923
      9 C           3.2800    3.3021   -0.6949 C.3     1  LIG1       -0.0325
     10 H           3.4669    4.3754   -0.6980 H       1  LIG1        0.0280
     11 H           3.4554    2.9258   -1.7119 H       1  LIG1        0.0280
     12 H           4.0365    2.8449   -0.0422 H       1  LIG1        0.0280
     13 C           0.6333    5.2383    0.0894 C.ar    1  LIG1        0.2124
     14 C           1.4311    6.3588    0.1348 C.ar    1  LIG1        0.1694
     15 C           0.5967    7.5213    0.1588 C.ar    1  LIG1        0.0407
     16 C          -0.6915    7.0381    0.1404 C.ar    1  LIG1        0.1809
     17 O          -0.6834    5.6669    0.0929 O.2     1  LIG1       -0.4444
     18 O           2.7950    6.3490    0.1678 O.3     1  LIG1       -0.5029
     19 H           3.1083    7.2608    0.2261 H       1  LIG1        0.2923
     20 C           1.0705    8.9422    0.2143 C.3     1  LIG1       -0.0325
     21 H           0.2260    9.6315    0.2473 H       1  LIG1        0.0280
     22 H           1.6760    9.2026   -0.6641 H       1  LIG1        0.0280
     23 H           1.6831    9.1310    1.1062 H       1  LIG1        0.0280
     24 C          -2.0032    7.6014    0.1618 C.ar    1  LIG1        0.2125
     25 C          -3.2375    6.9860    0.1908 C.ar    1  LIG1        0.1694
     26 C          -4.2288    8.0120    0.2548 C.ar    1  LIG1        0.0407
     27 C          -3.5286    9.2008    0.2375 C.ar    1  LIG1        0.1809
     28 O          -2.1754    8.9639    0.1794 O.2     1  LIG1       -0.4444
     29 O          -3.5294    5.6648    0.1983 O.3     1  LIG1       -0.5029
     30 H          -2.6962    5.1653    0.1915 H       1  LIG1        0.2923
     31 C          -5.7032    7.7843    0.3987 C.3     1  LIG1       -0.0325
     32 H          -5.8965    7.0484    1.1857 H       1  LIG1        0.0280
     33 H          -6.1483    7.3788   -0.5186 H       1  LIG1        0.0280
     34 H          -6.2278    8.7070    0.6571 H       1  LIG1        0.0280
     35 C          -3.9573   10.5732    0.2264 C.ar    1  LIG1        0.2114
     36 C          -5.0079   11.2068   -0.3957 C.ar    1  LIG1        0.1687
     37 C          -4.9561   12.5954   -0.0463 C.ar    1  LIG1        0.0295
     38 C          -3.8573   12.7071    0.7548 C.ar    1  LIG1        0.0993
     39 O          -3.2357   11.5115    0.9364 O.2     1  LIG1       -0.4557
     40 H          -3.4048   13.5524    1.2509 H       1  LIG1        0.1033
     41 O          -5.9506   10.6908   -1.2309 O.3     1  LIG1       -0.5030
     42 H          -5.6970    9.7862   -1.4625 H       1  LIG1        0.2923
     43 C          -5.9018   13.6634   -0.4993 C.3     1  LIG1       -0.0332
     44 H          -6.9232   13.4620   -0.1582 H       1  LIG1        0.0280
     45 H          -5.9358   13.7239   -1.5924 H       1  LIG1        0.0280
     46 H          -5.6032   14.6419   -0.1140 H       1  LIG1        0.0280
@<TRIPOS>BOND
     1    11     9    1
     2    45    43    1
     3    42    41    1
     4    41    36    1
     5    10     9    1
     6     9     3    1
     7     9    12    1
     8    22    20    1
     9    33    31    1
    10    43    44    1
    11    43    46    1
    12    43    37    1
    13     8     7    1
    14    36    37   ar
    15    36    35   ar
    16     3     2   ar
    17     3     4   ar
    18     7     2    1
    19    37    38   ar
    20     2     1   ar
    21     4    13    1
    22     4     5   ar
    23    13    17   ar
    24    13    14   ar
    25    17    16   ar
    26    14    15   ar
    27    14    18    1
    28    16    15   ar
    29    16    24    1
    30    15    20    1
    31    24    28   ar
    32    24    25   ar
    33    18    19    1
    34    28    27   ar
    35    25    29    1
    36    25    26   ar
    37    30    29    1
    38    20    21    1
    39    20    23    1
    40    35    27    1
    41    35    39   ar
    42    27    26   ar
    43    26    31    1
    44     1     5   ar
    45     1     6    1
    46    31    34    1
    47    31    32    1
    48    38    39   ar
    49    38    40    1
