@<TRIPOS>MOLECULE
mol_data/opt/b3lyp/geoms/mol2/12fi12fi12fi.out
 35 37 0 0 0
SMALL
GASTEIGER

@<TRIPOS>ATOM
      1 C           0.3691    1.6721    0.4589 C.ar    1  LIG1        0.1343
      2 C           1.6516    1.7280    0.0025 C.ar    1  LIG1        0.1581
      3 C           1.9831    3.1092   -0.2070 C.ar    1  LIG1        0.0399
      4 C           0.8514    3.8072    0.1587 C.ar    1  LIG1        0.1799
      5 O          -0.1301    2.9426    0.5612 O.2     1  LIG1       -0.4557
      6 H          -0.2890    0.8645    0.7314 H       1  LIG1        0.1068
      7 O           2.4565    0.6488   -0.2249 O.3     1  LIG1       -0.5034
      8 H           3.3147    0.9693   -0.5298 H       1  LIG1        0.2923
      9 C           3.2834    3.5985   -0.7699 C.3     1  LIG1       -0.0325
     10 H           3.3616    4.6841   -0.7162 H       1  LIG1        0.0280
     11 H           3.4040    3.2997   -1.8200 H       1  LIG1        0.0280
     12 H           4.1380    3.1892   -0.2135 H       1  LIG1        0.0280
     13 C           0.5083    5.2058    0.2042 C.ar    1  LIG1        0.2124
     14 C           1.2183    6.3761    0.3409 C.ar    1  LIG1        0.1694
     15 C           0.2949    7.4664    0.3509 C.ar    1  LIG1        0.0407
     16 C          -0.9478    6.8839    0.2171 C.ar    1  LIG1        0.1809
     17 O          -0.8274    5.5262    0.1241 O.2     1  LIG1       -0.4444
     18 O           2.5749    6.4636    0.4792 O.3     1  LIG1       -0.5029
     19 H           2.8113    7.3933    0.5910 H       1  LIG1        0.2923
     20 C           0.6740    8.9023    0.5551 C.3     1  LIG1       -0.0325
     21 H          -0.1768    9.5666    0.4059 H       1  LIG1        0.0280
     22 H           1.4515    9.2145   -0.1555 H       1  LIG1        0.0280
     23 H           1.0651    9.0741    1.5670 H       1  LIG1        0.0280
     24 C          -2.2922    7.3977    0.1529 C.ar    1  LIG1        0.2114
     25 C          -2.8569    8.5893   -0.2404 C.ar    1  LIG1        0.1687
     26 C          -4.2785    8.4780   -0.0845 C.ar    1  LIG1        0.0295
     27 C          -4.4789    7.2120    0.3833 C.ar    1  LIG1        0.0993
     28 O          -3.3070    6.5484    0.5373 O.2     1  LIG1       -0.4557
     29 H          -5.3716    6.6641    0.6434 H       1  LIG1        0.1033
     30 O          -2.1658    9.6723   -0.7076 O.3     1  LIG1       -0.5030
     31 H          -2.7985   10.3487   -0.9804 H       1  LIG1        0.2923
     32 C          -5.2967    9.5332   -0.3934 C.3     1  LIG1       -0.0332
     33 H          -6.3068    9.1725   -0.1842 H       1  LIG1        0.0280
     34 H          -5.2728    9.8303   -1.4499 H       1  LIG1        0.0280
     35 H          -5.1433   10.4383    0.2080 H       1  LIG1        0.0280
@<TRIPOS>BOND
     1    11     9    1
     2    34    32    1
     3    31    30    1
     4     9    10    1
     5     9    12    1
     6     9     3    1
     7    30    25    1
     8     8     7    1
     9    32    33    1
    10    32    26    1
    11    32    35    1
    12    25    26   ar
    13    25    24   ar
    14     7     2    1
    15     3     2   ar
    16     3     4   ar
    17    22    20    1
    18    26    27   ar
    19     2     1   ar
    20    17    13   ar
    21    17    16   ar
    22    24    16    1
    23    24    28   ar
    24     4    13    1
    25     4     5   ar
    26    13    14   ar
    27    16    15   ar
    28    14    15   ar
    29    14    18    1
    30    15    20    1
    31    27    28   ar
    32    27    29    1
    33    21    20    1
    34     1     5   ar
    35     1     6    1
    36    18    19    1
    37    20    23    1
