@<TRIPOS>MOLECULE
mol_data/opt/b3lyp/geoms/mol2/12fi.out
 13 13 0 0 0
SMALL
GASTEIGER

@<TRIPOS>ATOM
      1 C           0.0976    1.8440   -0.0195 C.ar    1  LIG1        0.1332
      2 C           1.4598    1.8523   -0.0555 C.ar    1  LIG1        0.1573
      3 C           1.8834    3.2277    0.0216 C.ar    1  LIG1        0.0287
      4 C           0.7256    3.9443    0.0987 C.ar    1  LIG1        0.0982
      5 O          -0.3630    3.1325    0.0757 O.2     1  LIG1       -0.4670
      6 H          -0.6404    1.0604   -0.0500 H       1  LIG1        0.1067
      7 H           0.5280    5.0030    0.1721 H       1  LIG1        0.1033
      8 O           2.2524    0.7440   -0.1482 O.3     1  LIG1       -0.5034
      9 H           3.1756    1.0249   -0.1544 H       1  LIG1        0.2923
     10 C           3.2948    3.7314    0.0158 C.3     1  LIG1       -0.0332
     11 H           3.3210    4.8219    0.0850 H       1  LIG1        0.0280
     12 H           3.8258    3.4523   -0.9035 H       1  LIG1        0.0280
     13 H           3.8735    3.3390    0.8620 H       1  LIG1        0.0280
@<TRIPOS>BOND
     1    12    10    1
     2     9     8    1
     3     8     2    1
     4     2     1   ar
     5     2     3   ar
     6     6     1    1
     7     1     5   ar
     8    10     3    1
     9    10    11    1
    10    10    13    1
    11     3     4   ar
    12     5     4   ar
    13     4     7    1
