@<TRIPOS>MOLECULE
mol_data/opt/b3lyp/geoms/mol2/12fi12fi12fi12fi-.out
 46 49 0 0 0
SMALL
GASTEIGER

@<TRIPOS>ATOM
      1 C           0.1542    1.7467   -0.3792 C.ar    1  LIG1        0.1343
      2 C           1.4741    1.7320   -0.0417 C.ar    1  LIG1        0.1581
      3 C           1.9005    3.0926    0.1281 C.ar    1  LIG1        0.0399
      4 C           0.7810    3.8533   -0.1374 C.ar    1  LIG1        0.1799
      5 O          -0.2806    3.0439   -0.4437 O.2     1  LIG1       -0.4557
      6 H          -0.5702    0.9773   -0.5857 H       1  LIG1        0.1068
      7 O           2.2355    0.6105    0.1176 O.3     1  LIG1       -0.5034
      8 H           3.1312    0.8826    0.3539 H       1  LIG1        0.2923
      9 C           3.2736    3.5057    0.5648 C.3     1  LIG1       -0.0325
     10 H           3.4011    4.5870    0.5223 H       1  LIG1        0.0280
     11 H           4.0468    3.0659   -0.0805 H       1  LIG1        0.0280
     12 H           3.4821    3.1795    1.5928 H       1  LIG1        0.0280
     13 C           0.5044    5.2657   -0.1602 C.ar    1  LIG1        0.2124
     14 C           1.2496    6.4119   -0.3146 C.ar    1  LIG1        0.1694
     15 C           0.3706    7.5376   -0.2792 C.ar    1  LIG1        0.0407
     16 C          -0.8909    7.0014   -0.1062 C.ar    1  LIG1        0.1809
     17 O          -0.8155    5.6375   -0.0298 O.2     1  LIG1       -0.4444
     18 O           2.6020    6.4534   -0.4995 O.3     1  LIG1       -0.5029
     19 H           2.8678    7.3754   -0.6096 H       1  LIG1        0.2923
     20 C           0.8125    8.9589   -0.4579 C.3     1  LIG1       -0.0325
     21 H          -0.0220    9.6529   -0.3654 H       1  LIG1        0.0280
     22 H           1.2675    9.1147   -1.4459 H       1  LIG1        0.0280
     23 H           1.5591    9.2437    0.2961 H       1  LIG1        0.0280
     24 C          -2.2227    7.5254    0.0042 C.ar    1  LIG1        0.2125
     25 C          -2.8154    8.7590    0.1634 C.ar    1  LIG1        0.1694
     26 C          -4.2346    8.5865    0.2162 C.ar    1  LIG1        0.0407
     27 C          -4.4366    7.2305    0.0934 C.ar    1  LIG1        0.1809
     28 O          -3.2365    6.5838   -0.0371 O.2     1  LIG1       -0.4444
     29 O          -2.1476    9.9444    0.2634 O.3     1  LIG1       -0.5029
     30 H          -2.7927   10.6524    0.3870 H       1  LIG1        0.2923
     31 C          -5.2464    9.6797    0.3838 C.3     1  LIG1       -0.0325
     32 H          -6.2585    9.2738    0.3705 H       1  LIG1        0.0280
     33 H          -5.1793   10.4227   -0.4221 H       1  LIG1        0.0280
     34 H          -5.1183   10.2117    1.3361 H       1  LIG1        0.0280
     35 C          -5.5608    6.3490    0.0690 C.ar    1  LIG1        0.2114
     36 C          -5.6157    4.9757   -0.0508 C.ar    1  LIG1        0.1687
     37 C          -6.9995    4.5996   -0.0173 C.ar    1  LIG1        0.0295
     38 C          -7.6813    5.7725    0.1208 C.ar    1  LIG1        0.0993
     39 O          -6.8397    6.8462    0.1760 O.2     1  LIG1       -0.4557
     40 H          -8.7340    5.9990    0.1922 H       1  LIG1        0.1033
     41 O          -4.6079    4.0843   -0.1786 O.3     1  LIG1       -0.5030
     42 H          -3.7598    4.5583   -0.1730 H       1  LIG1        0.2923
     43 C          -7.5386    3.2071   -0.1160 C.3     1  LIG1       -0.0332
     44 H          -7.1546    2.5773    0.6935 H       1  LIG1        0.0280
     45 H          -7.2392    2.7344   -1.0575 H       1  LIG1        0.0280
     46 H          -8.6305    3.2017   -0.0638 H       1  LIG1        0.0280
@<TRIPOS>BOND
     1    22    20    1
     2    45    43    1
     3    19    18    1
     4     6     1    1
     5    18    14    1
     6    20    21    1
     7    20    15    1
     8    20    23    1
     9     5     1   ar
    10     5     4   ar
    11    33    31    1
    12     1     2   ar
    13    14    15   ar
    14    14    13   ar
    15    15    16   ar
    16    41    42    1
    17    41    36    1
    18    13     4    1
    19    13    17   ar
    20     4     3   ar
    21    43    46    1
    22    43    37    1
    23    43    44    1
    24    16    17   ar
    25    16    24    1
    26    11     9    1
    27    36    37   ar
    28    36    35   ar
    29     2     7    1
    30     2     3   ar
    31    28    24   ar
    32    28    27   ar
    33    37    38   ar
    34    24    25   ar
    35    35    27    1
    36    35    39   ar
    37    27    26   ar
    38     7     8    1
    39    38    39   ar
    40    38    40    1
    41     3     9    1
    42    25    26   ar
    43    25    29    1
    44    26    31    1
    45    29    30    1
    46    32    31    1
    47    31    34    1
    48    10     9    1
    49     9    12    1
