@<TRIPOS>MOLECULE
mol_data/opt/b3lyp/geoms/mol2/12fi12fi.out
 24 25 0 0 0
SMALL
GASTEIGER

@<TRIPOS>ATOM
      1 C           0.1706    1.7565   -0.3147 C.ar    1  LIG1        0.1343
      2 C           1.5200    1.7748   -0.1268 C.ar    1  LIG1        0.1581
      3 C           1.9164    3.1418    0.0673 C.ar    1  LIG1        0.0399
      4 C           0.7506    3.8687   -0.0314 C.ar    1  LIG1        0.1798
      5 O          -0.3111    3.0368   -0.2622 O.2     1  LIG1       -0.4557
      6 H          -0.5462    0.9701   -0.4799 H       1  LIG1        0.1068
      7 O           2.3300    0.6763   -0.1140 O.3     1  LIG1       -0.5034
      8 H           3.2377    0.9691    0.0360 H       1  LIG1        0.2923
      9 C           3.3126    3.5939    0.3729 C.3     1  LIG1       -0.0325
     10 H           3.4049    4.6784    0.3161 H       1  LIG1        0.0280
     11 H           4.0323    3.1748   -0.3438 H       1  LIG1        0.0280
     12 H           3.6279    3.2766    1.3759 H       1  LIG1        0.0280
     13 C           0.4397    5.2755    0.0496 C.ar    1  LIG1        0.2114
     14 C           1.1274    6.4348   -0.2201 C.ar    1  LIG1        0.1687
     15 C           0.2546    7.5413    0.0517 C.ar    1  LIG1        0.0295
     16 C          -0.9154    6.9696    0.4579 C.ar    1  LIG1        0.0993
     17 O          -0.8284    5.6164    0.4702 O.2     1  LIG1       -0.4557
     18 H          -1.8640    7.3869    0.7595 H       1  LIG1        0.1033
     19 O           2.4137    6.4987   -0.6790 O.3     1  LIG1       -0.5030
     20 H           2.6349    7.4228   -0.8503 H       1  LIG1        0.2923
     21 C           0.5814    8.9954   -0.1036 C.3     1  LIG1       -0.0332
     22 H          -0.2754    9.6186    0.1643 H       1  LIG1        0.0280
     23 H           0.8524    9.2473   -1.1372 H       1  LIG1        0.0280
     24 H           1.4174    9.2977    0.5399 H       1  LIG1        0.0280
@<TRIPOS>BOND
     1    23    21    1
     2    20    19    1
     3    19    14    1
     4     6     1    1
     5    11     9    1
     6     1     5   ar
     7     1     2   ar
     8     5     4   ar
     9    14    13   ar
    10    14    15   ar
    11     2     7    1
    12     2     3   ar
    13     7     8    1
    14    21    15    1
    15    21    22    1
    16    21    24    1
    17     4    13    1
    18     4     3   ar
    19    13    17   ar
    20    15    16   ar
    21     3     9    1
    22    10     9    1
    23     9    12    1
    24    16    17   ar
    25    16    18    1
