@<TRIPOS>MOLECULE
mol_data/opt/b3lyp/geoms/mol2/12fi12fi-12fi12fi-.out
 46 49 0 0 0
SMALL
GASTEIGER

@<TRIPOS>ATOM
      1 C          -0.0218    1.7615   -0.1094 C.ar    1  LIG1        0.1343
      2 C           1.3342    1.6640   -0.1778 C.ar    1  LIG1        0.1581
      3 C           1.8856    2.9924   -0.1445 C.ar    1  LIG1        0.0399
      4 C           0.7966    3.8274   -0.0569 C.ar    1  LIG1        0.1799
      5 O          -0.3687    3.0960   -0.0340 O.2     1  LIG1       -0.4557
      6 H          -0.8254    1.0458   -0.1033 H       1  LIG1        0.1068
      7 O           2.0316    0.4960   -0.2610 O.3     1  LIG1       -0.5034
      8 H           2.9729    0.7057   -0.3090 H       1  LIG1        0.2923
      9 C           3.3436    3.3379   -0.1980 C.3     1  LIG1       -0.0325
     10 H           3.4994    4.4138   -0.1065 H       1  LIG1        0.0280
     11 H           3.8006    3.0173   -1.1442 H       1  LIG1        0.0280
     12 H           3.9011    2.8536    0.6154 H       1  LIG1        0.0280
     13 C           0.6026    5.2418    0.0140 C.ar    1  LIG1        0.2124
     14 C          -0.5461    5.9990    0.1073 C.ar    1  LIG1        0.1694
     15 C          -0.1658    7.3717    0.1633 C.ar    1  LIG1        0.0407
     16 C           1.2152    7.3638    0.0915 C.ar    1  LIG1        0.1809
     17 O           1.6892    6.0820    0.0012 O.2     1  LIG1       -0.4444
     18 O          -1.8323    5.5728    0.1540 O.3     1  LIG1       -0.5029
     19 H          -1.8242    4.6031    0.1217 H       1  LIG1        0.2923
     20 C          -1.1117    8.5281    0.2853 C.3     1  LIG1       -0.0325
     21 H          -2.0855    8.1752    0.6333 H       1  LIG1        0.0280
     22 H          -1.2753    9.0288   -0.6775 H       1  LIG1        0.0280
     23 H          -0.7481    9.2743    0.9978 H       1  LIG1        0.0280
     24 C           2.2055    8.3927    0.0957 C.ar    1  LIG1        0.2125
     25 C           3.5824    8.3993    0.1450 C.ar    1  LIG1        0.1694
     26 C           4.0317    9.7572    0.1265 C.ar    1  LIG1        0.0407
     27 C           2.8871   10.5192    0.0682 C.ar    1  LIG1        0.1809
     28 O           1.7754    9.7086    0.0471 O.2     1  LIG1       -0.4444
     29 O           4.3630    7.2866    0.2037 O.3     1  LIG1       -0.5029
     30 H           5.2872    7.5631    0.2545 H       1  LIG1        0.2923
     31 C           5.4620   10.2042    0.1648 C.3     1  LIG1       -0.0325
     32 H           5.5332   11.2893    0.0866 H       1  LIG1        0.0280
     33 H           6.0404    9.7736   -0.6633 H       1  LIG1        0.0280
     34 H           5.9546    9.9087    1.1006 H       1  LIG1        0.0280
     35 C           2.5908   11.9171    0.0142 C.ar    1  LIG1        0.2114
     36 C           1.3892   12.5820   -0.1084 C.ar    1  LIG1        0.1687
     37 C           1.6717   13.9872   -0.1126 C.ar    1  LIG1        0.0295
     38 C           3.0275   14.0731    0.0070 C.ar    1  LIG1        0.0993
     39 O           3.6089   12.8403    0.0857 O.2     1  LIG1       -0.4557
     40 H           3.7036   14.9130    0.0495 H       1  LIG1        0.1033
     41 O           0.1389   12.0712   -0.2161 O.3     1  LIG1       -0.5030
     42 H           0.2045   11.1036   -0.2141 H       1  LIG1        0.2923
     43 C           0.6687   15.0918   -0.2277 C.3     1  LIG1       -0.0332
     44 H          -0.0523   15.0589    0.5962 H       1  LIG1        0.0280
     45 H           0.0958   15.0093   -1.1575 H       1  LIG1        0.0280
     46 H           1.1562   16.0701   -0.2139 H       1  LIG1        0.0280
@<TRIPOS>BOND
     1    45    43    1
     2    11     9    1
     3    22    20    1
     4    33    31    1
     5     8     7    1
     6     7     2    1
     7    43    46    1
     8    43    37    1
     9    43    44    1
    10    41    42    1
    11    41    36    1
    12     9     3    1
    13     9    10    1
    14     9    12    1
    15     2     3   ar
    16     2     1   ar
    17     3     4   ar
    18    37    36   ar
    19    37    38   ar
    20     1     6    1
    21     1     5   ar
    22    36    35   ar
    23     4     5   ar
    24     4    13    1
    25    17    13   ar
    26    17    16   ar
    27    38    40    1
    28    38    39   ar
    29    13    14   ar
    30    35    27    1
    31    35    39   ar
    32    28    27   ar
    33    28    24   ar
    34    27    26   ar
    35    32    31    1
    36    16    24    1
    37    16    15   ar
    38    24    25   ar
    39    14    18    1
    40    14    15   ar
    41    19    18    1
    42    26    25   ar
    43    26    31    1
    44    25    29    1
    45    15    20    1
    46    31    34    1
    47    29    30    1
    48    20    21    1
    49    20    23    1
