@<TRIPOS>MOLECULE
mol_data/opt/b3lyp/geoms/mol2/12fi12fi-12fi-12fi-.out
 46 49 0 0 0
SMALL
GASTEIGER

@<TRIPOS>ATOM
      1 C          -0.4327    1.7218   -0.2863 C.ar    1  LIG1        0.1343
      2 C           0.8832    1.5343   -0.5806 C.ar    1  LIG1        0.1581
      3 C           1.5412    2.8131   -0.5372 C.ar    1  LIG1        0.0399
      4 C           0.5535    3.7112   -0.2110 C.ar    1  LIG1        0.1799
      5 O          -0.6510    3.0646   -0.0556 O.2     1  LIG1       -0.4557
      6 H          -1.2826    1.0666   -0.2053 H       1  LIG1        0.1068
      7 O           1.4575    0.3324   -0.8651 O.3     1  LIG1       -0.5034
      8 H           2.3973    0.4738   -1.0354 H       1  LIG1        0.2923
      9 C           2.9969    3.0591   -0.7962 C.3     1  LIG1       -0.0325
     10 H           3.2418    4.1156   -0.6834 H       1  LIG1        0.0280
     11 H           3.2830    2.7591   -1.8132 H       1  LIG1        0.0280
     12 H           3.6313    2.4981   -0.0970 H       1  LIG1        0.0280
     13 C           0.4896    5.1259    0.0014 C.ar    1  LIG1        0.2124
     14 C          -0.5637    5.9345    0.3689 C.ar    1  LIG1        0.1694
     15 C          -0.0662    7.2674    0.4895 C.ar    1  LIG1        0.0407
     16 C           1.2716    7.1894    0.1596 C.ar    1  LIG1        0.1809
     17 O           1.6185    5.8932   -0.1401 O.2     1  LIG1       -0.4444
     18 O          -1.8499    5.5893    0.6220 O.3     1  LIG1       -0.5029
     19 H          -1.9272    4.6286    0.5086 H       1  LIG1        0.2923
     20 C          -0.8556    8.4482    0.9675 C.3     1  LIG1       -0.0325
     21 H          -1.4103    8.1900    1.8752 H       1  LIG1        0.0280
     22 H          -1.6026    8.7704    0.2310 H       1  LIG1        0.0280
     23 H          -0.2072    9.2974    1.1952 H       1  LIG1        0.0280
     24 C           2.3003    8.1859    0.0429 C.ar    1  LIG1        0.2125
     25 C           2.2831    9.4833   -0.4152 C.ar    1  LIG1        0.1694
     26 C           3.5952   10.0253   -0.2629 C.ar    1  LIG1        0.0407
     27 C           4.3530    8.9913    0.2469 C.ar    1  LIG1        0.1809
     28 O           3.5844    7.8734    0.4340 O.2     1  LIG1       -0.4444
     29 O           1.2486   10.2003   -0.9333 O.3     1  LIG1       -0.5029
     30 H           0.4977    9.6063   -1.0724 H       1  LIG1        0.2923
     31 C           3.9946   11.4404   -0.5538 C.3     1  LIG1       -0.0325
     32 H           3.3071   12.1396   -0.0667 H       1  LIG1        0.0280
     33 H           3.9564   11.6659   -1.6268 H       1  LIG1        0.0280
     34 H           5.0040   11.6518   -0.1939 H       1  LIG1        0.0280
     35 C           5.7563    8.8921    0.5540 C.ar    1  LIG1        0.2114
     36 C           6.8757    9.3676   -0.0878 C.ar    1  LIG1        0.1687
     37 C           8.0234    8.9718    0.6734 C.ar    1  LIG1        0.0295
     38 C           7.5114    8.2637    1.7215 C.ar    1  LIG1        0.0993
     39 O           6.1551    8.1972    1.6772 O.2     1  LIG1       -0.4557
     40 H           7.9801    7.7582    2.5523 H       1  LIG1        0.1033
     41 O           6.9674   10.0681   -1.2515 O.3     1  LIG1       -0.5030
     42 H           6.0984   10.0740   -1.6771 H       1  LIG1        0.2923
     43 C           9.4544    9.2661    0.3477 C.3     1  LIG1       -0.0332
     44 H           9.6482   10.3442    0.3396 H       1  LIG1        0.0280
     45 H           9.7208    8.8857   -0.6443 H       1  LIG1        0.0280
     46 H          10.1254    8.8073    1.0787 H       1  LIG1        0.0280
@<TRIPOS>BOND
     1    11     9    1
     2    42    41    1
     3    33    31    1
     4    41    36    1
     5    30    29    1
     6     8     7    1
     7    29    25    1
     8     7     2    1
     9     9    10    1
    10     9     3    1
    11     9    12    1
    12    45    43    1
    13     2     3   ar
    14     2     1   ar
    15    31    26    1
    16    31    34    1
    17    31    32    1
    18     3     4   ar
    19    25    26   ar
    20    25    24   ar
    21     1     6    1
    22     1     5   ar
    23    26    27   ar
    24     4     5   ar
    25     4    13    1
    26    17    13   ar
    27    17    16   ar
    28    36    35   ar
    29    36    37   ar
    30    13    14   ar
    31    24    16    1
    32    24    28   ar
    33    16    15   ar
    34    22    20    1
    35    27    28   ar
    36    27    35    1
    37    44    43    1
    38    43    37    1
    39    43    46    1
    40    14    15   ar
    41    14    18    1
    42    15    20    1
    43    19    18    1
    44    35    39   ar
    45    37    38   ar
    46    20    23    1
    47    20    21    1
    48    39    38   ar
    49    38    40    1
