@<TRIPOS>MOLECULE
mol_data/opt/b3lyp/geoms/mol2/12fi12fi-12fi-12fi.out
 46 49 0 0 0
SMALL
GASTEIGER

@<TRIPOS>ATOM
      1 C          -0.3503    1.7269   -0.1880 C.ar    1  LIG1        0.1343
      2 C           0.9612    1.5644   -0.5147 C.ar    1  LIG1        0.1581
      3 C           1.5906    2.8582   -0.5132 C.ar    1  LIG1        0.0399
      4 C           0.5906    3.7401   -0.1787 C.ar    1  LIG1        0.1799
      5 O          -0.5937    3.0694    0.0226 O.2     1  LIG1       -0.4557
      6 H          -1.1819    1.0541   -0.0703 H       1  LIG1        0.1068
      7 O           1.5574    0.3696   -0.7871 O.3     1  LIG1       -0.5034
      8 H           2.4815    0.5342   -1.0135 H       1  LIG1        0.2923
      9 C           3.0335    3.1334   -0.8131 C.3     1  LIG1       -0.0325
     10 H           3.2779    4.1824   -0.6413 H       1  LIG1        0.0280
     11 H           3.2838    2.9029   -1.8575 H       1  LIG1        0.0280
     12 H           3.6961    2.5322   -0.1760 H       1  LIG1        0.0280
     13 C           0.5034    5.1559    0.0093 C.ar    1  LIG1        0.2124
     14 C          -0.5462    5.9512    0.4147 C.ar    1  LIG1        0.1694
     15 C          -0.0696    7.2943    0.4950 C.ar    1  LIG1        0.0407
     16 C           1.2534    7.2358    0.1013 C.ar    1  LIG1        0.1809
     17 O           1.6094    5.9428   -0.1968 O.2     1  LIG1       -0.4444
     18 O          -1.8117    5.5838    0.7351 O.3     1  LIG1       -0.5029
     19 H          -1.8742    4.6205    0.6361 H       1  LIG1        0.2923
     20 C          -0.8577    8.4656    0.9987 C.3     1  LIG1       -0.0325
     21 H          -1.4083    8.1886    1.9032 H       1  LIG1        0.0280
     22 H          -1.6088    8.8049    0.2735 H       1  LIG1        0.0280
     23 H          -0.2083    9.3102    1.2404 H       1  LIG1        0.0280
     24 C           2.2608    8.2418   -0.0735 C.ar    1  LIG1        0.2125
     25 C           2.2132    9.5508   -0.5005 C.ar    1  LIG1        0.1694
     26 C           3.5387   10.0758   -0.4935 C.ar    1  LIG1        0.0407
     27 C           4.3298    9.0255   -0.0704 C.ar    1  LIG1        0.1809
     28 O           3.5753    7.9157    0.1839 O.2     1  LIG1       -0.4444
     29 O           1.1387   10.2784   -0.9131 O.3     1  LIG1       -0.5029
     30 H           0.3920    9.6787   -1.0484 H       1  LIG1        0.2923
     31 C           3.9184   11.4668   -0.8995 C.3     1  LIG1       -0.0325
     32 H           3.7539   12.1820   -0.0841 H       1  LIG1        0.0280
     33 H           3.3021   11.7944   -1.7423 H       1  LIG1        0.0280
     34 H           4.9690   11.5263   -1.1853 H       1  LIG1        0.0280
     35 C           5.7417    8.8810    0.1401 C.ar    1  LIG1        0.2114
     36 C           6.5497    7.8161    0.4741 C.ar    1  LIG1        0.1687
     37 C           7.9001    8.3003    0.5422 C.ar    1  LIG1        0.0295
     38 C           7.8166    9.6280    0.2437 C.ar    1  LIG1        0.0993
     39 O           6.5324   10.0010   -0.0005 O.2     1  LIG1       -0.4557
     40 H           8.5582   10.4085    0.1708 H       1  LIG1        0.1033
     41 O           6.1223    6.5420    0.6868 O.3     1  LIG1       -0.5030
     42 H           6.8834    6.0004    0.9316 H       1  LIG1        0.2923
     43 C           9.1183    7.4927    0.8722 C.3     1  LIG1       -0.0332
     44 H          10.0169    8.1143    0.8529 H       1  LIG1        0.0280
     45 H           9.2723    6.6758    0.1558 H       1  LIG1        0.0280
     46 H           9.0538    7.0468    1.8730 H       1  LIG1        0.0280
@<TRIPOS>BOND
     1    11     9    1
     2    33    31    1
     3    34    31    1
     4    30    29    1
     5     8     7    1
     6    29    25    1
     7    31    26    1
     8    31    32    1
     9     9    10    1
    10     9     3    1
    11     9    12    1
    12     7     2    1
    13     2     3   ar
    14     2     1   ar
    15     3     4   ar
    16    25    26   ar
    17    25    24   ar
    18    26    27   ar
    19    17    13   ar
    20    17    16   ar
    21     1     6    1
    22     1     5   ar
    23     4    13    1
    24     4     5   ar
    25    24    16    1
    26    24    28   ar
    27    27    35    1
    28    27    28   ar
    29    39    35   ar
    30    39    38   ar
    31    13    14   ar
    32    16    15   ar
    33    35    36   ar
    34    45    43    1
    35    40    38    1
    36    38    37   ar
    37    22    20    1
    38    14    15   ar
    39    14    18    1
    40    36    37   ar
    41    36    41    1
    42    15    20    1
    43    37    43    1
    44    19    18    1
    45    41    42    1
    46    44    43    1
    47    43    46    1
    48    20    23    1
    49    20    21    1
