@<TRIPOS>MOLECULE
mol_data/opt/b3lyp/geoms/mol2/12fi12fi-12fi12fi.out
 46 49 0 0 0
SMALL
GASTEIGER

@<TRIPOS>ATOM
      1 C           0.0569    1.6917   -0.1624 C.ar    1  LIG1        0.1343
      2 C           1.4167    1.6311   -0.1511 C.ar    1  LIG1        0.1581
      3 C           1.9293    2.9744   -0.1027 C.ar    1  LIG1        0.0399
      4 C           0.8149    3.7803   -0.0882 C.ar    1  LIG1        0.1799
      5 O          -0.3295    3.0170   -0.1240 O.2     1  LIG1       -0.4557
      6 H          -0.7261    0.9542   -0.1937 H       1  LIG1        0.1068
      7 O           2.1498    0.4819   -0.1802 O.3     1  LIG1       -0.5034
      8 H           3.0860    0.7181   -0.1650 H       1  LIG1        0.2923
      9 C           3.3781    3.3592   -0.0759 C.3     1  LIG1       -0.0325
     10 H           3.4990    4.4418   -0.0184 H       1  LIG1        0.0280
     11 H           3.9040    3.0160   -0.9775 H       1  LIG1        0.0280
     12 H           3.8945    2.9228    0.7902 H       1  LIG1        0.0280
     13 C           0.5801    5.1897   -0.0447 C.ar    1  LIG1        0.2124
     14 C          -0.5908    5.9171   -0.0258 C.ar    1  LIG1        0.1694
     15 C          -0.2507    7.3014    0.0248 C.ar    1  LIG1        0.0407
     16 C           1.1311    7.3290    0.0322 C.ar    1  LIG1        0.1809
     17 O           1.6437    6.0575   -0.0098 O.2     1  LIG1       -0.4444
     18 O          -1.8673    5.4592   -0.0458 O.3     1  LIG1       -0.5029
     19 H          -1.8332    4.4901   -0.0743 H       1  LIG1        0.2923
     20 C          -1.2366    8.4287    0.0618 C.3     1  LIG1       -0.0325
     21 H          -1.9596    8.2795    0.8712 H       1  LIG1        0.0280
     22 H          -1.8118    8.4759   -0.8706 H       1  LIG1        0.0280
     23 H          -0.7422    9.3889    0.2076 H       1  LIG1        0.0280
     24 C           2.1027    8.3787    0.0743 C.ar    1  LIG1        0.2125
     25 C           3.4801    8.4001    0.1259 C.ar    1  LIG1        0.1694
     26 C           3.9025    9.7647    0.1721 C.ar    1  LIG1        0.0407
     27 C           2.7404   10.5073    0.1318 C.ar    1  LIG1        0.1809
     28 O           1.6529    9.6768    0.0717 O.2     1  LIG1       -0.4444
     29 O           4.2834    7.3003    0.1489 O.3     1  LIG1       -0.5029
     30 H           5.2017    7.5964    0.1937 H       1  LIG1        0.2923
     31 C           5.3293   10.2058    0.3020 C.3     1  LIG1       -0.0325
     32 H           5.4270   11.2859    0.1984 H       1  LIG1        0.0280
     33 H           5.9587    9.7503   -0.4748 H       1  LIG1        0.0280
     34 H           5.7489    9.9182    1.2752 H       1  LIG1        0.0280
     35 C           2.4362   11.9140    0.1373 C.ar    1  LIG1        0.2114
     36 C           3.1184   13.0626   -0.1960 C.ar    1  LIG1        0.1687
     37 C           2.2402   14.1764    0.0171 C.ar    1  LIG1        0.0295
     38 C           1.0735   13.6222    0.4560 C.ar    1  LIG1        0.0993
     39 O           1.1667   12.2717    0.5399 O.2     1  LIG1       -0.4557
     40 H           0.1239   14.0504    0.7381 H       1  LIG1        0.1033
     41 O           4.4018   13.1102   -0.6623 O.3     1  LIG1       -0.5030
     42 H           4.6216   14.0265   -0.8729 H       1  LIG1        0.2923
     43 C           2.5585   15.6217   -0.2183 C.3     1  LIG1       -0.0332
     44 H           1.7012   16.2541    0.0249 H       1  LIG1        0.0280
     45 H           2.8179   15.8190   -1.2666 H       1  LIG1        0.0280
     46 H           3.3988   15.9617    0.4003 H       1  LIG1        0.0280
@<TRIPOS>BOND
     1    45    43    1
     2    11     9    1
     3    42    41    1
     4    22    20    1
     5    41    36    1
     6    33    31    1
     7    43    37    1
     8    43    44    1
     9    43    46    1
    10    36    37   ar
    11    36    35   ar
    12     6     1    1
    13     7     8    1
    14     7     2    1
    15     1     2   ar
    16     1     5   ar
    17     2     3   ar
    18     5     4   ar
    19     3     4   ar
    20     3     9    1
    21     4    13    1
    22     9    10    1
    23     9    12    1
    24    19    18    1
    25    18    14    1
    26    13    14   ar
    27    13    17   ar
    28    14    15   ar
    29    17    16   ar
    30    37    38   ar
    31    15    16   ar
    32    15    20    1
    33    16    24    1
    34    20    23    1
    35    20    21    1
    36    28    24   ar
    37    28    27   ar
    38    24    25   ar
    39    25    29    1
    40    25    26   ar
    41    27    35    1
    42    27    26   ar
    43    35    39   ar
    44    29    30    1
    45    26    31    1
    46    32    31    1
    47    31    34    1
    48    38    39   ar
    49    38    40    1
