@<TRIPOS>MOLECULE
mol_data/opt/b3lyp/geoms/mol2/12fi12ii-12ae-12ai-.out
 45 48 0 0 0
SMALL
GASTEIGER

@<TRIPOS>ATOM
      1 C           0.9213    1.6622    0.8780 C.ar    1  LIG1        0.1343
      2 C           2.0491    1.7693    0.1188 C.ar    1  LIG1        0.1581
      3 C           2.1725    3.1438   -0.2778 C.ar    1  LIG1        0.0398
      4 C           1.0970    3.7825    0.2979 C.ar    1  LIG1        0.1765
      5 O           0.3308    2.8891    0.9953 O.2     1  LIG1       -0.4558
      6 H           0.4337    0.8349    1.3656 H       1  LIG1        0.1068
      7 O           2.8700    0.7325   -0.2185 O.3     1  LIG1       -0.5034
      8 H           3.6339    1.0846   -0.6917 H       1  LIG1        0.2923
      9 C           3.2116    3.7032   -1.2012 C.3     1  LIG1       -0.0325
     10 H           4.1803    3.8577   -0.7089 H       1  LIG1        0.0280
     11 H           2.8922    4.6665   -1.6060 H       1  LIG1        0.0280
     12 H           3.3804    3.0329   -2.0539 H       1  LIG1        0.0280
     13 C           0.6576    5.1589    0.2846 C.ar    1  LIG1        0.1742
     14 C           1.3184    6.3580    0.4330 C.ar    1  LIG1        0.0020
     15 C           0.3229    7.3849    0.3182 C.ar    1  LIG1        0.0020
     16 C          -0.8744    6.7310    0.1182 C.ar    1  LIG1        0.1739
     17 O          -0.6823    5.3798    0.0950 O.2     1  LIG1       -0.4481
     18 C           2.7709    6.5589    0.7434 C.3     1  LIG1       -0.0357
     19 H           2.9012    7.2845    1.5538 H       1  LIG1        0.0279
     20 H           3.3329    6.9378   -0.1189 H       1  LIG1        0.0279
     21 H           3.2341    5.6213    1.0598 H       1  LIG1        0.0279
     22 C           0.5400    8.8626    0.4373 C.3     1  LIG1       -0.0357
     23 H          -0.3065    9.3501    0.9311 H       1  LIG1        0.0279
     24 H           0.6688    9.3411   -0.5422 H       1  LIG1        0.0279
     25 H           1.4380    9.0817    1.0221 H       1  LIG1        0.0279
     26 C          -2.2172    7.2096   -0.0646 C.ar    1  LIG1        0.1722
     27 C          -2.7405    8.4438   -0.3554 C.ar    1  LIG1        0.0034
     28 C          -4.1653    8.2913   -0.3947 C.ar    1  LIG1        0.0741
     29 C          -4.4119    6.9504   -0.1301 C.ar    1  LIG1        0.1860
     30 O          -3.2345    6.2982    0.0714 O.2     1  LIG1       -0.4474
     31 H          -2.1954    9.3542   -0.5474 H       1  LIG1        0.0669
     32 C          -5.1203    9.3018   -0.6612 C.1     1  LIG1       -0.0657
     33 C          -5.9265   10.1763   -0.8900 C.1     1  LIG1       -0.1138
     34 H          -6.6311   10.9492   -1.0920 H       1  LIG1        0.1232
     35 C          -5.6241    6.1894   -0.0407 C.ar    1  LIG1        0.1712
     36 C          -6.9479    6.5259   -0.1910 C.ar    1  LIG1       -0.0098
     37 C          -7.7045    5.3289    0.0214 C.ar    1  LIG1       -0.0120
     38 C          -6.7805    4.3576    0.2842 C.ar    1  LIG1        0.0956
     39 O          -5.5134    4.8573    0.2518 O.2     1  LIG1       -0.4595
     40 H          -6.8630    3.3045    0.5048 H       1  LIG1        0.1032
     41 H          -7.3254    7.5101   -0.4246 H       1  LIG1        0.0659
     42 C          -9.1945    5.1732   -0.0334 C.3     1  LIG1       -0.0367
     43 H          -9.4925    4.1425    0.1778 H       1  LIG1        0.0278
     44 H          -9.5881    5.4388   -1.0209 H       1  LIG1        0.0278
     45 H          -9.6908    5.8208    0.6980 H       1  LIG1        0.0278
@<TRIPOS>BOND
     1    12     9    1
     2    11     9    1
     3     9    10    1
     4     9     3    1
     5    34    33    1
     6    44    42    1
     7    33    32    3
     8     8     7    1
     9    32    28    1
    10    31    27    1
    11    24    22    1
    12    41    36    1
    13    28    27   ar
    14    28    29   ar
    15    27    26   ar
    16     3     2   ar
    17     3     4   ar
    18     7     2    1
    19    36    35   ar
    20    36    37   ar
    21    29    35    1
    22    29    30   ar
    23    20    18    1
    24    26    30   ar
    25    26    16    1
    26    35    39   ar
    27    42    37    1
    28    42    43    1
    29    42    45    1
    30    37    38   ar
    31    17    16   ar
    32    17    13   ar
    33    16    15   ar
    34     2     1   ar
    35    39    38   ar
    36    38    40    1
    37    13     4    1
    38    13    14   ar
    39     4     5   ar
    40    15    14   ar
    41    15    22    1
    42    14    18    1
    43    22    23    1
    44    22    25    1
    45    18    21    1
    46    18    19    1
    47     1     5   ar
    48     1     6    1
