@<TRIPOS>MOLECULE
mol_data/opt/b3lyp/geoms/mol2/12fi12fi-.out
 24 25 0 0 0
SMALL
GASTEIGER

@<TRIPOS>ATOM
      1 C           0.1174    1.8478   -0.0859 C.ar    1  LIG1        0.1343
      2 C           1.4764    1.7849   -0.0544 C.ar    1  LIG1        0.1581
      3 C           1.9885    3.1296   -0.0110 C.ar    1  LIG1        0.0399
      4 C           0.8766    3.9360   -0.0195 C.ar    1  LIG1        0.1798
      5 O          -0.2670    3.1735   -0.0648 O.2     1  LIG1       -0.4557
      6 H          -0.6662    1.1112   -0.1219 H       1  LIG1        0.1068
      7 O           2.2072    0.6349   -0.0631 O.3     1  LIG1       -0.5034
      8 H           3.1443    0.8661   -0.0356 H       1  LIG1        0.2923
      9 C           3.4365    3.5138    0.0326 C.3     1  LIG1       -0.0325
     10 H           3.5513    4.5978    0.0593 H       1  LIG1        0.0280
     11 H           3.9800    3.1461   -0.8482 H       1  LIG1        0.0280
     12 H           3.9372    3.1071    0.9215 H       1  LIG1        0.0280
     13 C           0.6333    5.3492    0.0070 C.ar    1  LIG1        0.2114
     14 C          -0.5465    6.0585   -0.0057 C.ar    1  LIG1        0.1687
     15 C          -0.2133    7.4527    0.0341 C.ar    1  LIG1        0.0295
     16 C           1.1494    7.4865    0.0680 C.ar    1  LIG1        0.0993
     17 O           1.6877    6.2317    0.0527 O.2     1  LIG1       -0.4557
     18 H           1.8579    8.2996    0.1038 H       1  LIG1        0.1033
     19 O          -1.8186    5.5911   -0.0473 O.3     1  LIG1       -0.5030
     20 H          -1.7773    4.6220   -0.0687 H       1  LIG1        0.2923
     21 C          -1.1802    8.5951    0.0361 C.3     1  LIG1       -0.0332
     22 H          -1.8526    8.5424    0.8992 H       1  LIG1        0.0280
     23 H          -1.8094    8.5820   -0.8604 H       1  LIG1        0.0280
     24 H          -0.6573    9.5545    0.0706 H       1  LIG1        0.0280
@<TRIPOS>BOND
     1    23    21    1
     2    11     9    1
     3     6     1    1
     4     1     5   ar
     5     1     2   ar
     6    20    19    1
     7     5     4   ar
     8     7     2    1
     9     7     8    1
    10     2     3   ar
    11    19    14    1
    12     4     3   ar
    13     4    13    1
    14     3     9    1
    15    14    13   ar
    16    14    15   ar
    17    13    17   ar
    18     9    10    1
    19     9    12    1
    20    15    21    1
    21    15    16   ar
    22    21    24    1
    23    21    22    1
    24    17    16   ar
    25    16    18    1
