@<TRIPOS>MOLECULE
mol_data/opt/b3lyp/geoms/mol2/12fi12fi12fi-12fi.out
 46 49 0 0 0
SMALL
GASTEIGER

@<TRIPOS>ATOM
      1 C           0.1424    1.7482   -0.4648 C.ar    1  LIG1        0.1343
      2 C           1.4672    1.6828   -0.1556 C.ar    1  LIG1        0.1581
      3 C           1.9411    3.0233    0.0489 C.ar    1  LIG1        0.0399
      4 C           0.8417    3.8276   -0.1688 C.ar    1  LIG1        0.1799
      5 O          -0.2522    3.0615   -0.4786 O.2     1  LIG1       -0.4557
      6 H          -0.6097    1.0089   -0.6813 H       1  LIG1        0.1068
      7 O           2.1958    0.5342   -0.0491 O.3     1  LIG1       -0.5034
      8 H           3.1043    0.7696    0.1778 H       1  LIG1        0.2923
      9 C           3.3377    3.3756    0.4637 C.3     1  LIG1       -0.0325
     10 H           3.4941    4.4538    0.4754 H       1  LIG1        0.0280
     11 H           4.0788    2.9496   -0.2268 H       1  LIG1        0.0280
     12 H           3.5665    2.9904    1.4668 H       1  LIG1        0.0280
     13 C           0.5989    5.2447   -0.1428 C.ar    1  LIG1        0.2124
     14 C           1.3584    6.3909   -0.2022 C.ar    1  LIG1        0.1694
     15 C           0.4907    7.5272   -0.1491 C.ar    1  LIG1        0.0407
     16 C          -0.7802    7.0029   -0.0716 C.ar    1  LIG1        0.1809
     17 O          -0.7290    5.6320   -0.0612 O.2     1  LIG1       -0.4444
     18 O           2.7185    6.4252   -0.3118 O.3     1  LIG1       -0.5029
     19 H           2.9982    7.3484   -0.3607 H       1  LIG1        0.2923
     20 C           0.9194    8.9633   -0.1930 C.3     1  LIG1       -0.0325
     21 H           0.0575    9.6317   -0.1644 H       1  LIG1        0.0280
     22 H           1.4806    9.1894   -1.1101 H       1  LIG1        0.0280
     23 H           1.5639    9.2192    0.6590 H       1  LIG1        0.0280
     24 C          -2.1030    7.5297   -0.0059 C.ar    1  LIG1        0.2125
     25 C          -3.3268    6.8933    0.0382 C.ar    1  LIG1        0.1694
     26 C          -4.3403    7.8965    0.0852 C.ar    1  LIG1        0.0407
     27 C          -3.6576    9.0972    0.0679 C.ar    1  LIG1        0.1809
     28 O          -2.3038    8.8879    0.0129 O.2     1  LIG1       -0.4444
     29 O          -3.5900    5.5658    0.0323 O.3     1  LIG1       -0.5029
     30 H          -2.7472    5.0862   -0.0230 H       1  LIG1        0.2923
     31 C          -5.8124    7.6256    0.1402 C.3     1  LIG1       -0.0325
     32 H          -6.1039    7.2268    1.1193 H       1  LIG1        0.0280
     33 H          -6.0886    6.8717   -0.6041 H       1  LIG1        0.0280
     34 H          -6.3928    8.5297   -0.0429 H       1  LIG1        0.0280
     35 C          -4.0598   10.4733    0.0918 C.ar    1  LIG1        0.2114
     36 C          -3.3678   11.6631    0.0226 C.ar    1  LIG1        0.1687
     37 C          -4.3266   12.7291    0.0959 C.ar    1  LIG1        0.0295
     38 C          -5.5368   12.1106    0.2044 C.ar    1  LIG1        0.0993
     39 O          -5.4024   10.7574    0.2058 O.2     1  LIG1       -0.4557
     40 H          -6.5449   12.4862    0.2878 H       1  LIG1        0.1033
     41 O          -2.0151   11.7824   -0.0961 O.3     1  LIG1       -0.5030
     42 H          -1.7934   12.7212   -0.1390 H       1  LIG1        0.2923
     43 C          -4.0300   14.1974    0.0576 C.3     1  LIG1       -0.0332
     44 H          -4.9490   14.7838    0.1339 H       1  LIG1        0.0280
     45 H          -3.5353   14.4900   -0.8774 H       1  LIG1        0.0280
     46 H          -3.3791   14.5042    0.8862 H       1  LIG1        0.0280
@<TRIPOS>BOND
     1    22    20    1
     2    45    43    1
     3     6     1    1
     4    33    31    1
     5     5     1   ar
     6     5     4   ar
     7     1     2   ar
     8    19    18    1
     9    18    14    1
    10    11     9    1
    11    14    15   ar
    12    14    13   ar
    13    20    21    1
    14    20    15    1
    15    20    23    1
    16     4    13    1
    17     4     3   ar
    18     2     7    1
    19     2     3   ar
    20    15    16   ar
    21    13    17   ar
    22    42    41    1
    23    41    36    1
    24    16    17   ar
    25    16    24    1
    26     7     8    1
    27    34    31    1
    28    30    29    1
    29    24    28   ar
    30    24    25   ar
    31    28    27   ar
    32    36    35   ar
    33    36    37   ar
    34    29    25    1
    35    25    26   ar
    36     3     9    1
    37    43    37    1
    38    43    44    1
    39    43    46    1
    40    27    26   ar
    41    27    35    1
    42    26    31    1
    43    35    39   ar
    44    37    38   ar
    45    31    32    1
    46    38    39   ar
    47    38    40    1
    48     9    10    1
    49     9    12    1
