@<TRIPOS>MOLECULE
mol_data/opt/b3lyp/geoms/mol2/12fl12fl12fl12fl.out
 50 53 0 0 0
SMALL
GASTEIGER

@<TRIPOS>ATOM
      1 C           0.2208    1.6067    0.0000 C.ar    1  LIG1        0.1379
      2 C           1.5842    1.5521    0.0000 C.ar    1  LIG1        0.1979
      3 C           2.0421    2.9188    0.0000 C.ar    1  LIG1        0.2109
      4 C           0.9045    3.7078    0.0000 C.ar    1  LIG1        0.2186
      5 O          -0.2010    2.9010    0.0000 O.2     1  LIG1       -0.4521
      6 H          -0.5364    0.8411   -0.0000 H       1  LIG1        0.1069
      7 O           2.2801    0.3719    0.0001 O.3     1  LIG1       -0.5012
      8 H           3.2249    0.5498    0.0001 H       1  LIG1        0.2924
      9 O           3.3021    3.4462    0.0001 O.3     1  LIG1       -0.4883
     10 C           4.4111    2.5732   -0.0002 C.3     1  LIG1        0.0791
     11 H           5.2984    3.2086   -0.0003 H       1  LIG1        0.0660
     12 H           4.4455    1.9445    0.9027 H       1  LIG1        0.0660
     13 H           4.4451    1.9446   -0.9032 H       1  LIG1        0.0660
     14 C           0.6469    5.1215    0.0000 C.ar    1  LIG1        0.2194
     15 C           1.4259    6.2636    0.0000 C.ar    1  LIG1        0.2094
     16 C           0.5219    7.3762    0.0000 C.ar    1  LIG1        0.2117
     17 C          -0.7580    6.8476   -0.0000 C.ar    1  LIG1        0.2197
     18 O          -0.6743    5.4833   -0.0000 O.2     1  LIG1       -0.4407
     19 O           2.7927    6.2496    0.0001 O.3     1  LIG1       -0.5007
     20 H           3.1214    7.1531    0.0002 H       1  LIG1        0.2924
     21 O           0.7507    8.7224   -0.0000 O.3     1  LIG1       -0.4883
     22 C           2.0758    9.2086   -0.0004 C.3     1  LIG1        0.0791
     23 H           1.9981   10.2973   -0.0006 H       1  LIG1        0.0660
     24 H           2.6297    8.9107    0.9029 H       1  LIG1        0.0660
     25 H           2.6293    8.9104   -0.9038 H       1  LIG1        0.0660
     26 C          -2.0829    7.3955   -0.0000 C.ar    1  LIG1        0.2195
     27 C          -2.6216    8.6702   -0.0000 C.ar    1  LIG1        0.2094
     28 C          -4.0464    8.5125   -0.0001 C.ar    1  LIG1        0.2117
     29 C          -4.2949    7.1517   -0.0001 C.ar    1  LIG1        0.2196
     30 O          -3.1040    6.4818   -0.0001 O.2     1  LIG1       -0.4407
     31 O          -1.8710    9.8124    0.0001 O.3     1  LIG1       -0.5007
     32 H          -2.4539   10.5770    0.0002 H       1  LIG1        0.2924
     33 O          -5.0547    9.4336   -0.0001 O.3     1  LIG1       -0.4883
     34 C          -4.7459   10.8111   -0.0003 C.3     1  LIG1        0.0791
     35 H          -5.7032   11.3352   -0.0005 H       1  LIG1        0.0660
     36 H          -4.1956   11.1154    0.9030 H       1  LIG1        0.0660
     37 H          -4.1954   11.1151   -0.9037 H       1  LIG1        0.0660
     38 C          -5.4752    6.3322   -0.0002 C.ar    1  LIG1        0.2184
     39 C          -6.8384    6.5687   -0.0002 C.ar    1  LIG1        0.2086
     40 C          -7.4707    5.2737   -0.0003 C.ar    1  LIG1        0.2002
     41 C          -6.4608    4.3544   -0.0003 C.ar    1  LIG1        0.1381
     42 O          -5.2549    4.9785   -0.0003 O.2     1  LIG1       -0.4521
     43 H          -6.4607    3.2774   -0.0004 H       1  LIG1        0.1069
     44 O          -7.4001    7.8156   -0.0002 O.3     1  LIG1       -0.5007
     45 H          -8.3581    7.7318   -0.0001 H       1  LIG1        0.2924
     46 O          -8.7874    4.8957   -0.0004 O.3     1  LIG1       -0.4888
     47 C          -9.7911    5.8912   -0.0006 C.3     1  LIG1        0.0791
     48 H         -10.7458    5.3623   -0.0008 H       1  LIG1        0.0660
     49 H          -9.7535    6.5191    0.9022 H       1  LIG1        0.0660
     50 H          -9.7531    6.5190   -0.9035 H       1  LIG1        0.0660
@<TRIPOS>BOND
     1    25    22    1
     2    37    34    1
     3    50    47    1
     4    13    10    1
     5    48    47    1
     6    47    46    1
     7    47    49    1
     8    23    22    1
     9    35    34    1
    10    22    21    1
    11    22    24    1
    12    43    41    1
    13    46    40    1
    14    41    40   ar
    15    41    42   ar
    16    34    33    1
    17    34    36    1
    18    40    39   ar
    19    11    10    1
    20    42    38   ar
    21    39    38   ar
    22    39    44    1
    23    10     9    1
    24    10    12    1
    25    38    29    1
    26    44    45    1
    27    29    30   ar
    28    29    28   ar
    29    30    26   ar
    30    28    33    1
    31    28    27   ar
    32    26    17    1
    33    26    27   ar
    34    17    18   ar
    35    17    16   ar
    36    18    14   ar
    37    27    31    1
    38    21    16    1
    39     6     1    1
    40    16    15   ar
    41     1     5   ar
    42     1     2   ar
    43     5     4   ar
    44    14     4    1
    45    14    15   ar
    46     4     3   ar
    47    15    19    1
    48     3     2   ar
    49     3     9    1
    50     2     7    1
    51     7     8    1
    52    19    20    1
    53    31    32    1
