@<TRIPOS>MOLECULE
mol_data/opt/b3lyp/geoms/mol2/12fl13ea4af-13le-.out
 49 52 0 0 0
SMALL
GASTEIGER

@<TRIPOS>ATOM
      1 C           0.3738    1.4695    0.6124 C.ar    1  LIG1        0.1378
      2 C           1.6581    1.3576    0.1706 C.ar    1  LIG1        0.1979
      3 C           2.1075    2.6868   -0.1488 C.ar    1  LIG1        0.2091
      4 C           1.0604    3.5318    0.1419 C.ar    1  LIG1        0.1972
      5 O          -0.0085    2.7880    0.5931 O.2     1  LIG1       -0.4539
      6 H          -0.3608    0.7593    0.9568 H       1  LIG1        0.1069
      7 O           2.4464    0.2583    0.0075 O.3     1  LIG1       -0.5012
      8 H           1.9505   -0.5309    0.2612 H       1  LIG1        0.2924
      9 O           3.2775    3.0297   -0.7411 O.3     1  LIG1       -0.4884
     10 C           4.4608    2.7244    0.0088 C.3     1  LIG1        0.0791
     11 H           5.3007    2.9826   -0.6378 H       1  LIG1        0.0660
     12 H           4.5043    3.3318    0.9195 H       1  LIG1        0.0660
     13 H           4.5058    1.6608    0.2619 H       1  LIG1        0.0660
     14 C           0.8209    4.9471    0.0334 C.ar    1  LIG1        0.1019
     15 C           1.6583    6.0740   -0.0261 C.ar    1  LIG1        0.0536
     16 C           0.8064    7.2181   -0.0627 C.ar    1  LIG1       -0.0203
     17 C          -0.5097    6.7903   -0.0192 C.ar    1  LIG1        0.0483
     18 N          -0.4738    5.4107    0.0256 N.ar    1  LIG1       -0.3507
     19 H          -1.2667    4.8081    0.1801 H       1  LIG1        0.1660
     20 C           3.0747    6.1231   -0.0054 C.1     1  LIG1       -0.0674
     21 C           4.2790    6.2471    0.0361 C.1     1  LIG1       -0.1138
     22 H           5.3391    6.3447    0.0494 H       1  LIG1        0.1232
     23 H           1.1424    8.2408   -0.1447 H       1  LIG1        0.0651
     24 C          -1.8028    8.8828    0.3842 C.ar    1  LIG1       -0.0518
     25 C          -2.9896    9.5986    0.3645 C.ar    1  LIG1       -0.0484
     26 C          -1.7586    7.5435   -0.0397 C.ar    1  LIG1        0.0018
     27 C          -4.2082    9.0372   -0.0744 C.ar    1  LIG1        0.0433
     28 H          -3.0021   10.6239    0.7107 H       1  LIG1        0.0625
     29 C          -2.9610    6.9657   -0.4783 C.ar    1  LIG1       -0.0104
     30 C          -4.1515    7.6865   -0.4910 C.ar    1  LIG1        0.1267
     31 H          -2.9704    5.9452   -0.8579 H       1  LIG1        0.0661
     32 H          -0.9012    9.3550    0.7599 H       1  LIG1        0.0624
     33 O          -5.3147    7.0857   -0.9328 O.3     1  LIG1       -0.5061
     34 H          -5.1201    6.1795   -1.2030 H       1  LIG1        0.2922
     35 C          -5.4337    9.8324   -0.0829 C.ar    1  LIG1        0.0935
     36 C          -5.6492   11.1906    0.1614 C.ar    1  LIG1        0.1606
     37 C          -7.0528   11.4602    0.0441 C.ar    1  LIG1        0.0842
     38 C          -7.6526   10.2458   -0.2741 C.ar    1  LIG1        0.0213
     39 N          -6.6878    9.2949   -0.3387 N.ar    1  LIG1       -0.3565
     40 H          -6.8140    8.3236   -0.5781 H       1  LIG1        0.1655
     41 H          -8.6930   10.0182   -0.4477 H       1  LIG1        0.0820
     42 O          -4.6793   12.0908    0.5063 O.3     1  LIG1       -0.4918
     43 C          -4.5019   13.1750   -0.4140 C.3     1  LIG1        0.0789
     44 H          -3.6957   13.7893   -0.0082 H       1  LIG1        0.0660
     45 H          -4.2161   12.8021   -1.4052 H       1  LIG1        0.0660
     46 H          -5.4118   13.7762   -0.4986 H       1  LIG1        0.0660
     47 C          -7.7186   12.6954    0.2463 C.1     1  LIG1       -0.0645
     48 C          -8.2890   13.7509    0.4146 C.1     1  LIG1       -0.1137
     49 H          -8.7934   14.6737    0.5819 H       1  LIG1        0.1232
@<TRIPOS>BOND
     1    45    43    1
     2    34    33    1
     3    33    30    1
     4    31    29    1
     5     9     3    1
     6     9    10    1
     7    11    10    1
     8    40    39    1
     9    46    43    1
    10    30    29   ar
    11    30    27   ar
    12    29    26   ar
    13    41    38    1
    14    43    44    1
    15    43    42    1
    16    39    38   ar
    17    39    35   ar
    18    38    37   ar
    19     3     4   ar
    20     3     2   ar
    21    23    16    1
    22    35    27    1
    23    35    36   ar
    24    27    25   ar
    25    16    15   ar
    26    16    17   ar
    27    26    17    1
    28    26    24   ar
    29    15    20    1
    30    15    14   ar
    31    17    18   ar
    32    20    21    3
    33     7     2    1
    34     7     8    1
    35    10    13    1
    36    10    12    1
    37    18    14   ar
    38    18    19    1
    39    14     4    1
    40    21    22    1
    41    37    36   ar
    42    37    47    1
    43     4     5   ar
    44    36    42    1
    45     2     1   ar
    46    47    48    3
    47    25    24   ar
    48    25    28    1
    49    24    32    1
    50    48    49    1
    51     5     1   ar
    52     1     6    1
