@<TRIPOS>MOLECULE
mol_data/opt/b3lyp/geoms/mol2/12fl12fl-.out
 26 27 0 0 0
SMALL
GASTEIGER

@<TRIPOS>ATOM
      1 C           0.0327    1.8321   -0.0001 C.ar    1  LIG1        0.1379
      2 C           1.3900    1.7048    0.0001 C.ar    1  LIG1        0.1979
      3 C           1.9312    3.0452    0.0001 C.ar    1  LIG1        0.2109
      4 C           0.8490    3.8962   -0.0000 C.ar    1  LIG1        0.2186
      5 O          -0.3122    3.1603   -0.0001 O.2     1  LIG1       -0.4521
      6 H          -0.7684    1.1129   -0.0001 H       1  LIG1        0.1069
      7 O           2.0179    0.4908    0.0002 O.3     1  LIG1       -0.5012
      8 H           2.9718    0.6143    0.0004 H       1  LIG1        0.2924
      9 O           3.2150    3.5119    0.0002 O.3     1  LIG1       -0.4883
     10 C           4.2801    2.5819   -0.0001 C.3     1  LIG1        0.0791
     11 H           5.1983    3.1713   -0.0002 H       1  LIG1        0.0660
     12 H           4.2811    1.9535    0.9032 H       1  LIG1        0.0660
     13 H           4.2807    1.9537   -0.9036 H       1  LIG1        0.0660
     14 C           0.6722    5.3175   -0.0001 C.ar    1  LIG1        0.2184
     15 C          -0.4838    6.0654   -0.0001 C.ar    1  LIG1        0.2086
     16 C          -0.0726    7.4382   -0.0001 C.ar    1  LIG1        0.2002
     17 C           1.2964    7.4331   -0.0001 C.ar    1  LIG1        0.1381
     18 O           1.7646    6.1448   -0.0001 O.2     1  LIG1       -0.4521
     19 H           2.0431    8.2082   -0.0001 H       1  LIG1        0.1069
     20 O          -1.7770    5.6585   -0.0001 O.3     1  LIG1       -0.5007
     21 H          -1.7796    4.6891   -0.0001 H       1  LIG1        0.2924
     22 O          -0.9565    8.4643   -0.0002 O.3     1  LIG1       -0.4888
     23 C          -0.3707    9.7578   -0.0002 C.3     1  LIG1        0.0791
     24 H          -1.1942   10.4727   -0.0003 H       1  LIG1        0.0660
     25 H           0.2485    9.9123    0.8938 H       1  LIG1        0.0660
     26 H           0.2485    9.9123   -0.8943 H       1  LIG1        0.0660
@<TRIPOS>BOND
     1    13    10    1
     2    26    23    1
     3    24    23    1
     4    11    10    1
     5    23    22    1
     6    23    25    1
     7    22    16    1
     8    16    17   ar
     9    16    15   ar
    10    19    17    1
    11    10     9    1
    12    10    12    1
    13    17    18   ar
    14     6     1    1
    15    20    21    1
    16    20    15    1
    17    15    14   ar
    18     5     1   ar
    19     5     4   ar
    20    14    18   ar
    21    14     4    1
    22     1     2   ar
    23     4     3   ar
    24     3     2   ar
    25     3     9    1
    26     2     7    1
    27     7     8    1
