@<TRIPOS>MOLECULE
mol_data/opt/b3lyp/geoms/mol2/12fl.out
 14 14 0 0 0
SMALL
GASTEIGER

@<TRIPOS>ATOM
      1 C           0.0247    1.8902   -0.0000 C.ar    1  LIG1        0.1368
      2 C           1.3845    1.7723    0.0001 C.ar    1  LIG1        0.1971
      3 C           1.8989    3.1253    0.0000 C.ar    1  LIG1        0.1994
      4 C           0.8036    3.9418   -0.0001 C.ar    1  LIG1        0.1370
      5 O          -0.3399    3.2042   -0.0002 O.2     1  LIG1       -0.4635
      6 H          -0.7644    1.1570   -0.0000 H       1  LIG1        0.1069
      7 H           0.7030    5.0143   -0.0002 H       1  LIG1        0.1069
      8 O           2.0292    0.5638    0.0002 O.3     1  LIG1       -0.5012
      9 H           2.9810    0.7013    0.0003 H       1  LIG1        0.2924
     10 O           3.1748    3.6210    0.0001 O.3     1  LIG1       -0.4888
     11 C           4.2557    2.7091   -0.0001 C.3     1  LIG1        0.0791
     12 H           5.1654    3.3117   -0.0002 H       1  LIG1        0.0660
     13 H           4.2659    2.0799    0.9025 H       1  LIG1        0.0660
     14 H           4.2657    2.0799   -0.9027 H       1  LIG1        0.0660
@<TRIPOS>BOND
     1    14    11    1
     2    12    11    1
     3     7     4    1
     4     5     4   ar
     5     5     1   ar
     6     4     3   ar
     7    11    10    1
     8    11    13    1
     9     1     6    1
    10     1     2   ar
    11     3     2   ar
    12     3    10    1
    13     2     8    1
    14     8     9    1
