@<TRIPOS>MOLECULE
mol_data/opt/b3lyp/geoms/mol2/12fl12fl12fl-12fl-.out
 50 53 0 0 0
SMALL
GASTEIGER

@<TRIPOS>ATOM
      1 C           0.0343    1.7203   -0.0033 C.ar    1  LIG1        0.1379
      2 C           1.3949    1.6213   -0.0021 C.ar    1  LIG1        0.1979
      3 C           1.9000    2.9720   -0.0004 C.ar    1  LIG1        0.2109
      4 C           0.7914    3.7987   -0.0006 C.ar    1  LIG1        0.2186
      5 O          -0.3444    3.0311   -0.0022 O.2     1  LIG1       -0.4521
      6 H          -0.7479    0.9804   -0.0047 H       1  LIG1        0.1069
      7 O           2.0509    0.4204   -0.0027 O.3     1  LIG1       -0.5012
      8 H           3.0014    0.5657   -0.0013 H       1  LIG1        0.2924
      9 O           3.1745    3.4591    0.0011 O.3     1  LIG1       -0.4883
     10 C           4.2568    2.5507    0.0002 C.3     1  LIG1        0.0791
     11 H           5.1631    3.1583    0.0012 H       1  LIG1        0.0660
     12 H           4.2697    1.9212    0.9026 H       1  LIG1        0.0660
     13 H           4.2701    1.9235   -0.9038 H       1  LIG1        0.0660
     14 C           0.5784    5.2178    0.0006 C.ar    1  LIG1        0.2194
     15 C           1.3728    6.3484    0.0022 C.ar    1  LIG1        0.2094
     16 C           0.4886    7.4828    0.0025 C.ar    1  LIG1        0.2117
     17 C          -0.7952    6.9805    0.0010 C.ar    1  LIG1        0.2197
     18 O          -0.7424    5.6091   -0.0001 O.2     1  LIG1       -0.4407
     19 O           2.7369    6.3093    0.0032 O.3     1  LIG1       -0.5007
     20 H           3.0842    7.2063    0.0047 H       1  LIG1        0.2924
     21 O           0.7262    8.8264    0.0040 O.3     1  LIG1       -0.4883
     22 C           2.0592    9.2970    0.0045 C.3     1  LIG1        0.0791
     23 H           1.9952   10.3861    0.0051 H       1  LIG1        0.0660
     24 H           2.6067    8.9896    0.9081 H       1  LIG1        0.0660
     25 H           2.6072    8.9905   -0.8991 H       1  LIG1        0.0660
     26 C          -2.1140    7.5211    0.0005 C.ar    1  LIG1        0.2195
     27 C          -3.3261    6.8764   -0.0010 C.ar    1  LIG1        0.2094
     28 C          -4.3359    7.8879   -0.0014 C.ar    1  LIG1        0.2117
     29 C          -3.6819    9.1219   -0.0000 C.ar    1  LIG1        0.2196
     30 O          -2.3201    8.8677    0.0011 O.2     1  LIG1       -0.4407
     31 O          -3.6065    5.5528   -0.0023 O.3     1  LIG1       -0.5007
     32 H          -2.7652    5.0687   -0.0021 H       1  LIG1        0.2924
     33 O          -5.6169    7.4247   -0.0052 O.3     1  LIG1       -0.4883
     34 C          -6.7287    8.2786   -0.0042 C.3     1  LIG1        0.0791
     35 H          -7.6112    7.6365   -0.0145 H       1  LIG1        0.0660
     36 H          -6.7713    8.8886    0.9120 H       1  LIG1        0.0660
     37 H          -6.7614    8.9062   -0.9085 H       1  LIG1        0.0660
     38 C          -3.9275   10.5579    0.0006 C.ar    1  LIG1        0.2184
     39 C          -4.9797   11.4591    0.0070 C.ar    1  LIG1        0.2086
     40 C          -4.4093   12.7742   -0.0007 C.ar    1  LIG1        0.2002
     41 C          -3.0559   12.6144   -0.0107 C.ar    1  LIG1        0.1381
     42 O          -2.7523   11.2865   -0.0098 O.2     1  LIG1       -0.4521
     43 H          -2.2214   13.2943   -0.0184 H       1  LIG1        0.1069
     44 O          -6.3316   11.3262    0.0196 O.3     1  LIG1       -0.5007
     45 H          -6.5672   10.3953    0.0317 H       1  LIG1        0.2924
     46 O          -5.1814   13.8875    0.0030 O.3     1  LIG1       -0.4888
     47 C          -4.4592   15.1097   -0.0050 C.3     1  LIG1        0.0791
     48 H          -5.2000   15.9101   -0.0009 H       1  LIG1        0.0660
     49 H          -3.8198   15.1983    0.8839 H       1  LIG1        0.0660
     50 H          -3.8335   15.1947   -0.9038 H       1  LIG1        0.0660
@<TRIPOS>BOND
     1    37    34    1
     2    13    10    1
     3    50    47    1
     4    25    22    1
     5    43    41    1
     6    35    34    1
     7    41    42   ar
     8    41    40   ar
     9    42    38   ar
    10    33    34    1
    11    33    28    1
    12    47    48    1
    13    47    46    1
    14    47    49    1
    15     6     1    1
    16    34    36    1
    17     1     5   ar
    18     1     2   ar
    19     7     2    1
    20     7     8    1
    21    31    32    1
    22    31    27    1
    23     5     4   ar
    24     2     3   ar
    25    28    27   ar
    26    28    29   ar
    27    27    26   ar
    28    40    46    1
    29    40    39   ar
    30     4     3   ar
    31     4    14    1
    32     3     9    1
    33    18    14   ar
    34    18    17   ar
    35    29    38    1
    36    29    30   ar
    37    10     9    1
    38    10    11    1
    39    10    12    1
    40    26    17    1
    41    26    30   ar
    42    14    15   ar
    43    38    39   ar
    44    17    16   ar
    45    15    16   ar
    46    15    19    1
    47    16    21    1
    48    19    20    1
    49    21    22    1
    50    22    23    1
    51    22    24    1
    52    39    44    1
    53    44    45    1
