@<TRIPOS>MOLECULE
mol_data/opt/b3lyp/geoms/mol2/12fl12fl12fl12fl-.out
 50 53 0 0 0
SMALL
GASTEIGER

@<TRIPOS>ATOM
      1 C          -0.0155    1.6774    0.0000 C.ar    1  LIG1        0.1379
      2 C           1.3449    1.5715    0.0000 C.ar    1  LIG1        0.1979
      3 C           1.8549    2.9200    0.0000 C.ar    1  LIG1        0.2109
      4 C           0.7486    3.7515    0.0000 C.ar    1  LIG1        0.2186
      5 O          -0.3881    2.9876   -0.0000 O.2     1  LIG1       -0.4521
      6 H          -0.8014    0.9412    0.0000 H       1  LIG1        0.1069
      7 O           1.9962    0.3670    0.0000 O.3     1  LIG1       -0.5012
      8 H           2.9470    0.5094    0.0001 H       1  LIG1        0.2924
      9 O           3.1324    3.4010    0.0001 O.3     1  LIG1       -0.4883
     10 C           4.2101    2.4883   -0.0002 C.3     1  LIG1        0.0791
     11 H           5.1192    3.0920   -0.0003 H       1  LIG1        0.0660
     12 H           4.2215    1.8593    0.9028 H       1  LIG1        0.0660
     13 H           4.2212    1.8595   -0.9033 H       1  LIG1        0.0660
     14 C           0.5429    5.1728    0.0000 C.ar    1  LIG1        0.2194
     15 C           1.3552    6.2915    0.0000 C.ar    1  LIG1        0.2094
     16 C           0.4854    7.4326   -0.0000 C.ar    1  LIG1        0.2117
     17 C          -0.8086    6.9434   -0.0001 C.ar    1  LIG1        0.2197
     18 O          -0.7679    5.5757   -0.0000 O.2     1  LIG1       -0.4407
     19 O           2.7202    6.2354    0.0001 O.3     1  LIG1       -0.5007
     20 H           3.0775    7.1281    0.0002 H       1  LIG1        0.2924
     21 O           0.7502    8.7718   -0.0000 O.3     1  LIG1       -0.4883
     22 C           2.0900    9.2195   -0.0003 C.3     1  LIG1        0.0791
     23 H           2.0441   10.3098   -0.0005 H       1  LIG1        0.0660
     24 H           2.6337    8.9045    0.9031 H       1  LIG1        0.0660
     25 H           2.6334    8.9042   -0.9038 H       1  LIG1        0.0660
     26 C          -2.1202    7.5157   -0.0001 C.ar    1  LIG1        0.2195
     27 C          -2.6610    8.7884   -0.0001 C.ar    1  LIG1        0.2094
     28 C          -4.0906    8.6358   -0.0002 C.ar    1  LIG1        0.2117
     29 C          -4.3420    7.2803   -0.0002 C.ar    1  LIG1        0.2196
     30 O          -3.1513    6.6019   -0.0002 O.2     1  LIG1       -0.4407
     31 O          -1.9052    9.9252   -0.0000 O.3     1  LIG1       -0.5007
     32 H          -2.4826   10.6945    0.0001 H       1  LIG1        0.2924
     33 O          -5.1077    9.5487   -0.0002 O.3     1  LIG1       -0.4883
     34 C          -4.8001   10.9283   -0.0004 C.3     1  LIG1        0.0791
     35 H          -5.7572   11.4522   -0.0005 H       1  LIG1        0.0660
     36 H          -4.2495   11.2309    0.9031 H       1  LIG1        0.0660
     37 H          -4.2494   11.2307   -0.9038 H       1  LIG1        0.0660
     38 C          -5.4995    6.4454   -0.0003 C.ar    1  LIG1        0.2184
     39 C          -5.5888    5.0686   -0.0002 C.ar    1  LIG1        0.2086
     40 C          -6.9891    4.7632   -0.0003 C.ar    1  LIG1        0.2002
     41 C          -7.6512    5.9616   -0.0004 C.ar    1  LIG1        0.1381
     42 O          -6.7543    6.9982   -0.0004 O.2     1  LIG1       -0.4521
     43 H          -8.6922    6.2356   -0.0005 H       1  LIG1        0.1069
     44 O          -4.6128    4.1319   -0.0001 O.3     1  LIG1       -0.5007
     45 H          -3.7512    4.5790   -0.0001 H       1  LIG1        0.2924
     46 O          -7.4579    3.4921   -0.0003 O.3     1  LIG1       -0.4888
     47 C          -8.8727    3.3776   -0.0005 C.3     1  LIG1        0.0791
     48 H          -9.0988    2.3107   -0.0005 H       1  LIG1        0.0660
     49 H          -9.3087    3.8441    0.8935 H       1  LIG1        0.0660
     50 H          -9.3085    3.8441   -0.8945 H       1  LIG1        0.0660
@<TRIPOS>BOND
     1    37    34    1
     2    25    22    1
     3    13    10    1
     4    50    47    1
     5    48    47    1
     6    35    34    1
     7    43    41    1
     8    47    46    1
     9    47    49    1
    10    23    22    1
    11    41    42   ar
    12    41    40   ar
    13    42    38   ar
    14    34    33    1
    15    34    36    1
    16    46    40    1
    17    40    39   ar
    18    22    21    1
    19    22    24    1
    20    11    10    1
    21    38    39   ar
    22    38    29    1
    23    39    44    1
    24    29    30   ar
    25    29    28   ar
    26    10     9    1
    27    10    12    1
    28    30    26   ar
    29    33    28    1
    30    28    27   ar
    31    44    45    1
    32    26    27   ar
    33    26    17    1
    34    27    31    1
    35    17    18   ar
    36    17    16   ar
    37    18    14   ar
    38     5     4   ar
    39     5     1   ar
    40    21    16    1
    41    16    15   ar
    42    31    32    1
    43     6     1    1
    44     4    14    1
    45     4     3   ar
    46    14    15   ar
    47     1     2   ar
    48     2     3   ar
    49     2     7    1
    50    15    19    1
    51     3     9    1
    52     7     8    1
    53    19    20    1
