@<TRIPOS>MOLECULE
mol_data/opt/b3lyp/geoms/mol2/12fl12fl-12fl-12fl-.out
 50 53 0 0 0
SMALL
GASTEIGER

@<TRIPOS>ATOM
      1 C          -0.5262    1.8151    0.2163 C.ar    1  LIG1        0.1379
      2 C           0.7842    1.4718    0.1028 C.ar    1  LIG1        0.1979
      3 C           1.5512    2.6853    0.1121 C.ar    1  LIG1        0.2109
      4 C           0.6522    3.7230    0.2251 C.ar    1  LIG1        0.2186
      5 O          -0.6204    3.1932    0.3014 O.2     1  LIG1       -0.4521
      6 H          -1.4482    1.2626    0.2630 H       1  LIG1        0.1069
      7 O           1.3233    0.2335   -0.0008 O.3     1  LIG1       -0.5012
      8 H           2.2807    0.3633   -0.0919 H       1  LIG1        0.2924
      9 O           2.9046    2.6282   -0.0401 O.3     1  LIG1       -0.4883
     10 C           3.7072    3.3221    0.9317 C.3     1  LIG1        0.0791
     11 H           4.7322    2.9869    0.7654 H       1  LIG1        0.0660
     12 H           3.6468    4.4028    0.7892 H       1  LIG1        0.0660
     13 H           3.3931    3.0612    1.9489 H       1  LIG1        0.0660
     14 C           0.6918    5.1504    0.2683 C.ar    1  LIG1        0.2194
     15 C          -0.3309    6.0700    0.3748 C.ar    1  LIG1        0.2094
     16 C           0.2796    7.3566    0.3348 C.ar    1  LIG1        0.2117
     17 C           1.6414    7.1557    0.2214 C.ar    1  LIG1        0.2197
     18 O           1.8960    5.8126    0.1840 O.2     1  LIG1       -0.4407
     19 O          -1.6649    5.8497    0.4810 O.3     1  LIG1       -0.5007
     20 H          -1.8064    4.8893    0.4543 H       1  LIG1        0.2924
     21 O          -0.3241    8.5872    0.4500 O.3     1  LIG1       -0.4883
     22 C          -1.3565    8.8476   -0.5232 C.3     1  LIG1        0.0791
     23 H          -1.7378    9.8450   -0.2999 H       1  LIG1        0.0660
     24 H          -0.9433    8.8230   -1.5375 H       1  LIG1        0.0660
     25 H          -2.1577    8.1115   -0.4294 H       1  LIG1        0.0660
     26 C           2.7425    8.0625    0.1985 C.ar    1  LIG1        0.2195
     27 C           2.8157    9.4343    0.3637 C.ar    1  LIG1        0.2094
     28 C           4.1917    9.7752    0.2228 C.ar    1  LIG1        0.2117
     29 C           4.8843    8.6022   -0.0016 C.ar    1  LIG1        0.2196
     30 O           4.0088    7.5559   -0.0104 O.2     1  LIG1       -0.4407
     31 O           1.8341   10.3292    0.6086 O.3     1  LIG1       -0.5007
     32 H           0.9770    9.8536    0.6355 H       1  LIG1        0.2924
     33 O           4.7667   11.0175    0.3492 O.3     1  LIG1       -0.4883
     34 C           4.2548   12.0159   -0.5562 C.3     1  LIG1        0.0791
     35 H           4.8059   12.9319   -0.3390 H       1  LIG1        0.0660
     36 H           4.4255   11.7155   -1.5958 H       1  LIG1        0.0660
     37 H           3.1876   12.1706   -0.3823 H       1  LIG1        0.0660
     38 C           6.2805    8.3369   -0.1717 C.ar    1  LIG1        0.2184
     39 C           7.3908    9.1506   -0.0550 C.ar    1  LIG1        0.2086
     40 C           8.5223    8.3208   -0.3509 C.ar    1  LIG1        0.2002
     41 C           8.0331    7.0715   -0.6214 C.ar    1  LIG1        0.1381
     42 O           6.6691    7.0645   -0.5183 O.2     1  LIG1       -0.4521
     43 H           8.4936    6.1355   -0.8883 H       1  LIG1        0.1069
     44 O           7.4891   10.4526    0.2782 O.3     1  LIG1       -0.5007
     45 H           6.5857   10.8088    0.4025 H       1  LIG1        0.2924
     46 O           9.7916    8.7915   -0.3302 O.3     1  LIG1       -0.4888
     47 C          10.7915    7.8285   -0.6295 C.3     1  LIG1        0.0791
     48 H          11.7496    8.3459   -0.5706 H       1  LIG1        0.0660
     49 H          10.7757    7.0031    0.0950 H       1  LIG1        0.0660
     50 H          10.6583    7.4194   -1.6402 H       1  LIG1        0.0660
@<TRIPOS>BOND
     1    50    47    1
     2    36    34    1
     3    24    22    1
     4    43    41    1
     5    47    48    1
     6    47    46    1
     7    47    49    1
     8    41    42   ar
     9    41    40   ar
    10    34    37    1
    11    34    35    1
    12    34    33    1
    13    22    25    1
    14    22    23    1
    15    22    21    1
    16    42    38   ar
    17    40    46    1
    18    40    39   ar
    19    38    39   ar
    20    38    29    1
    21     8     7    1
    22    39    44    1
    23     9     3    1
    24     9    10    1
    25    30    29   ar
    26    30    26   ar
    27    29    28   ar
    28     7     2    1
    29     2     3   ar
    30     2     1   ar
    31     3     4   ar
    32    18    17   ar
    33    18    14   ar
    34    26    17    1
    35    26    27   ar
    36     1     6    1
    37     1     5   ar
    38    17    16   ar
    39    28    33    1
    40    28    27   ar
    41     4    14    1
    42     4     5   ar
    43    14    15   ar
    44    44    45    1
    45    16    15   ar
    46    16    21    1
    47    27    31    1
    48    15    19    1
    49    20    19    1
    50    31    32    1
    51    11    10    1
    52    12    10    1
    53    10    13    1
