@<TRIPOS>MOLECULE
mol_data/opt/b3lyp/geoms/mol2/12fl12fl-12fl12fl-.out
 50 53 0 0 0
SMALL
GASTEIGER

@<TRIPOS>ATOM
      1 C           0.1322    1.6718    0.0000 C.ar    1  LIG1        0.1379
      2 C           1.4951    1.6331   -0.0001 C.ar    1  LIG1        0.1979
      3 C           1.9487    3.0048   -0.0001 C.ar    1  LIG1        0.2109
      4 C           0.8129    3.7856   -0.0001 C.ar    1  LIG1        0.2186
      5 O          -0.2986    2.9743    0.0000 O.2     1  LIG1       -0.4521
      6 H          -0.6200    0.9019    0.0001 H       1  LIG1        0.1069
      7 O           2.2002    0.4620   -0.0001 O.3     1  LIG1       -0.5012
      8 H           3.1439    0.6473   -0.0002 H       1  LIG1        0.2924
      9 O           3.1989    3.5521   -0.0001 O.3     1  LIG1       -0.4883
     10 C           4.3201    2.6924   -0.0002 C.3     1  LIG1        0.0791
     11 H           5.1986    3.3395   -0.0003 H       1  LIG1        0.0660
     12 H           4.3616    2.0652    0.9031 H       1  LIG1        0.0660
     13 H           4.3615    2.0651   -0.9035 H       1  LIG1        0.0660
     14 C           0.5394    5.1882   -0.0001 C.ar    1  LIG1        0.2194
     15 C          -0.6614    5.8555    0.0001 C.ar    1  LIG1        0.2094
     16 C          -0.3680    7.2532   -0.0001 C.ar    1  LIG1        0.2117
     17 C           1.0226    7.3682   -0.0002 C.ar    1  LIG1        0.2197
     18 O           1.5605    6.0937   -0.0002 O.2     1  LIG1       -0.4407
     19 O          -1.9232    5.3633    0.0003 O.3     1  LIG1       -0.5007
     20 H          -1.8599    4.3960    0.0003 H       1  LIG1        0.2924
     21 O          -1.4272    8.0984   -0.0001 O.3     1  LIG1       -0.4883
     22 C          -1.2526    9.5012   -0.0004 C.3     1  LIG1        0.0791
     23 H          -2.2573    9.9264   -0.0003 H       1  LIG1        0.0660
     24 H          -0.7226    9.8379    0.8989 H       1  LIG1        0.0660
     25 H          -0.7231    9.8374   -0.9002 H       1  LIG1        0.0660
     26 C           2.0433    8.3820   -0.0001 C.ar    1  LIG1        0.2195
     27 C           3.4234    8.2661   -0.0000 C.ar    1  LIG1        0.2094
     28 C           3.9594    9.5972   -0.0001 C.ar    1  LIG1        0.2117
     29 C           2.8847   10.4567   -0.0001 C.ar    1  LIG1        0.2196
     30 O           1.7162    9.7226   -0.0002 O.2     1  LIG1       -0.4407
     31 O           4.0828    7.0727    0.0001 O.3     1  LIG1       -0.5007
     32 H           5.0308    7.2349    0.0001 H       1  LIG1        0.2924
     33 O           5.2423   10.0644   -0.0001 O.3     1  LIG1       -0.4883
     34 C           6.3202    9.1484   -0.0001 C.3     1  LIG1        0.0791
     35 H           7.2289    9.7524   -0.0000 H       1  LIG1        0.0660
     36 H           6.3311    8.5211    0.9037 H       1  LIG1        0.0660
     37 H           6.3312    8.5211   -0.9038 H       1  LIG1        0.0660
     38 C           2.7527   11.8802   -0.0001 C.ar    1  LIG1        0.2184
     39 C           1.6367   12.6880    0.0001 C.ar    1  LIG1        0.2086
     40 C           2.1124   14.0381   -0.0001 C.ar    1  LIG1        0.2002
     41 C           3.4794   13.9666   -0.0004 C.ar    1  LIG1        0.1381
     42 O           3.8837   12.6568   -0.0003 O.2     1  LIG1       -0.4521
     43 H           4.2632   14.7043   -0.0005 H       1  LIG1        0.1069
     44 O           0.3251   12.3415    0.0005 O.3     1  LIG1       -0.5007
     45 H           0.2847   11.3751    0.0006 H       1  LIG1        0.2924
     46 O           1.2785   15.1050   -0.0001 O.3     1  LIG1       -0.4888
     47 C           1.9258   16.3693   -0.0005 C.3     1  LIG1        0.0791
     48 H           1.1375   17.1228   -0.0005 H       1  LIG1        0.0660
     49 H           2.5518   16.4937    0.8934 H       1  LIG1        0.0660
     50 H           2.5514   16.4933   -0.8948 H       1  LIG1        0.0660
@<TRIPOS>BOND
     1    37    34    1
     2    13    10    1
     3    25    22    1
     4    50    47    1
     5    43    41    1
     6    47    48    1
     7    47    46    1
     8    47    49    1
     9    22    23    1
    10    22    21    1
    11    22    24    1
    12    41    42   ar
    13    41    40   ar
    14    42    38   ar
    15    11    10    1
    16    10     9    1
    17    10    12    1
    18    18    17   ar
    19    18    14   ar
    20     8     7    1
    21    30    29   ar
    22    30    26   ar
    23    17    26    1
    24    17    16   ar
    25    29    28   ar
    26    29    38    1
    27    40    46    1
    28    40    39   ar
    29     9     3    1
    30    28    33    1
    31    28    27   ar
    32    38    39   ar
    33    26    27   ar
    34    33    34    1
    35     7     2    1
    36    21    16    1
    37     3     4   ar
    38     3     2   ar
    39     4    14    1
    40     4     5   ar
    41    16    15   ar
    42    34    35    1
    43    34    36    1
    44     2     1   ar
    45    14    15   ar
    46    27    31    1
    47     5     1   ar
    48     1     6    1
    49    15    19    1
    50    31    32    1
    51    39    44    1
    52    19    20    1
    53    44    45    1
