@<TRIPOS>MOLECULE
mol_data/opt/b3lyp/geoms/mol2/12fl6aa-4ef13il-.out
 51 54 0 0 0
SMALL
GASTEIGER

@<TRIPOS>ATOM
      1 C           0.0047    1.3041   -0.1234 C.ar    1  LIG1        0.1377
      2 C           1.3352    1.2433    0.1675 C.ar    1  LIG1        0.1978
      3 C           1.7807    2.5959    0.3059 C.ar    1  LIG1        0.2077
      4 C           0.6906    3.4107    0.0987 C.ar    1  LIG1        0.1815
      5 O          -0.3910    2.6172   -0.1732 O.2     1  LIG1       -0.4553
      6 H          -0.7521    0.5614   -0.3100 H       1  LIG1        0.1069
      7 O           2.1138    0.1389    0.3019 O.3     1  LIG1       -0.5012
      8 H           2.9571    0.4361    0.6756 H       1  LIG1        0.2924
      9 O           3.0768    2.9259    0.6147 O.3     1  LIG1       -0.4884
     10 C           3.8856    3.2467   -0.5312 C.3     1  LIG1        0.0791
     11 H           4.8953    3.4218   -0.1553 H       1  LIG1        0.0660
     12 H           3.8967    2.4186   -1.2489 H       1  LIG1        0.0660
     13 H           3.5173    4.1497   -1.0297 H       1  LIG1        0.0660
     14 C          -0.6970    5.4359   -0.3437 C.ar    1  LIG1        0.0390
     15 C           0.4948    4.8472    0.1214 C.ar    1  LIG1        0.0391
     16 C           1.4728    5.7230    0.6213 C.ar    1  LIG1       -0.0475
     17 C           1.2436    7.0912    0.6060 C.ar    1  LIG1       -0.0350
     18 C           0.0341    7.5873    0.0890 C.ar    1  LIG1        0.0723
     19 N          -0.9230    6.7450   -0.3585 N.ar    1  LIG1       -0.2542
     20 H           2.3911    5.3254    1.0405 H       1  LIG1        0.0626
     21 H          -1.4970    4.8034   -0.7200 H       1  LIG1        0.0837
     22 H           1.9867    7.7675    1.0055 H       1  LIG1        0.0639
     23 C           0.6226   10.0992   -0.0066 C.ar    1  LIG1        0.0347
     24 C           0.1519   11.4238   -0.0189 C.ar    1  LIG1       -0.0331
     25 C          -0.3101    9.0309    0.0508 C.ar    1  LIG1        0.0192
     26 C          -1.2053   11.7752    0.0310 C.ar    1  LIG1        0.0413
     27 H           0.8915   12.2078   -0.0978 H       1  LIG1        0.0638
     28 C          -1.6692    9.3723    0.0570 C.ar    1  LIG1       -0.0092
     29 C          -2.1133   10.6857    0.0459 C.ar    1  LIG1        0.1266
     30 H          -2.3896    8.5591    0.0662 H       1  LIG1        0.0661
     31 C           2.0386    9.9295   -0.1259 C.1     1  LIG1       -0.0690
     32 C           3.2434    9.8754   -0.2396 C.1     1  LIG1       -0.1139
     33 H           4.3009    9.8083   -0.3482 H       1  LIG1        0.1232
     34 O          -3.4636   10.9557    0.0570 O.3     1  LIG1       -0.5061
     35 H          -3.9471   10.1191    0.0631 H       1  LIG1        0.2922
     36 C          -1.6204   13.1760    0.0486 C.ar    1  LIG1        0.0565
     37 C          -0.9045   14.3479    0.3378 C.ar    1  LIG1        0.0166
     38 C          -1.8235   15.4229    0.1906 C.ar    1  LIG1        0.1408
     39 C          -3.0557   14.9116   -0.1742 C.ar    1  LIG1        0.0446
     40 N          -2.9155   13.5572   -0.2572 N.ar    1  LIG1       -0.3573
     41 H          -3.6493   12.8881   -0.4284 H       1  LIG1        0.1655
     42 H          -3.9973   15.4068   -0.3539 H       1  LIG1        0.0844
     43 C           0.5131   14.5311    0.7932 C.3     1  LIG1       -0.0342
     44 H           0.6219   15.5304    1.2241 H       1  LIG1        0.0279
     45 H           1.2417   14.4468   -0.0241 H       1  LIG1        0.0279
     46 H           0.7975   13.8022    1.5591 H       1  LIG1        0.0279
     47 O          -1.5459   16.7476    0.4337 O.3     1  LIG1       -0.4933
     48 C          -1.0319   17.4518   -0.6945 C.3     1  LIG1        0.0789
     49 H          -0.8578   18.4808   -0.3707 H       1  LIG1        0.0660
     50 H          -0.0860   17.0192   -1.0460 H       1  LIG1        0.0660
     51 H          -1.7480   17.4491   -1.5268 H       1  LIG1        0.0660
@<TRIPOS>BOND
     1    51    48    1
     2    12    10    1
     3    50    48    1
     4    13    10    1
     5    21    14    1
     6    48    49    1
     7    48    47    1
     8    10    11    1
     9    10     9    1
    10    41    40    1
    11    19    14   ar
    12    19    18   ar
    13    42    39    1
    14    33    32    1
    15    14    15   ar
    16     6     1    1
    17    40    39   ar
    18    40    36   ar
    19    32    31    3
    20    39    38   ar
    21     5     1   ar
    22     5     4   ar
    23    31    23    1
    24     1     2   ar
    25    27    24    1
    26    45    43    1
    27    24    23   ar
    28    24    26   ar
    29    23    25   ar
    30    26    29   ar
    31    26    36    1
    32    29    34    1
    33    29    28   ar
    34    36    37   ar
    35    25    28   ar
    36    25    18    1
    37    34    35    1
    38    28    30    1
    39    18    17   ar
    40     4    15    1
    41     4     3   ar
    42    15    16   ar
    43     2     7    1
    44     2     3   ar
    45    38    37   ar
    46    38    47    1
    47     7     8    1
    48     3     9    1
    49    37    43    1
    50    17    16   ar
    51    17    22    1
    52    16    20    1
    53    43    44    1
    54    43    46    1
