@<TRIPOS>MOLECULE
mol_data/opt/b3lyp/geoms/mol2/12fl12fl-12fl-12fl.out
 50 53 0 0 0
SMALL
GASTEIGER

@<TRIPOS>ATOM
      1 C          -0.7635    1.8877   -0.0465 C.ar    1  LIG1        0.1379
      2 C           0.5336    1.5261   -0.2287 C.ar    1  LIG1        0.1979
      3 C           1.3309    2.7184   -0.1536 C.ar    1  LIG1        0.2109
      4 C           0.4611    3.7640    0.0690 C.ar    1  LIG1        0.2186
      5 O          -0.8218    3.2563    0.1464 O.2     1  LIG1       -0.4521
      6 H          -1.6962    1.3526   -0.0110 H       1  LIG1        0.1069
      7 O           1.0414    0.2883   -0.4423 O.3     1  LIG1       -0.5012
      8 H           2.0004    0.4046   -0.5352 H       1  LIG1        0.2924
      9 O           2.6742    2.6228   -0.3547 O.3     1  LIG1       -0.4883
     10 C           3.5510    3.3350    0.5372 C.3     1  LIG1        0.0791
     11 H           4.5316    2.8688    0.4255 H       1  LIG1        0.0660
     12 H           3.6151    4.3906    0.2695 H       1  LIG1        0.0660
     13 H           3.2108    3.2330    1.5736 H       1  LIG1        0.0660
     14 C           0.5309    5.1829    0.2242 C.ar    1  LIG1        0.2194
     15 C          -0.4674    6.1115    0.4346 C.ar    1  LIG1        0.2094
     16 C           0.1722    7.3840    0.4882 C.ar    1  LIG1        0.2117
     17 C           1.5253    7.1641    0.3233 C.ar    1  LIG1        0.2197
     18 O           1.7462    5.8242    0.1646 O.2     1  LIG1       -0.4407
     19 O          -1.8038    5.9121    0.5583 O.3     1  LIG1       -0.5007
     20 H          -1.9674    4.9599    0.4611 H       1  LIG1        0.2924
     21 O          -0.3990    8.6126    0.7245 O.3     1  LIG1       -0.4883
     22 C          -1.4420    8.9799   -0.2007 C.3     1  LIG1        0.0791
     23 H          -1.7951    9.9625    0.1154 H       1  LIG1        0.0660
     24 H          -1.0485    9.0345   -1.2218 H       1  LIG1        0.0660
     25 H          -2.2594    8.2567   -0.1552 H       1  LIG1        0.0660
     26 C           2.6521    8.0385    0.3454 C.ar    1  LIG1        0.2195
     27 C           2.7778    9.3884    0.6154 C.ar    1  LIG1        0.2094
     28 C           4.1691    9.6973    0.4978 C.ar    1  LIG1        0.2117
     29 C           4.8083    8.5165    0.1704 C.ar    1  LIG1        0.2196
     30 O           3.8925    7.5042    0.0838 O.2     1  LIG1       -0.4407
     31 O           1.8269   10.2898    0.9487 O.3     1  LIG1       -0.5007
     32 H           0.9589    9.8364    0.9674 H       1  LIG1        0.2924
     33 O           4.7793   10.8862    0.7436 O.3     1  LIG1       -0.4883
     34 C           4.2831   11.9942   -0.0166 C.3     1  LIG1        0.0791
     35 H           4.8714   12.8595    0.2938 H       1  LIG1        0.0660
     36 H           4.4254   11.8242   -1.0912 H       1  LIG1        0.0660
     37 H           3.2238   12.1751    0.1876 H       1  LIG1        0.0660
     38 C           6.1759    8.1655   -0.0627 C.ar    1  LIG1        0.2184
     39 C           6.8055    6.9687   -0.3203 C.ar    1  LIG1        0.2086
     40 C           8.1952    7.2676   -0.4740 C.ar    1  LIG1        0.2002
     41 C           8.3364    8.6152   -0.3029 C.ar    1  LIG1        0.1381
     42 O           7.1125    9.1717   -0.0518 O.2     1  LIG1       -0.4521
     43 H           9.1746    9.2907   -0.3207 H       1  LIG1        0.1069
     44 O           6.2506    5.7309   -0.4113 O.3     1  LIG1       -0.5007
     45 H           6.9664    5.1180   -0.6340 H       1  LIG1        0.2924
     46 O           9.0848    6.2742   -0.7402 O.3     1  LIG1       -0.4888
     47 C          10.4385    6.6921   -0.8726 C.3     1  LIG1        0.0791
     48 H          11.0244    5.7967   -1.0820 H       1  LIG1        0.0660
     49 H          10.5479    7.4055   -1.6994 H       1  LIG1        0.0660
     50 H          10.7960    7.1573    0.0549 H       1  LIG1        0.0660
@<TRIPOS>BOND
     1    49    47    1
     2    24    22    1
     3    36    34    1
     4    48    47    1
     5    47    46    1
     6    47    50    1
     7    46    40    1
     8    45    44    1
     9     8     7    1
    10    40    39   ar
    11    40    41   ar
    12     7     2    1
    13    44    39    1
    14     9     3    1
    15     9    10    1
    16    43    41    1
    17    39    38   ar
    18    41    42   ar
    19     2     3   ar
    20     2     1   ar
    21    22    25    1
    22    22    23    1
    23    22    21    1
    24     3     4   ar
    25    38    42   ar
    26    38    29    1
    27     1     6    1
    28     1     5   ar
    29    34    37    1
    30    34    35    1
    31    34    33    1
    32     4     5   ar
    33     4    14    1
    34    30    29   ar
    35    30    26   ar
    36    18    14   ar
    37    18    17   ar
    38    29    28   ar
    39    14    15   ar
    40    12    10    1
    41    17    26    1
    42    17    16   ar
    43    26    27   ar
    44    11    10    1
    45    15    16   ar
    46    15    19    1
    47    20    19    1
    48    16    21    1
    49    28    27   ar
    50    28    33    1
    51    10    13    1
    52    27    31    1
    53    31    32    1
