@<TRIPOS>MOLECULE
mol_data/opt/b3lyp/geoms/mol2/12fl12fl-12fl.out
 38 40 0 0 0
SMALL
GASTEIGER

@<TRIPOS>ATOM
      1 C          -0.0224    1.8107   -0.0002 C.ar    1  LIG1        0.1379
      2 C           1.3363    1.6973    0.0000 C.ar    1  LIG1        0.1979
      3 C           1.8646    3.0420   -0.0000 C.ar    1  LIG1        0.2109
      4 C           0.7736    3.8840   -0.0001 C.ar    1  LIG1        0.2186
      5 O          -0.3806    3.1353   -0.0000 O.2     1  LIG1       -0.4521
      6 H          -0.8158    1.0834   -0.0003 H       1  LIG1        0.1069
      7 O           1.9770    0.4895    0.0001 O.3     1  LIG1       -0.5012
      8 H           2.9292    0.6246    0.0003 H       1  LIG1        0.2924
      9 O           3.1433    3.5204    0.0001 O.3     1  LIG1       -0.4883
     10 C           4.2154    2.6007   -0.0002 C.3     1  LIG1        0.0791
     11 H           5.1282    3.1984   -0.0003 H       1  LIG1        0.0660
     12 H           4.2225    1.9716    0.9029 H       1  LIG1        0.0660
     13 H           4.2222    1.9718   -0.9035 H       1  LIG1        0.0660
     14 C           0.5804    5.3002   -0.0000 C.ar    1  LIG1        0.2194
     15 C          -0.5805    6.0358    0.0000 C.ar    1  LIG1        0.2094
     16 C          -0.2070    7.4159   -0.0001 C.ar    1  LIG1        0.2117
     17 C           1.1856    7.4434   -0.0001 C.ar    1  LIG1        0.2196
     18 O           1.6538    6.1441   -0.0001 O.2     1  LIG1       -0.4407
     19 O          -1.8684    5.6150    0.0001 O.3     1  LIG1       -0.5007
     20 H          -1.8590    4.6457    0.0001 H       1  LIG1        0.2924
     21 O          -1.2063    8.3287    0.0000 O.3     1  LIG1       -0.4883
     22 C          -0.9394    9.7248   -0.0002 C.3     1  LIG1        0.0791
     23 H          -1.9200   10.2043   -0.0002 H       1  LIG1        0.0660
     24 H          -0.3805   10.0287    0.8897 H       1  LIG1        0.0660
     25 H          -0.3806   10.0285   -0.8903 H       1  LIG1        0.0660
     26 C           2.2420    8.4226   -0.0002 C.ar    1  LIG1        0.2184
     27 C           3.6187    8.2878   -0.0000 C.ar    1  LIG1        0.2086
     28 C           4.1564    9.6269   -0.0002 C.ar    1  LIG1        0.2002
     29 C           3.0850   10.4710   -0.0006 C.ar    1  LIG1        0.1381
     30 O           1.9243    9.7541   -0.0004 O.2     1  LIG1       -0.4521
     31 H           3.0032   11.5444   -0.0008 H       1  LIG1        0.1069
     32 O           4.2668    7.0851    0.0003 O.3     1  LIG1       -0.5007
     33 H           5.2165    7.2366    0.0005 H       1  LIG1        0.2924
     34 O           5.4407   10.0982   -0.0001 O.3     1  LIG1       -0.4888
     35 C           6.5155    9.1781   -0.0001 C.3     1  LIG1        0.0791
     36 H           7.4283    9.7763   -0.0002 H       1  LIG1        0.0660
     37 H           6.5230    8.5501    0.9031 H       1  LIG1        0.0660
     38 H           6.5229    8.5499   -0.9030 H       1  LIG1        0.0660
@<TRIPOS>BOND
     1    13    10    1
     2    38    35    1
     3    25    22    1
     4    31    29    1
     5    29    30   ar
     6    29    28   ar
     7    30    26   ar
     8    11    10    1
     9     6     1    1
    10    36    35    1
    11    10     9    1
    12    10    12    1
    13    22    23    1
    14    22    21    1
    15    22    24    1
    16    28    34    1
    17    28    27   ar
    18    26    17    1
    19    26    27   ar
    20     1     5   ar
    21     1     2   ar
    22    17    18   ar
    23    17    16   ar
    24    18    14   ar
    25    34    35    1
    26    35    37    1
    27    16    21    1
    28    16    15   ar
    29     4    14    1
    30     4     5   ar
    31     4     3   ar
    32    14    15   ar
    33     3     2   ar
    34     3     9    1
    35    27    32    1
    36     2     7    1
    37    15    19    1
    38     7     8    1
    39    19    20    1
    40    32    33    1
