@<TRIPOS>MOLECULE
mol_data/opt/b3lyp/geoms/mol2/12fl12fl.out
 26 27 0 0 0
SMALL
GASTEIGER

@<TRIPOS>ATOM
      1 C           0.0163    1.7170   -0.0000 C.ar    1  LIG1        0.1379
      2 C           1.3779    1.6382    0.0000 C.ar    1  LIG1        0.1979
      3 C           1.8600    2.9978    0.0000 C.ar    1  LIG1        0.2109
      4 C           0.7383    3.8054   -0.0001 C.ar    1  LIG1        0.2186
      5 O          -0.3823    3.0195   -0.0002 O.2     1  LIG1       -0.4521
      6 H          -0.7544    0.9649   -0.0001 H       1  LIG1        0.1069
      7 O           2.0536    0.4470    0.0001 O.3     1  LIG1       -0.5012
      8 H           3.0014    0.6083    0.0002 H       1  LIG1        0.2924
      9 O           3.1284    3.5027    0.0001 O.3     1  LIG1       -0.4883
     10 C           4.2235    2.6114   -0.0001 C.3     1  LIG1        0.0791
     11 H           5.1206    3.2328   -0.0001 H       1  LIG1        0.0660
     12 H           4.2479    1.9827    0.9030 H       1  LIG1        0.0660
     13 H           4.2477    1.9828   -0.9032 H       1  LIG1        0.0660
     14 C           0.5057    5.2276   -0.0001 C.ar    1  LIG1        0.2184
     15 C           1.3054    6.3537   -0.0000 C.ar    1  LIG1        0.2086
     16 C           0.4089    7.4839   -0.0001 C.ar    1  LIG1        0.2002
     17 C          -0.8552    6.9689   -0.0002 C.ar    1  LIG1        0.1381
     18 O          -0.8114    5.6108   -0.0002 O.2     1  LIG1       -0.4521
     19 H          -1.8271    7.4331   -0.0003 H       1  LIG1        0.1069
     20 O           2.6722    6.3226    0.0001 O.3     1  LIG1       -0.5007
     21 H           3.0109    7.2226    0.0003 H       1  LIG1        0.2924
     22 O           0.6365    8.8341   -0.0001 O.3     1  LIG1       -0.4888
     23 C           1.9679    9.3102   -0.0003 C.3     1  LIG1        0.0791
     24 H           1.9023   10.3996   -0.0004 H       1  LIG1        0.0660
     25 H           2.5178    9.0052    0.9026 H       1  LIG1        0.0660
     26 H           2.5176    9.0050   -0.9032 H       1  LIG1        0.0660
@<TRIPOS>BOND
     1    13    10    1
     2    26    23    1
     3    24    23    1
     4    19    17    1
     5    23    22    1
     6    23    25    1
     7    18    17   ar
     8    18    14   ar
     9    17    16   ar
    10     5     4   ar
    11     5     1   ar
    12    11    10    1
    13    16    22    1
    14    16    15   ar
    15    14     4    1
    16    14    15   ar
    17    10     9    1
    18    10    12    1
    19     6     1    1
    20     4     3   ar
    21     1     2   ar
    22    15    20    1
    23     2     3   ar
    24     2     7    1
    25     3     9    1
    26     7     8    1
    27    20    21    1
