@<TRIPOS>MOLECULE
mol_data/opt/b3lyp/geoms/mol2/12fl12fl12fl-12fl.out
 50 53 0 0 0
SMALL
GASTEIGER

@<TRIPOS>ATOM
      1 C          -0.0352    1.6986   -0.0000 C.ar    1  LIG1        0.1379
      2 C           1.3235    1.5760    0.0000 C.ar    1  LIG1        0.1979
      3 C           1.8521    2.9177    0.0000 C.ar    1  LIG1        0.2109
      4 C           0.7580    3.7638   -0.0000 C.ar    1  LIG1        0.2186
      5 O          -0.3908    3.0158   -0.0000 O.2     1  LIG1       -0.4521
      6 H          -0.8304    0.9727   -0.0001 H       1  LIG1        0.1069
      7 O           1.9584    0.3634    0.0001 O.3     1  LIG1       -0.5012
      8 H           2.9113    0.4918    0.0002 H       1  LIG1        0.2924
      9 O           3.1355    3.3827    0.0001 O.3     1  LIG1       -0.4883
     10 C           4.2011    2.4553   -0.0002 C.3     1  LIG1        0.0791
     11 H           5.1183    3.0465   -0.0003 H       1  LIG1        0.0660
     12 H           4.2033    1.8266    0.9030 H       1  LIG1        0.0660
     13 H           4.2030    1.8267   -0.9034 H       1  LIG1        0.0660
     14 C           0.5696    5.1862   -0.0000 C.ar    1  LIG1        0.2194
     15 C           1.3835    6.3026   -0.0000 C.ar    1  LIG1        0.2094
     16 C           0.5201    7.4523   -0.0001 C.ar    1  LIG1        0.2117
     17 C          -0.7734    6.9738   -0.0001 C.ar    1  LIG1        0.2197
     18 O          -0.7441    5.6016   -0.0001 O.2     1  LIG1       -0.4407
     19 O           2.7471    6.2386    0.0001 O.3     1  LIG1       -0.5007
     20 H           3.1099    7.1293    0.0001 H       1  LIG1        0.2924
     21 O           0.7834    8.7923   -0.0000 O.3     1  LIG1       -0.4883
     22 C           2.1245    9.2354   -0.0003 C.3     1  LIG1        0.0791
     23 H           2.0828   10.3258   -0.0004 H       1  LIG1        0.0660
     24 H           2.6674    8.9183    0.9031 H       1  LIG1        0.0660
     25 H           2.6671    8.9181   -0.9037 H       1  LIG1        0.0660
     26 C          -2.0818    7.5379   -0.0001 C.ar    1  LIG1        0.2195
     27 C          -3.3073    6.9104   -0.0001 C.ar    1  LIG1        0.2094
     28 C          -4.3039    7.9349   -0.0002 C.ar    1  LIG1        0.2117
     29 C          -3.6189    9.1486   -0.0002 C.ar    1  LIG1        0.2196
     30 O          -2.2616    8.8914   -0.0002 O.2     1  LIG1       -0.4407
     31 O          -3.6009    5.5897   -0.0001 O.3     1  LIG1       -0.5007
     32 H          -2.7655    5.0958   -0.0000 H       1  LIG1        0.2924
     33 O          -5.5984    7.5398   -0.0001 O.3     1  LIG1       -0.4883
     34 C          -6.6650    8.4790   -0.0003 C.3     1  LIG1        0.0791
     35 H          -7.5762    7.8779   -0.0003 H       1  LIG1        0.0660
     36 H          -6.6433    9.1147    0.8897 H       1  LIG1        0.0660
     37 H          -6.6432    9.1145   -0.8904 H       1  LIG1        0.0660
     38 C          -3.9233   10.5557   -0.0003 C.ar    1  LIG1        0.2184
     39 C          -3.1050   11.6714   -0.0001 C.ar    1  LIG1        0.2086
     40 C          -3.9823   12.8168   -0.0003 C.ar    1  LIG1        0.2002
     41 C          -5.2549   12.3260   -0.0006 C.ar    1  LIG1        0.1381
     42 O          -5.2306   10.9620   -0.0006 O.2     1  LIG1       -0.4521
     43 H          -6.2198   12.8035   -0.0008 H       1  LIG1        0.1069
     44 O          -1.7397   11.6138    0.0002 O.3     1  LIG1       -0.5007
     45 H          -1.3840   12.5072    0.0003 H       1  LIG1        0.2924
     46 O          -3.7321   14.1620   -0.0003 O.3     1  LIG1       -0.4888
     47 C          -2.3923   14.6161   -0.0002 C.3     1  LIG1        0.0791
     48 H          -2.4404   15.7064   -0.0003 H       1  LIG1        0.0660
     49 H          -1.8485   14.3017    0.9028 H       1  LIG1        0.0660
     50 H          -1.8484   14.3015   -0.9031 H       1  LIG1        0.0660
@<TRIPOS>BOND
     1    25    22    1
     2    13    10    1
     3    50    47    1
     4    37    34    1
     5    43    41    1
     6    41    42   ar
     7    41    40   ar
     8    42    38   ar
     9    23    22    1
    10    48    47    1
    11    40    46    1
    12    40    39   ar
    13    38    29    1
    14    38    39   ar
    15    34    35    1
    16    34    33    1
    17    34    36    1
    18    22    21    1
    19    22    24    1
    20    46    47    1
    21    11    10    1
    22    29    30   ar
    23    29    28   ar
    24    47    49    1
    25    30    26   ar
    26    28    33    1
    27    28    27   ar
    28    10     9    1
    29    10    12    1
    30    26    27   ar
    31    26    17    1
    32    39    44    1
    33    27    31    1
    34    17    18   ar
    35    17    16   ar
    36    18    14   ar
    37    16    21    1
    38    16    15   ar
    39     6     1    1
    40    31    32    1
    41     5     1   ar
    42     5     4   ar
    43    14     4    1
    44    14    15   ar
    45     1     2   ar
    46     4     3   ar
    47    15    19    1
    48     3     2   ar
    49     3     9    1
    50     2     7    1
    51    19    20    1
    52     7     8    1
    53    44    45    1
