@<TRIPOS>MOLECULE
mol_data/opt/b3lyp/geoms/mol2/12fl12fl12fl.out
 38 40 0 0 0
SMALL
GASTEIGER

@<TRIPOS>ATOM
      1 C           0.1052    1.6252   -0.0001 C.ar    1  LIG1        0.1379
      2 C           1.4680    1.5592   -0.0000 C.ar    1  LIG1        0.1979
      3 C           1.9375    2.9222    0.0000 C.ar    1  LIG1        0.2109
      4 C           0.8071    3.7206   -0.0000 C.ar    1  LIG1        0.2186
      5 O          -0.3057    2.9234   -0.0001 O.2     1  LIG1       -0.4521
      6 H          -0.6582    0.8658   -0.0001 H       1  LIG1        0.1069
      7 O           2.1546    0.3740   -0.0000 O.3     1  LIG1       -0.5012
      8 H           3.1006    0.5452    0.0001 H       1  LIG1        0.2924
      9 O           3.2016    3.4387    0.0001 O.3     1  LIG1       -0.4883
     10 C           4.3035    2.5564   -0.0002 C.3     1  LIG1        0.0791
     11 H           5.1959    3.1847   -0.0002 H       1  LIG1        0.0660
     12 H           4.3326    1.9276    0.9027 H       1  LIG1        0.0660
     13 H           4.3323    1.9277   -0.9032 H       1  LIG1        0.0660
     14 C           0.5617    5.1371    0.0000 C.ar    1  LIG1        0.2194
     15 C           1.3485    6.2731    0.0001 C.ar    1  LIG1        0.2094
     16 C           0.4505    7.3928    0.0000 C.ar    1  LIG1        0.2117
     17 C          -0.8305    6.8727   -0.0000 C.ar    1  LIG1        0.2196
     18 O          -0.7570    5.5082   -0.0000 O.2     1  LIG1       -0.4407
     19 O           2.7150    6.2510    0.0001 O.3     1  LIG1       -0.5007
     20 H           3.0491    7.1526    0.0002 H       1  LIG1        0.2924
     21 O           0.6875    8.7374    0.0001 O.3     1  LIG1       -0.4883
     22 C           2.0160    9.2151   -0.0002 C.3     1  LIG1        0.0791
     23 H           1.9453   10.3042   -0.0003 H       1  LIG1        0.0660
     24 H           2.5677    8.9134    0.9031 H       1  LIG1        0.0660
     25 H           2.5674    8.9132   -0.9036 H       1  LIG1        0.0660
     26 C          -2.1565    7.4281   -0.0001 C.ar    1  LIG1        0.2184
     27 C          -2.6888    8.7046   -0.0001 C.ar    1  LIG1        0.2086
     28 C          -4.1212    8.5428   -0.0002 C.ar    1  LIG1        0.2002
     29 C          -4.3543    7.1973   -0.0002 C.ar    1  LIG1        0.1381
     30 O          -3.1801    6.5149   -0.0002 O.2     1  LIG1       -0.4521
     31 H          -5.2631    6.6194   -0.0002 H       1  LIG1        0.1069
     32 O          -1.9381    9.8475   -0.0000 O.3     1  LIG1       -0.5007
     33 H          -2.5224   10.6113    0.0000 H       1  LIG1        0.2924
     34 O          -5.1468    9.4504   -0.0002 O.3     1  LIG1       -0.4888
     35 C          -4.8463   10.8318   -0.0005 C.3     1  LIG1        0.0791
     36 H          -5.8054   11.3528   -0.0007 H       1  LIG1        0.0660
     37 H          -4.2966   11.1373    0.9024 H       1  LIG1        0.0660
     38 H          -4.2965   11.1369   -0.9035 H       1  LIG1        0.0660
@<TRIPOS>BOND
     1    25    22    1
     2    38    35    1
     3    13    10    1
     4    36    35    1
     5    35    34    1
     6    35    37    1
     7    23    22    1
     8    31    29    1
     9    11    10    1
    10    34    28    1
    11    29    28   ar
    12    29    30   ar
    13    28    27   ar
    14    22    21    1
    15    22    24    1
    16    10     9    1
    17    10    12    1
    18    30    26   ar
    19    27    26   ar
    20    27    32    1
    21     6     1    1
    22    26    17    1
    23     5     1   ar
    24     5     4   ar
    25     1     2   ar
    26    18    17   ar
    27    18    14   ar
    28    32    33    1
    29    17    16   ar
    30     7     2    1
    31     7     8    1
    32     2     3   ar
    33     4    14    1
    34     4     3   ar
    35    14    15   ar
    36     3     9    1
    37    16    15   ar
    38    16    21    1
    39    15    19    1
    40    19    20    1
