@<TRIPOS>MOLECULE
mol_data/opt/b3lyp/geoms/mol2/12fl12fl-12fl12fl.out
 50 53 0 0 0
SMALL
GASTEIGER

@<TRIPOS>ATOM
      1 C           0.0272    1.6563   -0.0003 C.ar    1  LIG1        0.1379
      2 C           1.3885    1.5791   -0.0002 C.ar    1  LIG1        0.1979
      3 C           1.8809    2.9371   -0.0001 C.ar    1  LIG1        0.2109
      4 C           0.7677    3.7503   -0.0001 C.ar    1  LIG1        0.2186
      5 O          -0.3661    2.9709   -0.0002 O.2     1  LIG1       -0.4521
      6 H          -0.7466    0.9082   -0.0004 H       1  LIG1        0.1069
      7 O           2.0606    0.3882   -0.0003 O.3     1  LIG1       -0.5012
      8 H           3.0091    0.5476   -0.0001 H       1  LIG1        0.2924
      9 O           3.1466    3.4490   -0.0000 O.3     1  LIG1       -0.4883
     10 C           4.2422    2.5579   -0.0004 C.3     1  LIG1        0.0791
     11 H           5.1391    3.1793   -0.0005 H       1  LIG1        0.0660
     12 H           4.2659    1.9290    0.9026 H       1  LIG1        0.0660
     13 H           4.2655    1.9293   -0.9037 H       1  LIG1        0.0660
     14 C           0.5373    5.1604   -0.0001 C.ar    1  LIG1        0.2194
     15 C          -0.6435    5.8652   -0.0000 C.ar    1  LIG1        0.2094
     16 C          -0.3089    7.2545    0.0001 C.ar    1  LIG1        0.2117
     17 C           1.0845    7.3187    0.0001 C.ar    1  LIG1        0.2197
     18 O           1.5883    6.0322   -0.0000 O.2     1  LIG1       -0.4407
     19 O          -1.9191    5.4081   -0.0000 O.3     1  LIG1       -0.5007
     20 H          -1.8826    4.4396   -0.0001 H       1  LIG1        0.2924
     21 O          -1.3309    8.1396    0.0002 O.3     1  LIG1       -0.4883
     22 C          -1.1065    9.5463    0.0002 C.3     1  LIG1        0.0791
     23 H          -2.1028    9.9922    0.0002 H       1  LIG1        0.0660
     24 H          -0.5574    9.8690    0.8883 H       1  LIG1        0.0660
     25 H          -0.5574    9.8691   -0.8880 H       1  LIG1        0.0660
     26 C           2.1054    8.3281    0.0001 C.ar    1  LIG1        0.2195
     27 C           3.4871    8.2485    0.0003 C.ar    1  LIG1        0.2094
     28 C           3.9766    9.5983    0.0002 C.ar    1  LIG1        0.2117
     29 C           2.8682   10.4231   -0.0000 C.ar    1  LIG1        0.2196
     30 O           1.7396    9.6445   -0.0001 O.2     1  LIG1       -0.4407
     31 O           4.1748    7.0683    0.0006 O.3     1  LIG1       -0.5007
     32 H           5.1193    7.2483    0.0009 H       1  LIG1        0.2924
     33 O           5.2468   10.0956    0.0004 O.3     1  LIG1       -0.4883
     34 C           6.3466    9.2088    0.0002 C.3     1  LIG1        0.0791
     35 H           7.2396    9.8361    0.0001 H       1  LIG1        0.0660
     36 H           6.3744    8.5814    0.9036 H       1  LIG1        0.0660
     37 H           6.3741    8.5813   -0.9031 H       1  LIG1        0.0660
     38 C           2.6422   11.8415   -0.0002 C.ar    1  LIG1        0.2184
     39 C           3.4463   12.9662   -0.0002 C.ar    1  LIG1        0.2086
     40 C           2.5542   14.0993   -0.0005 C.ar    1  LIG1        0.2002
     41 C           1.2873   13.5910   -0.0007 C.ar    1  LIG1        0.1381
     42 O           1.3249   12.2307   -0.0005 O.2     1  LIG1       -0.4521
     43 H           0.3178   14.0599   -0.0009 H       1  LIG1        0.1069
     44 O           4.8128   12.9267   -0.0000 O.3     1  LIG1       -0.5007
     45 H           5.1584   13.8241    0.0000 H       1  LIG1        0.2924
     46 O           2.7872   15.4478   -0.0006 O.3     1  LIG1       -0.4888
     47 C           4.1211   15.9182   -0.0008 C.3     1  LIG1        0.0791
     48 H           4.0602   17.0078   -0.0010 H       1  LIG1        0.0660
     49 H           4.6688   15.6105    0.9023 H       1  LIG1        0.0660
     50 H           4.6688   15.6101   -0.9037 H       1  LIG1        0.0660
@<TRIPOS>BOND
     1    50    47    1
     2    13    10    1
     3    37    34    1
     4    25    22    1
     5    48    47    1
     6    43    41    1
     7    47    46    1
     8    47    49    1
     9    41    40   ar
    10    41    42   ar
    11    46    40    1
    12    40    39   ar
    13    11    10    1
    14    42    38   ar
    15    10     9    1
    16    10    12    1
    17     6     1    1
    18     1     2   ar
    19     1     5   ar
    20     7     2    1
    21     7     8    1
    22    38    39   ar
    23    38    29    1
    24    39    44    1
    25     2     3   ar
    26     5     4   ar
    27     4     3   ar
    28     4    14    1
    29     3     9    1
    30    30    29   ar
    31    30    26   ar
    32    20    19    1
    33    14    18   ar
    34    14    15   ar
    35    19    15    1
    36    29    28   ar
    37    18    17   ar
    38    15    16   ar
    39    44    45    1
    40    17    16   ar
    41    17    26    1
    42    16    21    1
    43    35    34    1
    44    26    27   ar
    45    21    22    1
    46    22    23    1
    47    22    24    1
    48    34    33    1
    49    34    36    1
    50    28    27   ar
    51    28    33    1
    52    27    31    1
    53    31    32    1
