@<TRIPOS>MOLECULE
mol_data/opt/b3lyp/geoms/mol2/12ga12ga12ga12ga.out
 34 37 0 0 0
SMALL
GASTEIGER

@<TRIPOS>ATOM
      1 C           0.5883    1.8017    0.0236 C.ar    1  LIG1        0.1058
      2 C           1.9460    1.9481    0.0798 C.ar    1  LIG1        0.0433
      3 C           2.1994    3.3570    0.0639 C.ar    1  LIG1        0.0005
      4 C           0.9702    3.9654    0.0064 C.ar    1  LIG1        0.1719
      5 O          -0.0193    3.0134   -0.0260 O.2     1  LIG1       -0.4587
      6 H          -0.0572    0.9380    0.0075 H       1  LIG1        0.1041
      7 S           3.1220    0.6162    0.0561 S.3     1  LIG1       -0.1396
      8 H           3.6006    0.7784    1.3089 H       1  LIG1        0.1072
      9 H           3.1586    3.8490    0.0909 H       1  LIG1        0.0667
     10 C           0.5409    5.3384   -0.0341 C.ar    1  LIG1        0.1838
     11 C           1.2049    6.5522   -0.0511 C.ar    1  LIG1        0.0544
     12 C           0.2021    7.5633   -0.0896 C.ar    1  LIG1        0.0012
     13 C          -1.0078    6.9137   -0.1028 C.ar    1  LIG1        0.1729
     14 O          -0.8041    5.5576   -0.0626 O.2     1  LIG1       -0.4475
     15 S           2.9595    6.8072    0.0558 S.3     1  LIG1       -0.1389
     16 H           3.1617    7.2014   -1.2209 H       1  LIG1        0.1072
     17 H           0.3583    8.6302   -0.1063 H       1  LIG1        0.0668
     18 C          -2.3734    7.3577   -0.1369 C.ar    1  LIG1        0.1838
     19 C          -2.9780    8.6030   -0.1489 C.ar    1  LIG1        0.0544
     20 C          -4.3832    8.3711   -0.1917 C.ar    1  LIG1        0.0012
     21 C          -4.5554    7.0095   -0.1900 C.ar    1  LIG1        0.1729
     22 O          -3.3325    6.3889   -0.1633 O.2     1  LIG1       -0.4475
     23 S          -2.1655   10.1814   -0.2065 S.3     1  LIG1       -0.1389
     24 H          -2.3966   10.5502    1.0731 H       1  LIG1        0.1072
     25 H          -5.1612    9.1172   -0.2265 H       1  LIG1        0.0668
     26 C          -5.7101    6.1507   -0.2077 C.ar    1  LIG1        0.1828
     27 C          -7.0733    6.3751   -0.1854 C.ar    1  LIG1        0.0537
     28 C          -7.6938    5.0834   -0.2305 C.ar    1  LIG1       -0.0099
     29 C          -6.6829    4.1765   -0.2658 C.ar    1  LIG1        0.0938
     30 O          -5.4732    4.8070   -0.2585 O.2     1  LIG1       -0.4587
     31 H          -6.6471    3.0992   -0.3017 H       1  LIG1        0.1030
     32 S          -7.8956    7.9484   -0.2040 S.3     1  LIG1       -0.1389
     33 H          -8.3189    7.9502    1.0799 H       1  LIG1        0.1072
     34 H          -8.7547    4.8820   -0.2384 H       1  LIG1        0.0660
@<TRIPOS>BOND
     1    16    15    1
     2    31    29    1
     3    29    30   ar
     4    29    28   ar
     5    30    26   ar
     6    34    28    1
     7    28    27   ar
     8    25    20    1
     9    26    21    1
    10    26    27   ar
    11    23    19    1
    12    23    24    1
    13    32    27    1
    14    32    33    1
    15    20    21   ar
    16    20    19   ar
    17    21    22   ar
    18    22    18   ar
    19    19    18   ar
    20    18    13    1
    21    17    12    1
    22    13    12   ar
    23    13    14   ar
    24    12    11   ar
    25    14    10   ar
    26    11    10   ar
    27    11    15    1
    28    10     4    1
    29     5     4   ar
    30     5     1   ar
    31     4     3   ar
    32     6     1    1
    33     1     2   ar
    34     7     2    1
    35     7     8    1
    36     3     2   ar
    37     3     9    1
