@<TRIPOS>MOLECULE
mol_data/opt/b3lyp/geoms/mol2/12ga12ga12ga.out
 26 28 0 0 0
SMALL
GASTEIGER

@<TRIPOS>ATOM
      1 C           0.4024    1.8195   -0.0956 C.ar    1  LIG1        0.1058
      2 C           1.7625    1.9337   -0.0284 C.ar    1  LIG1        0.0433
      3 C           2.0470    3.3367    0.0033 C.ar    1  LIG1        0.0005
      4 C           0.8322    3.9738   -0.0394 C.ar    1  LIG1        0.1719
      5 O          -0.1781    3.0456   -0.1074 O.2     1  LIG1       -0.4587
      6 H          -0.2620    0.9714   -0.1436 H       1  LIG1        0.1041
      7 S           2.9096    0.5781   -0.0922 S.3     1  LIG1       -0.1396
      8 H           3.3726    0.6757    1.1732 H       1  LIG1        0.1072
      9 H           3.0165    3.8064    0.0514 H       1  LIG1        0.0667
     10 C           0.4344    5.3573   -0.0373 C.ar    1  LIG1        0.1838
     11 C           1.1254    6.5550   -0.0107 C.ar    1  LIG1        0.0544
     12 C           0.1447    7.5898   -0.0222 C.ar    1  LIG1        0.0012
     13 C          -1.0779    6.9692   -0.0649 C.ar    1  LIG1        0.1729
     14 O          -0.9053    5.6081   -0.0682 O.2     1  LIG1       -0.4475
     15 S           2.8842    6.7701    0.1162 S.3     1  LIG1       -0.1389
     16 H           3.1133    7.1462   -1.1616 H       1  LIG1        0.1072
     17 H           0.3254    8.6528   -0.0040 H       1  LIG1        0.0668
     18 C          -2.4362    7.4445   -0.0969 C.ar    1  LIG1        0.1828
     19 C          -3.0135    8.6996   -0.0769 C.ar    1  LIG1        0.0537
     20 C          -4.4307    8.4906   -0.1384 C.ar    1  LIG1       -0.0099
     21 C          -4.6162    7.1455   -0.1802 C.ar    1  LIG1        0.0938
     22 O          -3.4159    6.4961   -0.1590 O.2     1  LIG1       -0.4587
     23 H          -5.4880    6.5125   -0.2284 H       1  LIG1        0.1030
     24 S          -2.1758   10.2653   -0.0807 S.3     1  LIG1       -0.1389
     25 H          -2.2867   10.5413    1.2385 H       1  LIG1        0.1072
     26 H          -5.1906    9.2577   -0.1516 H       1  LIG1        0.0660
@<TRIPOS>BOND
     1    16    15    1
     2    23    21    1
     3    21    22   ar
     4    21    20   ar
     5    22    18   ar
     6    26    20    1
     7     6     1    1
     8    20    19   ar
     9     5     1   ar
    10     5     4   ar
    11    18    19   ar
    12    18    13    1
    13     1     2   ar
    14     7     2    1
    15     7     8    1
    16    24    19    1
    17    24    25    1
    18    14    13   ar
    19    14    10   ar
    20    13    12   ar
    21     4    10    1
    22     4     3   ar
    23    10    11   ar
    24     2     3   ar
    25    12    11   ar
    26    12    17    1
    27    11    15    1
    28     3     9    1
