@<TRIPOS>MOLECULE
mol_data/opt/b3lyp/geoms/mol2/12ga.out
 10 10 0 0 0
SMALL
GASTEIGER

@<TRIPOS>ATOM
      1 C           0.1448    1.9349   -0.0001 C.ar    1  LIG1        0.1048
      2 C           1.5094    1.9263    0.0000 C.ar    1  LIG1        0.0425
      3 C           1.9165    3.3054   -0.0000 C.ar    1  LIG1       -0.0107
      4 C           0.7685    4.0348   -0.0001 C.ar    1  LIG1        0.0928
      5 O          -0.3196    3.2204   -0.0000 O.2     1  LIG1       -0.4699
      6 H          -0.6023    1.1578   -0.0001 H       1  LIG1        0.1040
      7 H           0.5669    5.0948   -0.0002 H       1  LIG1        0.1029
      8 S           2.5343    0.4746    0.0001 S.3     1  LIG1       -0.1396
      9 H           3.7093    1.1316    0.0002 H       1  LIG1        0.1072
     10 H           2.9266    3.6881    0.0000 H       1  LIG1        0.0660
@<TRIPOS>BOND
     1     7     4    1
     2     4     5   ar
     3     4     3   ar
     4     6     1    1
     5     1     5   ar
     6     1     2   ar
     7     3     2   ar
     8     3    10    1
     9     2     8    1
    10     8     9    1
