@<TRIPOS>MOLECULE
mol_data/opt/b3lyp/geoms/mol2/12ga12ga.out
 18 19 0 0 0
SMALL
GASTEIGER

@<TRIPOS>ATOM
      1 C           0.1649    1.8079   -0.0011 C.ar    1  LIG1        0.1058
      2 C           1.5291    1.8622    0.0005 C.ar    1  LIG1        0.0433
      3 C           1.8763    3.2513    0.0000 C.ar    1  LIG1        0.0005
      4 C           0.6894    3.9431   -0.0015 C.ar    1  LIG1        0.1718
      5 O          -0.3589    3.0699   -0.0022 O.2     1  LIG1       -0.4587
      6 H          -0.5469    0.9985   -0.0018 H       1  LIG1        0.1041
      7 S           2.6199    0.4601    0.0024 S.3     1  LIG1       -0.1396
      8 H           3.7619    1.1726    0.0032 H       1  LIG1        0.1072
      9 H           2.8713    3.6701   -0.0006 H       1  LIG1        0.0667
     10 C           0.3797    5.3473   -0.0017 C.ar    1  LIG1        0.1827
     11 C           1.1604    6.4837    0.0122 C.ar    1  LIG1        0.0537
     12 C           0.2548    7.5942    0.0022 C.ar    1  LIG1       -0.0099
     13 C          -0.9970    7.0621   -0.0164 C.ar    1  LIG1        0.0938
     14 O          -0.9443    5.7049   -0.0192 O.2     1  LIG1       -0.4587
     15 H          -1.9843    7.4960   -0.0288 H       1  LIG1        0.1030
     16 S           2.9306    6.5261    0.0388 S.3     1  LIG1       -0.1389
     17 H           3.0384    7.8676    0.0424 H       1  LIG1        0.1072
     18 H           0.5127    8.6432    0.0086 H       1  LIG1        0.0660
@<TRIPOS>BOND
     1    15    13    1
     2    14    13   ar
     3    14    10   ar
     4    13    12   ar
     5     5     4   ar
     6     5     1   ar
     7     6     1    1
     8    10     4    1
     9    10    11   ar
    10     4     3   ar
    11     1     2   ar
    12     9     3    1
    13     3     2   ar
    14     2     7    1
    15    12    18    1
    16    12    11   ar
    17     7     8    1
    18    11    16    1
    19    16    17    1
