@<TRIPOS>MOLECULE
mol_data/opt/b3lyp/geoms/mol2/12ga12ga-.out
 18 19 0 0 0
SMALL
GASTEIGER

@<TRIPOS>ATOM
      1 C           0.1649    1.8079   -0.0001 C.ar    1  LIG1        0.1058
      2 C           1.5291    1.8622    0.0000 C.ar    1  LIG1        0.0433
      3 C           1.8763    3.2512    0.0000 C.ar    1  LIG1        0.0005
      4 C           0.6894    3.9431   -0.0001 C.ar    1  LIG1        0.1718
      5 O          -0.3589    3.0699   -0.0001 O.2     1  LIG1       -0.4587
      6 H          -0.5469    0.9985   -0.0001 H       1  LIG1        0.1041
      7 S           2.6199    0.4601    0.0001 S.3     1  LIG1       -0.1396
      8 H           3.7619    1.1727    0.0002 H       1  LIG1        0.1072
      9 H           2.8713    3.6700    0.0000 H       1  LIG1        0.0667
     10 C           0.3797    5.3473   -0.0001 C.ar    1  LIG1        0.1827
     11 C           1.1605    6.4838   -0.0001 C.ar    1  LIG1        0.0537
     12 C           0.2548    7.5942   -0.0001 C.ar    1  LIG1       -0.0099
     13 C          -0.9971    7.0621   -0.0002 C.ar    1  LIG1        0.0938
     14 O          -0.9444    5.7049   -0.0002 O.2     1  LIG1       -0.4587
     15 H          -1.9845    7.4960   -0.0003 H       1  LIG1        0.1030
     16 S           2.9309    6.5262    0.0000 S.3     1  LIG1       -0.1389
     17 H           3.0387    7.8677    0.0000 H       1  LIG1        0.1072
     18 H           0.5128    8.6433   -0.0001 H       1  LIG1        0.0660
@<TRIPOS>BOND
     1    15    13    1
     2    13    14   ar
     3    13    12   ar
     4    14    10   ar
     5    12    18    1
     6    12    11   ar
     7     5     4   ar
     8     5     1   ar
     9    10    11   ar
    10    10     4    1
    11     6     1    1
    12    11    16    1
    13     4     3   ar
    14     1     2   ar
    15     3     2   ar
    16     3     9    1
    17     2     7    1
    18    16    17    1
    19     7     8    1
