@<TRIPOS>MOLECULE
mol_data/opt/b3lyp/geoms/mol2/12ga12ga-12ga12ga.out
 34 37 0 0 0
SMALL
GASTEIGER

@<TRIPOS>ATOM
      1 C           0.6559    1.6373   -0.0047 C.ar    1  LIG1        0.1058
      2 C           2.0107    1.8112   -0.0045 C.ar    1  LIG1        0.0433
      3 C           2.2348    3.2245   -0.0028 C.ar    1  LIG1        0.0005
      4 C           0.9901    3.8103   -0.0020 C.ar    1  LIG1        0.1719
      5 O           0.0231    2.8472   -0.0031 O.2     1  LIG1       -0.4587
      6 H           0.0185    0.7682   -0.0058 H       1  LIG1        0.1041
      7 S           3.2180    0.5088   -0.0061 S.3     1  LIG1       -0.1396
      8 H           4.2949    1.3163   -0.0056 H       1  LIG1        0.1072
      9 H           3.1894    3.7284   -0.0022 H       1  LIG1        0.0667
     10 C           0.5583    5.1781   -0.0003 C.ar    1  LIG1        0.1838
     11 C           1.2361    6.3820    0.0013 C.ar    1  LIG1        0.0544
     12 C           0.2467    7.4059    0.0025 C.ar    1  LIG1        0.0012
     13 C          -0.9738    6.7682    0.0016 C.ar    1  LIG1        0.1729
     14 O          -0.7919    5.4163   -0.0001 O.2     1  LIG1       -0.4475
     15 S           2.9958    6.5781    0.0018 S.3     1  LIG1       -0.1389
     16 H           2.9853    7.9238    0.0037 H       1  LIG1        0.1072
     17 H           0.4216    8.4711    0.0040 H       1  LIG1        0.0668
     18 C          -2.3211    7.2513    0.0021 C.ar    1  LIG1        0.1838
     19 C          -2.8697    8.5205    0.0030 C.ar    1  LIG1        0.0544
     20 C          -4.2834    8.3516    0.0030 C.ar    1  LIG1        0.0012
     21 C          -4.5139    6.9949    0.0022 C.ar    1  LIG1        0.1729
     22 O          -3.3289    6.3210    0.0016 O.2     1  LIG1       -0.4475
     23 S          -1.9627   10.0404    0.0035 S.3     1  LIG1       -0.1389
     24 H          -3.0411   10.8456    0.0059 H       1  LIG1        0.1072
     25 H          -5.0260    9.1351    0.0031 H       1  LIG1        0.0668
     26 C          -5.7162    6.2129    0.0020 C.ar    1  LIG1        0.1828
     27 C          -7.0567    6.5432    0.0059 C.ar    1  LIG1        0.0537
     28 C          -7.7753    5.3046    0.0029 C.ar    1  LIG1       -0.0099
     29 C          -6.8350    4.3208   -0.0025 C.ar    1  LIG1        0.0938
     30 O          -5.5844    4.8478   -0.0031 O.2     1  LIG1       -0.4587
     31 H          -6.8929    3.2438   -0.0061 H       1  LIG1        0.1030
     32 S          -7.7213    8.1839    0.0136 S.3     1  LIG1       -0.1389
     33 H          -9.0145    7.8116    0.0132 H       1  LIG1        0.1072
     34 H          -8.8479    5.1759    0.0047 H       1  LIG1        0.0660
@<TRIPOS>BOND
     1     7     8    1
     2     7     2    1
     3    31    29    1
     4     6     1    1
     5     1     2   ar
     6     1     5   ar
     7     2     3   ar
     8     5     4   ar
     9    30    29   ar
    10    30    26   ar
    11     3     9    1
    12     3     4   ar
    13    29    28   ar
    14     4    10    1
    15    10    14   ar
    16    10    11   ar
    17    14    13   ar
    18    11    15    1
    19    11    12   ar
    20    13    18    1
    21    13    12   ar
    22    22    18   ar
    23    22    21   ar
    24    15    16    1
    25    26    21    1
    26    26    27   ar
    27    18    19   ar
    28    21    20   ar
    29    12    17    1
    30    28    34    1
    31    28    27   ar
    32    19    20   ar
    33    19    23    1
    34    20    25    1
    35    23    24    1
    36    27    32    1
    37    33    32    1
