@<TRIPOS>MOLECULE
mol_data/opt/b3lyp/geoms/mol2/12ga12ga12ga-.out
 26 28 0 0 0
SMALL
GASTEIGER

@<TRIPOS>ATOM
      1 C           0.4029    1.8198   -0.1005 C.ar    1  LIG1        0.1058
      2 C           1.7630    1.9341   -0.0322 C.ar    1  LIG1        0.0433
      3 C           2.0474    3.3370    0.0021 C.ar    1  LIG1        0.0005
      4 C           0.8325    3.9740   -0.0402 C.ar    1  LIG1        0.1719
      5 O          -0.1777    3.0458   -0.1105 O.2     1  LIG1       -0.4587
      6 H          -0.2613    0.9717   -0.1502 H       1  LIG1        0.1041
      7 S           2.9103    0.5787   -0.0978 S.3     1  LIG1       -0.1396
      8 H           3.3721    0.6736    1.1682 H       1  LIG1        0.1072
      9 H           3.0167    3.8068    0.0515 H       1  LIG1        0.0667
     10 C           0.4345    5.3575   -0.0361 C.ar    1  LIG1        0.1838
     11 C           1.1253    6.5552   -0.0061 C.ar    1  LIG1        0.0544
     12 C           0.1445    7.5899   -0.0166 C.ar    1  LIG1        0.0012
     13 C          -1.0779    6.9692   -0.0620 C.ar    1  LIG1        0.1729
     14 O          -0.9051    5.6082   -0.0682 O.2     1  LIG1       -0.4475
     15 S           2.8839    6.7705    0.1231 S.3     1  LIG1       -0.1389
     16 H           3.1145    7.1484   -1.1539 H       1  LIG1        0.1072
     17 H           0.3249    8.6529    0.0042 H       1  LIG1        0.0668
     18 C          -2.4363    7.4444   -0.0943 C.ar    1  LIG1        0.1828
     19 C          -3.0139    8.6994   -0.0723 C.ar    1  LIG1        0.0537
     20 C          -4.4310    8.4903   -0.1349 C.ar    1  LIG1       -0.0099
     21 C          -4.6163    7.1453   -0.1796 C.ar    1  LIG1        0.0938
     22 O          -3.4158    6.4960   -0.1590 O.2     1  LIG1       -0.4587
     23 H          -5.4879    6.5123   -0.2297 H       1  LIG1        0.1030
     24 S          -2.1763   10.2653   -0.0722 S.3     1  LIG1       -0.1389
     25 H          -2.2895   10.5391    1.2472 H       1  LIG1        0.1072
     26 H          -5.1910    9.2572   -0.1471 H       1  LIG1        0.0660
@<TRIPOS>BOND
     1    16    15    1
     2    23    21    1
     3    21    22   ar
     4    21    20   ar
     5    22    18   ar
     6     6     1    1
     7    26    20    1
     8    20    19   ar
     9     5     1   ar
    10     5     4   ar
    11     1     2   ar
    12     7     2    1
    13     7     8    1
    14    18    19   ar
    15    18    13    1
    16    19    24    1
    17    24    25    1
    18    14    13   ar
    19    14    10   ar
    20    13    12   ar
    21     4    10    1
    22     4     3   ar
    23    10    11   ar
    24     2     3   ar
    25    12    11   ar
    26    12    17    1
    27    11    15    1
    28     3     9    1
