@<TRIPOS>MOLECULE
mol_data/opt/b3lyp/geoms/mol2/12ga12ga12ga12ga-.out
 34 37 0 0 0
SMALL
GASTEIGER

@<TRIPOS>ATOM
      1 C           0.5865    1.8002   -0.0074 C.ar    1  LIG1        0.1058
      2 C           1.9440    1.9454    0.0565 C.ar    1  LIG1        0.0433
      3 C           2.1980    3.3544    0.0566 C.ar    1  LIG1        0.0005
      4 C           0.9693    3.9638    0.0001 C.ar    1  LIG1        0.1719
      5 O          -0.0204    3.0126   -0.0469 O.2     1  LIG1       -0.4587
      6 H          -0.0592    0.9370   -0.0355 H       1  LIG1        0.1041
      7 S           3.1195    0.6134    0.0237 S.3     1  LIG1       -0.1396
      8 H           3.5930    0.7622    1.2801 H       1  LIG1        0.1072
      9 H           3.1572    3.8456    0.0931 H       1  LIG1        0.0667
     10 C           0.5407    5.3374   -0.0277 C.ar    1  LIG1        0.1838
     11 C           1.2052    6.5510   -0.0291 C.ar    1  LIG1        0.0544
     12 C           0.2030    7.5629   -0.0612 C.ar    1  LIG1        0.0012
     13 C          -1.0072    6.9139   -0.0865 C.ar    1  LIG1        0.1729
     14 O          -0.8041    5.5574   -0.0596 O.2     1  LIG1       -0.4475
     15 S           2.9595    6.8041    0.0881 S.3     1  LIG1       -0.1389
     16 H           3.1674    7.2117   -1.1834 H       1  LIG1        0.1072
     17 H           0.3596    8.6299   -0.0661 H       1  LIG1        0.0668
     18 C          -2.3724    7.3589   -0.1217 C.ar    1  LIG1        0.1838
     19 C          -2.9764    8.6045   -0.1233 C.ar    1  LIG1        0.0544
     20 C          -4.3815    8.3738   -0.1746 C.ar    1  LIG1        0.0012
     21 C          -4.5543    7.0123   -0.1878 C.ar    1  LIG1        0.1729
     22 O          -3.3318    6.3909   -0.1623 O.2     1  LIG1       -0.4475
     23 S          -2.1631   10.1833   -0.1609 S.3     1  LIG1       -0.1389
     24 H          -2.3965   10.5372    1.1225 H       1  LIG1        0.1072
     25 H          -5.1590    9.1205   -0.2049 H       1  LIG1        0.0668
     26 C          -5.7093    6.1542   -0.2194 C.ar    1  LIG1        0.1828
     27 C          -7.0725    6.3790   -0.2002 C.ar    1  LIG1        0.0537
     28 C          -7.6933    5.0881   -0.2617 C.ar    1  LIG1       -0.0099
     29 C          -6.6826    4.1812   -0.3026 C.ar    1  LIG1        0.0938
     30 O          -5.4726    4.8111   -0.2836 O.2     1  LIG1       -0.4587
     31 H          -6.6471    3.1044   -0.3498 H       1  LIG1        0.1030
     32 S          -7.8940    7.9526   -0.2057 S.3     1  LIG1       -0.1389
     33 H          -8.3225    7.9412    1.0765 H       1  LIG1        0.1072
     34 H          -8.7542    4.8872   -0.2761 H       1  LIG1        0.0660
@<TRIPOS>BOND
     1    16    15    1
     2    31    29    1
     3    29    30   ar
     4    29    28   ar
     5    30    26   ar
     6    34    28    1
     7    28    27   ar
     8    26    27   ar
     9    26    21    1
    10    32    27    1
    11    32    33    1
    12    25    20    1
    13    21    20   ar
    14    21    22   ar
    15    20    19   ar
    16    22    18   ar
    17    23    19    1
    18    23    24    1
    19    19    18   ar
    20    18    13    1
    21    13    12   ar
    22    13    14   ar
    23    17    12    1
    24    12    11   ar
    25    14    10   ar
    26     5     1   ar
    27     5     4   ar
    28     6     1    1
    29    11    10   ar
    30    11    15    1
    31    10     4    1
    32     1     2   ar
    33     4     3   ar
    34     7     2    1
    35     7     8    1
    36     2     3   ar
    37     3     9    1
