@<TRIPOS>MOLECULE
mol_data/opt/b3lyp/geoms/mol2/12ga12ga-12ga-12ga.out
 34 37 0 0 0
SMALL
GASTEIGER

@<TRIPOS>ATOM
      1 C           0.5949    1.8014   -0.0989 C.ar    1  LIG1        0.1058
      2 C           1.9520    1.9502   -0.1622 C.ar    1  LIG1        0.0433
      3 C           2.2011    3.3599   -0.1857 C.ar    1  LIG1        0.0005
      4 C           0.9712    3.9661   -0.1217 C.ar    1  LIG1        0.1719
      5 O          -0.0161    3.0121   -0.0776 O.2     1  LIG1       -0.4587
      6 H          -0.0484    0.9364   -0.0708 H       1  LIG1        0.1041
      7 S           3.1230    0.6220   -0.3114 S.3     1  LIG1       -0.1396
      8 H           3.6987    0.7536    0.9037 H       1  LIG1        0.1072
      9 H           3.1583    3.8527   -0.2477 H       1  LIG1        0.0667
     10 C           0.5389    5.3383   -0.0886 C.ar    1  LIG1        0.1838
     11 C           1.2004    6.5530   -0.0547 C.ar    1  LIG1        0.0544
     12 C           0.1954    7.5625   -0.0346 C.ar    1  LIG1        0.0012
     13 C          -1.0135    6.9108   -0.0481 C.ar    1  LIG1        0.1729
     14 O          -0.8071    5.5554   -0.0887 O.2     1  LIG1       -0.4475
     15 S           2.9566    6.8075   -0.1213 S.3     1  LIG1       -0.1389
     16 H           3.1132    7.2837    1.1334 H       1  LIG1        0.1072
     17 H           0.3489    8.6298   -0.0128 H       1  LIG1        0.0668
     18 C          -2.3800    7.3531   -0.0405 C.ar    1  LIG1        0.1838
     19 C          -2.9864    8.5976   -0.0299 C.ar    1  LIG1        0.0544
     20 C          -4.3918    8.3639   -0.0257 C.ar    1  LIG1        0.0012
     21 C          -4.5621    7.0021   -0.0437 C.ar    1  LIG1        0.1729
     22 O          -3.3383    6.3831   -0.0462 O.2     1  LIG1       -0.4475
     23 S          -2.1769   10.1760    0.0601 S.3     1  LIG1       -0.1389
     24 H          -2.4011   10.5661   -1.2142 H       1  LIG1        0.1072
     25 H          -5.1719    9.1084   -0.0129 H       1  LIG1        0.0668
     26 C          -5.7162    6.1424   -0.0521 C.ar    1  LIG1        0.1828
     27 C          -7.0796    6.3663   -0.0288 C.ar    1  LIG1        0.0537
     28 C          -7.6993    5.0739   -0.0625 C.ar    1  LIG1       -0.0099
     29 C          -6.6880    4.1672   -0.0929 C.ar    1  LIG1        0.0938
     30 O          -5.4785    4.7988   -0.0915 O.2     1  LIG1       -0.4587
     31 H          -6.6513    3.0898   -0.1210 H       1  LIG1        0.1030
     32 S          -7.9062    7.9375   -0.0594 S.3     1  LIG1       -0.1389
     33 H          -8.2561    7.9893    1.2456 H       1  LIG1        0.1072
     34 H          -8.7601    4.8723   -0.0663 H       1  LIG1        0.0660
@<TRIPOS>BOND
     1    24    23    1
     2     7     2    1
     3     7     8    1
     4     9     3    1
     5     3     2   ar
     6     3     4   ar
     7     2     1   ar
     8     4    10    1
     9     4     5   ar
    10    15    11    1
    11    15    16    1
    12    31    29    1
    13     1     5   ar
    14     1     6    1
    15    29    30   ar
    16    29    28   ar
    17    30    26   ar
    18    14    10   ar
    19    14    13   ar
    20    10    11   ar
    21    34    28    1
    22    28    27   ar
    23    32    27    1
    24    32    33    1
    25    11    12   ar
    26    26    21    1
    27    26    27   ar
    28    13    18    1
    29    13    12   ar
    30    22    21   ar
    31    22    18   ar
    32    21    20   ar
    33    18    19   ar
    34    12    17    1
    35    19    20   ar
    36    19    23    1
    37    20    25    1
