@<TRIPOS>MOLECULE
mol_data/opt/b3lyp/geoms/mol2/12ga12ga12ga-12ga-.out
 34 37 0 0 0
SMALL
GASTEIGER

@<TRIPOS>ATOM
      1 C           0.5857    1.7975    0.0918 C.ar    1  LIG1        0.1058
      2 C           1.9421    1.9353   -0.0032 C.ar    1  LIG1        0.0433
      3 C           2.1951    3.3381   -0.1375 C.ar    1  LIG1        0.0005
      4 C           0.9682    3.9526   -0.1011 C.ar    1  LIG1        0.1719
      5 O          -0.0212    3.0090    0.0303 O.2     1  LIG1       -0.4587
      6 H          -0.0598    0.9398    0.1951 H       1  LIG1        0.1041
      7 S           3.1066    0.5947   -0.0690 S.3     1  LIG1       -0.1396
      8 H           3.7019    0.8162    1.1235 H       1  LIG1        0.1072
      9 H           3.1527    3.8207   -0.2519 H       1  LIG1        0.0667
     10 C           0.5409    5.3253   -0.1647 C.ar    1  LIG1        0.1838
     11 C           1.2067    6.5363   -0.2287 C.ar    1  LIG1        0.0544
     12 C           0.2053    7.5487   -0.2768 C.ar    1  LIG1        0.0012
     13 C          -1.0058    6.9030   -0.2249 C.ar    1  LIG1        0.1729
     14 O          -0.8044    5.5475   -0.1659 O.2     1  LIG1       -0.4475
     15 S           2.9627    6.7778   -0.3374 S.3     1  LIG1       -0.1389
     16 H           3.1392    7.3389    0.8791 H       1  LIG1        0.1072
     17 H           0.3637    8.6131   -0.3472 H       1  LIG1        0.0668
     18 C          -2.3705    7.3508   -0.2185 C.ar    1  LIG1        0.1838
     19 C          -2.9716    8.5973   -0.1937 C.ar    1  LIG1        0.0544
     20 C          -4.3782    8.3699   -0.2108 C.ar    1  LIG1        0.0012
     21 C          -4.5539    7.0089   -0.2308 C.ar    1  LIG1        0.1729
     22 O          -3.3332    6.3848   -0.2444 O.2     1  LIG1       -0.4475
     23 S          -2.1516   10.1717   -0.2357 S.3     1  LIG1       -0.1389
     24 H          -2.4764   10.5729    1.0131 H       1  LIG1        0.1072
     25 H          -5.1553    9.1177   -0.2153 H       1  LIG1        0.0668
     26 C          -5.7117    6.1540   -0.2399 C.ar    1  LIG1        0.1828
     27 C          -7.0732    6.3817   -0.1810 C.ar    1  LIG1        0.0537
     28 C          -7.6990    5.0932   -0.2413 C.ar    1  LIG1       -0.0099
     29 C          -6.6922    4.1845   -0.3208 C.ar    1  LIG1        0.0938
     30 O          -5.4806    4.8112   -0.3269 O.2     1  LIG1       -0.4587
     31 H          -6.6609    3.1082   -0.3822 H       1  LIG1        0.1030
     32 S          -7.8905    7.9573   -0.1448 S.3     1  LIG1       -0.1389
     33 H          -8.2860    7.9301    1.1477 H       1  LIG1        0.1072
     34 H          -8.7605    4.8951   -0.2296 H       1  LIG1        0.0660
@<TRIPOS>BOND
     1    31    29    1
     2    17    12    1
     3    15    11    1
     4    15    16    1
     5    30    29   ar
     6    30    26   ar
     7    29    28   ar
     8    12    11   ar
     9    12    13   ar
    10     9     3    1
    11    22    21   ar
    12    22    18   ar
    13    28    34    1
    14    28    27   ar
    15    26    21    1
    16    26    27   ar
    17    23    19    1
    18    23    24    1
    19    21    20   ar
    20    11    10   ar
    21    13    18    1
    22    13    14   ar
    23    18    19   ar
    24    25    20    1
    25    20    19   ar
    26    27    32    1
    27    14    10   ar
    28    10     4    1
    29    32    33    1
    30     3     4   ar
    31     3     2   ar
    32     4     5   ar
    33     7     2    1
    34     7     8    1
    35     2     1   ar
    36     5     1   ar
    37     1     6    1
