@<TRIPOS>MOLECULE
mol_data/opt/b3lyp/geoms/mol2/12ga12ga-12ga-.out
 26 28 0 0 0
SMALL
GASTEIGER

@<TRIPOS>ATOM
      1 C           0.3384    1.6739   -0.0102 C.ar    1  LIG1        0.1058
      2 C           1.6994    1.7888   -0.0062 C.ar    1  LIG1        0.0433
      3 C           1.9846    3.1913   -0.0008 C.ar    1  LIG1        0.0005
      4 C           0.7669    3.8305   -0.0020 C.ar    1  LIG1        0.1719
      5 O          -0.2413    2.9106   -0.0078 O.2     1  LIG1       -0.4587
      6 H          -0.3363    0.8335   -0.0147 H       1  LIG1        0.1041
      7 S           2.8499    0.4358   -0.0078 S.3     1  LIG1       -0.1396
      8 H           3.9600    1.1969    0.0010 H       1  LIG1        0.1072
      9 H           2.9600    3.6535    0.0033 H       1  LIG1        0.0667
     10 C           0.3957    5.2164    0.0016 C.ar    1  LIG1        0.1838
     11 C           1.1255    6.3888    0.0071 C.ar    1  LIG1        0.0544
     12 C           0.1808    7.4556    0.0084 C.ar    1  LIG1        0.0012
     13 C          -1.0647    6.8724    0.0036 C.ar    1  LIG1        0.1729
     14 O          -0.9430    5.5140   -0.0006 O.2     1  LIG1       -0.4475
     15 S           2.8920    6.5086    0.0112 S.3     1  LIG1       -0.1389
     16 H           2.9399    7.8536    0.0182 H       1  LIG1        0.1072
     17 H           0.4018    8.5122    0.0124 H       1  LIG1        0.0668
     18 C          -2.3930    7.4147    0.0023 C.ar    1  LIG1        0.1828
     19 C          -2.8848    8.7045    0.0043 C.ar    1  LIG1        0.0537
     20 C          -4.3124    8.5898    0.0013 C.ar    1  LIG1       -0.0099
     21 C          -4.5858    7.2569   -0.0024 C.ar    1  LIG1        0.0938
     22 O          -3.4401    6.5287   -0.0018 O.2     1  LIG1       -0.4587
     23 H          -5.5041    6.6913   -0.0055 H       1  LIG1        0.1030
     24 S          -1.9141   10.1848    0.0096 S.3     1  LIG1       -0.1389
     25 H          -2.9564   11.0362    0.0090 H       1  LIG1        0.1072
     26 H          -5.0288    9.3985    0.0017 H       1  LIG1        0.0660
@<TRIPOS>BOND
     1     6     1    1
     2     1     5   ar
     3     1     2   ar
     4     5     4   ar
     5     7     2    1
     6     7     8    1
     7     2     3   ar
     8    23    21    1
     9    21    22   ar
    10    21    20   ar
    11     4     3   ar
    12     4    10    1
    13    22    18   ar
    14     3     9    1
    15    14    10   ar
    16    14    13   ar
    17    20    26    1
    18    20    19   ar
    19    10    11   ar
    20    18    13    1
    21    18    19   ar
    22    13    12   ar
    23    19    24    1
    24    11    12   ar
    25    11    15    1
    26    12    17    1
    27    25    24    1
    28    15    16    1
