@<TRIPOS>MOLECULE
mol_data/opt/b3lyp/geoms/mol2/12ga12ga-12ga12ga-.out
 34 37 0 0 0
SMALL
GASTEIGER

@<TRIPOS>ATOM
      1 C           0.6563    1.6370   -0.0001 C.ar    1  LIG1        0.1058
      2 C           2.0111    1.8114   -0.0000 C.ar    1  LIG1        0.0433
      3 C           2.2350    3.2245   -0.0000 C.ar    1  LIG1        0.0005
      4 C           0.9901    3.8101   -0.0001 C.ar    1  LIG1        0.1719
      5 O           0.0232    2.8470   -0.0001 O.2     1  LIG1       -0.4587
      6 H           0.0190    0.7678   -0.0001 H       1  LIG1        0.1041
      7 S           3.2192    0.5090    0.0000 S.3     1  LIG1       -0.1396
      8 H           4.2958    1.3169    0.0001 H       1  LIG1        0.1072
      9 H           3.1893    3.7289    0.0000 H       1  LIG1        0.0667
     10 C           0.5582    5.1777   -0.0001 C.ar    1  LIG1        0.1838
     11 C           1.2360    6.3817   -0.0000 C.ar    1  LIG1        0.0544
     12 C           0.2467    7.4055   -0.0001 C.ar    1  LIG1        0.0012
     13 C          -0.9739    6.7679   -0.0001 C.ar    1  LIG1        0.1729
     14 O          -0.7920    5.4159   -0.0001 O.2     1  LIG1       -0.4475
     15 S           2.9953    6.5782    0.0000 S.3     1  LIG1       -0.1389
     16 H           2.9846    7.9240    0.0000 H       1  LIG1        0.1072
     17 H           0.4212    8.4707   -0.0001 H       1  LIG1        0.0668
     18 C          -2.3211    7.2510   -0.0002 C.ar    1  LIG1        0.1838
     19 C          -2.8695    8.5202   -0.0002 C.ar    1  LIG1        0.0544
     20 C          -4.2832    8.3515   -0.0002 C.ar    1  LIG1        0.0012
     21 C          -4.5140    6.9948   -0.0002 C.ar    1  LIG1        0.1729
     22 O          -3.3290    6.3207   -0.0002 O.2     1  LIG1       -0.4475
     23 S          -1.9631   10.0398   -0.0001 S.3     1  LIG1       -0.1389
     24 H          -3.0414   10.8450   -0.0002 H       1  LIG1        0.1072
     25 H          -5.0259    9.1349   -0.0003 H       1  LIG1        0.0668
     26 C          -5.7162    6.2131   -0.0003 C.ar    1  LIG1        0.1828
     27 C          -7.0567    6.5439   -0.0003 C.ar    1  LIG1        0.0537
     28 C          -7.7756    5.3055   -0.0004 C.ar    1  LIG1       -0.0099
     29 C          -6.8355    4.3214   -0.0004 C.ar    1  LIG1        0.0938
     30 O          -5.5847    4.8479   -0.0003 O.2     1  LIG1       -0.4587
     31 H          -6.8937    3.2443   -0.0004 H       1  LIG1        0.1030
     32 S          -7.7210    8.1840   -0.0003 S.3     1  LIG1       -0.1389
     33 H          -9.0143    7.8120   -0.0004 H       1  LIG1        0.1072
     34 H          -8.8481    5.1766   -0.0004 H       1  LIG1        0.0660
@<TRIPOS>BOND
     1    34    28    1
     2    31    29    1
     3    33    32    1
     4    29    28   ar
     5    29    30   ar
     6    28    27   ar
     7    32    27    1
     8    27    26   ar
     9    30    26   ar
    10    26    21    1
    11    25    20    1
    12    21    20   ar
    13    21    22   ar
    14    20    19   ar
    15    22    18   ar
    16    19    18   ar
    17    19    23    1
    18    18    13    1
    19    24    23    1
    20    13    14   ar
    21    13    12   ar
    22    14    10   ar
    23     6     1    1
    24     5     1   ar
    25     5     4   ar
    26     1     2   ar
    27    12    17    1
    28    12    11   ar
    29    10     4    1
    30    10    11   ar
    31     4     3   ar
    32    11    15    1
    33     2     3   ar
    34     2     7    1
    35     3     9    1
    36     7     8    1
    37    15    16    1
