@<TRIPOS>MOLECULE
mol_data/opt/b3lyp/geoms/mol2/12ga12ga-12ga.out
 26 28 0 0 0
SMALL
GASTEIGER

@<TRIPOS>ATOM
      1 C           0.3388    1.6735   -0.0001 C.ar    1  LIG1        0.1058
      2 C           1.6998    1.7888   -0.0000 C.ar    1  LIG1        0.0433
      3 C           1.9846    3.1912   -0.0000 C.ar    1  LIG1        0.0005
      4 C           0.7666    3.8301   -0.0001 C.ar    1  LIG1        0.1719
      5 O          -0.2413    2.9100   -0.0001 O.2     1  LIG1       -0.4587
      6 H          -0.3357    0.8329   -0.0001 H       1  LIG1        0.1041
      7 S           2.8510    0.4357    0.0000 S.3     1  LIG1       -0.1396
      8 H           3.9609    1.1973    0.0001 H       1  LIG1        0.1072
      9 H           2.9596    3.6540    0.0000 H       1  LIG1        0.0667
     10 C           0.3954    5.2161   -0.0001 C.ar    1  LIG1        0.1838
     11 C           1.1252    6.3885   -0.0000 C.ar    1  LIG1        0.0544
     12 C           0.1805    7.4552   -0.0001 C.ar    1  LIG1        0.0012
     13 C          -1.0650    6.8721   -0.0001 C.ar    1  LIG1        0.1729
     14 O          -0.9433    5.5138   -0.0001 O.2     1  LIG1       -0.4475
     15 S           2.8917    6.5086    0.0000 S.3     1  LIG1       -0.1389
     16 H           2.9394    7.8536    0.0000 H       1  LIG1        0.1072
     17 H           0.4013    8.5118   -0.0001 H       1  LIG1        0.0668
     18 C          -2.3932    7.4147   -0.0002 C.ar    1  LIG1        0.1828
     19 C          -2.8846    8.7047   -0.0002 C.ar    1  LIG1        0.0537
     20 C          -4.3122    8.5904   -0.0003 C.ar    1  LIG1       -0.0099
     21 C          -4.5861    7.2576   -0.0003 C.ar    1  LIG1        0.0938
     22 O          -3.4406    6.5291   -0.0002 O.2     1  LIG1       -0.4587
     23 H          -5.5047    6.6922   -0.0004 H       1  LIG1        0.1030
     24 S          -1.9137   10.1848   -0.0002 S.3     1  LIG1       -0.1389
     25 H          -2.9557   11.0365   -0.0002 H       1  LIG1        0.1072
     26 H          -5.0287    9.3989   -0.0003 H       1  LIG1        0.0660
@<TRIPOS>BOND
     1    23    21    1
     2    21    20   ar
     3    21    22   ar
     4    26    20    1
     5    20    19   ar
     6    22    18   ar
     7    19    18   ar
     8    19    24    1
     9    25    24    1
    10    18    13    1
    11    13    14   ar
    12    13    12   ar
    13    14    10   ar
    14     6     1    1
    15     5     1   ar
    16     5     4   ar
    17    12    17    1
    18    12    11   ar
    19     1     2   ar
    20    10     4    1
    21    10    11   ar
    22     4     3   ar
    23    11    15    1
    24     2     3   ar
    25     2     7    1
    26     3     9    1
    27    15    16    1
    28     7     8    1
