@<TRIPOS>MOLECULE
mol_data/opt/b3lyp/geoms/mol2/12ga12ga-12ga-12ga-.out
 34 37 0 0 0
SMALL
GASTEIGER

@<TRIPOS>ATOM
      1 C           0.5879    1.7972   -0.0990 C.ar    1  LIG1        0.1058
      2 C           1.9454    1.9444   -0.1565 C.ar    1  LIG1        0.0433
      3 C           2.1964    3.3539   -0.1735 C.ar    1  LIG1        0.0005
      4 C           0.9670    3.9615   -0.1116 C.ar    1  LIG1        0.1719
      5 O          -0.0216    3.0086   -0.0752 O.2     1  LIG1       -0.4587
      6 H          -0.0566    0.9329   -0.0769 H       1  LIG1        0.1041
      7 S           3.1152    0.6154   -0.3068 S.3     1  LIG1       -0.1396
      8 H           3.6880    0.7428    0.9101 H       1  LIG1        0.1072
      9 H           3.1545    3.8456   -0.2299 H       1  LIG1        0.0667
     10 C           0.5364    5.3341   -0.0744 C.ar    1  LIG1        0.1838
     11 C           1.1996    6.5475   -0.0294 C.ar    1  LIG1        0.0544
     12 C           0.1960    7.5585   -0.0117 C.ar    1  LIG1        0.0012
     13 C          -1.0137    6.9087   -0.0367 C.ar    1  LIG1        0.1729
     14 O          -0.8093    5.5533   -0.0833 O.2     1  LIG1       -0.4475
     15 S           2.9566    6.7988   -0.0825 S.3     1  LIG1       -0.1389
     16 H           3.1019    7.2873    1.1687 H       1  LIG1        0.1072
     17 H           0.3506    8.6254    0.0174 H       1  LIG1        0.0668
     18 C          -2.3794    7.3536   -0.0352 C.ar    1  LIG1        0.1838
     19 C          -2.9833    8.5993   -0.0203 C.ar    1  LIG1        0.0544
     20 C          -4.3892    8.3685   -0.0263 C.ar    1  LIG1        0.0012
     21 C          -4.5622    7.0072   -0.0541 C.ar    1  LIG1        0.1729
     22 O          -3.3394    6.3858   -0.0546 O.2     1  LIG1       -0.4475
     23 S          -2.1741   10.1775    0.0846 S.3     1  LIG1       -0.1389
     24 H          -2.3162   10.5410   -1.2097 H       1  LIG1        0.1072
     25 H          -5.1674    9.1150   -0.0137 H       1  LIG1        0.0668
     26 C          -5.7177    6.1497   -0.0744 C.ar    1  LIG1        0.1828
     27 C          -7.0808    6.3759   -0.0565 C.ar    1  LIG1        0.0537
     28 C          -7.7026    5.0849   -0.1021 C.ar    1  LIG1       -0.0099
     29 C          -6.6928    4.1766   -0.1336 C.ar    1  LIG1        0.0938
     30 O          -5.4822    4.8059   -0.1217 O.2     1  LIG1       -0.4587
     31 H          -6.6579    3.0993   -0.1690 H       1  LIG1        0.1030
     32 S          -7.9046    7.9486   -0.0807 S.3     1  LIG1       -0.1389
     33 H          -8.2575    7.9943    1.2237 H       1  LIG1        0.1072
     34 H          -8.7638    4.8853   -0.1128 H       1  LIG1        0.0660
@<TRIPOS>BOND
     1    24    23    1
     2     7     2    1
     3     7     8    1
     4     9     3    1
     5     3     2   ar
     6     3     4   ar
     7    31    29    1
     8     2     1   ar
     9    29    30   ar
    10    29    28   ar
    11    30    26   ar
    12    34    28    1
    13     4     5   ar
    14     4    10    1
    15    28    27   ar
    16     1     6    1
    17     1     5   ar
    18    14    10   ar
    19    14    13   ar
    20    15    11    1
    21    15    16    1
    22    32    27    1
    23    32    33    1
    24    26    27   ar
    25    26    21    1
    26    10    11   ar
    27    22    21   ar
    28    22    18   ar
    29    21    20   ar
    30    13    18    1
    31    13    12   ar
    32    18    19   ar
    33    11    12   ar
    34    20    19   ar
    35    20    25    1
    36    19    23    1
    37    12    17    1
