@<TRIPOS>MOLECULE
mol_data/opt/b3lyp/geoms/mol2/12ga12ga12ga-12ga.out
 34 37 0 0 0
SMALL
GASTEIGER

@<TRIPOS>ATOM
      1 C           0.5908    1.8017    0.1120 C.ar    1  LIG1        0.1058
      2 C           1.9463    1.9399    0.0056 C.ar    1  LIG1        0.0433
      3 C           2.1969    3.3416   -0.1442 C.ar    1  LIG1        0.0005
      4 C           0.9697    3.9553   -0.1045 C.ar    1  LIG1        0.1719
      5 O          -0.0178    3.0120    0.0434 O.2     1  LIG1       -0.4587
      6 H          -0.0530    0.9445    0.2285 H       1  LIG1        0.1041
      7 S           3.1117    0.5999   -0.0559 S.3     1  LIG1       -0.1396
      8 H           3.7158    0.8337    1.1297 H       1  LIG1        0.1072
      9 H           3.1530    3.8240   -0.2703 H       1  LIG1        0.0667
     10 C           0.5403    5.3269   -0.1783 C.ar    1  LIG1        0.1838
     11 C           1.2044    6.5379   -0.2588 C.ar    1  LIG1        0.0544
     12 C           0.2015    7.5487   -0.3095 C.ar    1  LIG1        0.0012
     13 C          -1.0084    6.9023   -0.2428 C.ar    1  LIG1        0.1729
     14 O          -0.8051    5.5476   -0.1721 O.2     1  LIG1       -0.4475
     15 S           2.9592    6.7800   -0.3823 S.3     1  LIG1       -0.1389
     16 H           3.1438    7.3532    0.8272 H       1  LIG1        0.1072
     17 H           0.3582    8.6125   -0.3915 H       1  LIG1        0.0668
     18 C          -2.3736    7.3487   -0.2310 C.ar    1  LIG1        0.1838
     19 C          -2.9759    8.5947   -0.2140 C.ar    1  LIG1        0.0544
     20 C          -4.3823    8.3658   -0.2189 C.ar    1  LIG1        0.0012
     21 C          -4.5566    7.0044   -0.2246 C.ar    1  LIG1        0.1729
     22 O          -3.3353    6.3814   -0.2408 O.2     1  LIG1       -0.4475
     23 S          -2.1580   10.1696   -0.2767 S.3     1  LIG1       -0.1389
     24 H          -2.4741   10.5821    0.9705 H       1  LIG1        0.1072
     25 H          -5.1602    9.1126   -0.2252 H       1  LIG1        0.0668
     26 C          -5.7135    6.1483   -0.2175 C.ar    1  LIG1        0.1828
     27 C          -7.0749    6.3751   -0.1511 C.ar    1  LIG1        0.0537
     28 C          -7.6997    5.0855   -0.1949 C.ar    1  LIG1       -0.0099
     29 C          -6.6924    4.1771   -0.2727 C.ar    1  LIG1        0.0938
     30 O          -5.4815    4.8049   -0.2934 O.2     1  LIG1       -0.4587
     31 H          -6.6604    3.1003   -0.3243 H       1  LIG1        0.1030
     32 S          -7.8936    7.9502   -0.1242 S.3     1  LIG1       -0.1389
     33 H          -8.2803    7.9347    1.1712 H       1  LIG1        0.1072
     34 H          -8.7608    4.8863   -0.1738 H       1  LIG1        0.0660
@<TRIPOS>BOND
     1    17    12    1
     2    15    11    1
     3    15    16    1
     4    31    29    1
     5    12    11   ar
     6    12    13   ar
     7    30    29   ar
     8    30    26   ar
     9    23    19    1
    10    23    24    1
    11    29    28   ar
    12     9     3    1
    13    11    10   ar
    14    13    18    1
    15    13    14   ar
    16    22    18   ar
    17    22    21   ar
    18    18    19   ar
    19    25    20    1
    20    21    20   ar
    21    21    26    1
    22    20    19   ar
    23    26    27   ar
    24    28    34    1
    25    28    27   ar
    26    10    14   ar
    27    10     4    1
    28    27    32    1
    29     3     4   ar
    30     3     2   ar
    31    32    33    1
    32     4     5   ar
    33     7     2    1
    34     7     8    1
    35     2     1   ar
    36     5     1   ar
    37     1     6    1
