@<TRIPOS>MOLECULE
mol_data/opt/b3lyp/geoms/mol2/12gd12gd-12gd.out
 29 31 0 0 0
SMALL
GASTEIGER

@<TRIPOS>ATOM
      1 C           0.1335    1.8279   -0.0001 C.ar    1  LIG1        0.1071
      2 C           1.4912    1.7466   -0.0000 C.ar    1  LIG1        0.0607
      3 C           1.9673    3.1147   -0.0000 C.ar    1  LIG1        0.1136
      4 C           0.8365    3.9241   -0.0001 C.ar    1  LIG1        0.1892
      5 O          -0.2673    3.1345   -0.0001 O.2     1  LIG1       -0.4573
      6 H          -0.6536    1.0919   -0.0001 H       1  LIG1        0.1041
      7 S           2.4584    0.2672    0.0000 S.3     1  LIG1       -0.1383
      8 H           3.6525    0.8936    0.0001 H       1  LIG1        0.1072
      9 N           4.4999    3.5835    0.0001 N.1     1  LIG1       -0.1907
     10 C           3.3429    3.4435    0.0000 C.1     1  LIG1        0.1042
     11 C           0.5688    5.3364   -0.0001 C.ar    1  LIG1        0.1864
     12 C           1.3095    6.5012   -0.0001 C.ar    1  LIG1        0.0719
     13 C           0.3472    7.5788   -0.0001 C.ar    1  LIG1        0.1144
     14 C          -0.9138    6.9959   -0.0001 C.ar    1  LIG1        0.1902
     15 O          -0.7736    5.6524   -0.0001 O.2     1  LIG1       -0.4461
     16 S           3.0581    6.6921   -0.0000 S.3     1  LIG1       -0.1376
     17 H           3.0164    8.0410   -0.0000 H       1  LIG1        0.1073
     18 N           1.1530   10.0261   -0.0001 N.1     1  LIG1       -0.1907
     19 C           0.7247    8.9424   -0.0001 C.1     1  LIG1        0.1042
     20 C          -2.2729    7.4625   -0.0002 C.ar    1  LIG1        0.1854
     21 C          -2.9198    8.6852   -0.0002 C.ar    1  LIG1        0.0712
     22 C          -4.3314    8.3704   -0.0002 C.ar    1  LIG1        0.1033
     23 C          -4.4301    7.0046   -0.0003 C.ar    1  LIG1        0.1112
     24 O          -3.2136    6.4471   -0.0002 O.2     1  LIG1       -0.4573
     25 H          -5.2771    6.3363   -0.0003 H       1  LIG1        0.1043
     26 S          -2.2410   10.3070   -0.0002 S.3     1  LIG1       -0.1376
     27 H          -3.4433   10.9195   -0.0002 H       1  LIG1        0.1073
     28 N          -6.2397   10.1093   -0.0003 N.1     1  LIG1       -0.1907
     29 C          -5.3972    9.3064   -0.0003 C.1     1  LIG1        0.1034
@<TRIPOS>BOND
     1    28    29    3
     2    25    23    1
     3    29    22    1
     4    23    22   ar
     5    23    24   ar
     6    22    21   ar
     7    24    20   ar
     8    21    20   ar
     9    21    26    1
    10    20    14    1
    11    27    26    1
    12    14    15   ar
    13    14    13   ar
    14    15    11   ar
    15    19    18    3
    16    19    13    1
    17    13    12   ar
    18     5     1   ar
    19     5     4   ar
    20     6     1    1
    21    11    12   ar
    22    11     4    1
    23     1     2   ar
    24    12    16    1
    25     4     3   ar
    26     2     3   ar
    27     2     7    1
    28     3    10    1
    29    17    16    1
    30     7     8    1
    31    10     9    3
