@<TRIPOS>MOLECULE
mol_data/opt/b3lyp/geoms/mol2/12gd12gd12gd12gd-.out
 38 41 0 0 0
SMALL
GASTEIGER

@<TRIPOS>ATOM
      1 C           0.5429    1.7328    0.1876 C.ar    1  LIG1        0.1071
      2 C           1.8613    1.8184   -0.1381 C.ar    1  LIG1        0.0607
      3 C           2.1550    3.2339   -0.2108 C.ar    1  LIG1        0.1136
      4 C           0.9763    3.8917    0.0963 C.ar    1  LIG1        0.1892
      5 O           0.0010    2.9748    0.3448 O.2     1  LIG1       -0.4573
      6 H          -0.1224    0.8985    0.3405 H       1  LIG1        0.1041
      7 S           2.9743    0.4559   -0.3170 S.3     1  LIG1       -0.1383
      8 H           3.5676    0.8857   -1.4503 H       1  LIG1        0.1072
      9 N           4.4012    4.2111   -1.0214 N.1     1  LIG1       -0.1907
     10 C           3.3838    3.7948   -0.6371 C.1     1  LIG1        0.1042
     11 C           0.6004    5.2739    0.2092 C.ar    1  LIG1        0.1864
     12 C           1.2569    6.4264    0.5831 C.ar    1  LIG1        0.0719
     13 C           0.2643    7.4724    0.5367 C.ar    1  LIG1        0.1144
     14 C          -0.9233    6.8812    0.1334 C.ar    1  LIG1        0.1902
     15 O          -0.7201    5.5580   -0.0674 O.2     1  LIG1       -0.4461
     16 S           2.9400    6.6014    1.0695 S.3     1  LIG1       -0.1376
     17 H           2.7366    7.7443    1.7580 H       1  LIG1        0.1073
     18 N           0.7123    9.8704    1.3741 N.1     1  LIG1       -0.1907
     19 C           0.4790    8.8021    0.9728 C.1     1  LIG1        0.1042
     20 C          -2.2499    7.3690   -0.1101 C.ar    1  LIG1        0.1864
     21 C          -2.7814    8.5749   -0.5194 C.ar    1  LIG1        0.0719
     22 C          -4.2025    8.3538   -0.6306 C.ar    1  LIG1        0.1144
     23 C          -4.4337    7.0338   -0.2766 C.ar    1  LIG1        0.1902
     24 O          -3.2596    6.4414    0.0387 O.2     1  LIG1       -0.4461
     25 S          -1.9263   10.0662   -0.8926 S.3     1  LIG1       -0.1376
     26 H          -2.9323   10.5880   -1.6254 H       1  LIG1        0.1073
     27 N          -5.8215   10.1109   -1.6025 N.1     1  LIG1       -0.1907
     28 C          -5.1231    9.2987   -1.1449 C.1     1  LIG1        0.1042
     29 C          -5.6112    6.2197   -0.1684 C.ar    1  LIG1        0.1854
     30 C          -6.9405    6.4637    0.1112 C.ar    1  LIG1        0.0712
     31 C          -7.5742    5.1639    0.1141 C.ar    1  LIG1        0.1033
     32 C          -6.5890    4.2483   -0.1474 C.ar    1  LIG1        0.1112
     33 O          -5.4100    4.8612   -0.3245 O.2     1  LIG1       -0.4573
     34 H          -6.6009    3.1730   -0.2335 H       1  LIG1        0.1043
     35 S          -7.7225    8.0064    0.4316 S.3     1  LIG1       -0.1376
     36 H          -8.8010    7.4597    1.0304 H       1  LIG1        0.1073
     37 N         -10.0706    4.7193    0.6013 N.1     1  LIG1       -0.1907
     38 C          -8.9435    4.8978    0.3737 C.1     1  LIG1        0.1034
@<TRIPOS>BOND
     1    26    25    1
     2    27    28    3
     3     8     7    1
     4    28    22    1
     5     9    10    3
     6    25    21    1
     7    10     3    1
     8    22    21   ar
     9    22    23   ar
    10    21    20   ar
    11    33    29   ar
    12    33    32   ar
    13     7     2    1
    14    23    29    1
    15    23    24   ar
    16    34    32    1
    17     3     2   ar
    18     3     4   ar
    19    29    30   ar
    20    32    31   ar
    21     2     1   ar
    22    20    24   ar
    23    20    14    1
    24    15    14   ar
    25    15    11   ar
    26     4    11    1
    27     4     5   ar
    28    30    31   ar
    29    30    35    1
    30    31    38    1
    31    14    13   ar
    32     1     6    1
    33     1     5   ar
    34    11    12   ar
    35    38    37    3
    36    35    36    1
    37    13    12   ar
    38    13    19    1
    39    12    16    1
    40    19    18    3
    41    16    17    1
