@<TRIPOS>MOLECULE
mol_data/opt/b3lyp/geoms/mol2/12gd.out
 11 11 0 0 0
SMALL
GASTEIGER

@<TRIPOS>ATOM
      1 C           0.1077    1.9142   -0.0001 C.ar    1  LIG1        0.1061
      2 C           1.4694    1.8887    0.0000 C.ar    1  LIG1        0.0600
      3 C           1.8799    3.2791   -0.0000 C.ar    1  LIG1        0.1025
      4 C           0.7261    4.0188   -0.0001 C.ar    1  LIG1        0.1101
      5 O          -0.3475    3.2084   -0.0000 O.2     1  LIG1       -0.4686
      6 H          -0.6478    1.1461   -0.0001 H       1  LIG1        0.1041
      7 H           0.5418    5.0815   -0.0002 H       1  LIG1        0.1043
      8 S           2.5035    0.4541    0.0001 S.3     1  LIG1       -0.1384
      9 H           3.6682    1.1332    0.0002 H       1  LIG1        0.1072
     10 N           4.3237    4.1120    0.0000 N.1     1  LIG1       -0.1907
     11 C           3.2131    3.7628    0.0000 C.1     1  LIG1        0.1034
@<TRIPOS>BOND
     1     7     4    1
     2     4     3   ar
     3     4     5   ar
     4     6     1    1
     5     1     5   ar
     6     1     2   ar
     7     3    11    1
     8     3     2   ar
     9    11    10    3
    10     2     8    1
    11     8     9    1
