@<TRIPOS>MOLECULE
mol_data/opt/b3lyp/geoms/mol2/12gd12gd.out
 20 21 0 0 0
SMALL
GASTEIGER

@<TRIPOS>ATOM
      1 C           0.2452    1.8569    0.4791 C.ar    1  LIG1        0.1071
      2 C           1.5797    1.8333    0.2151 C.ar    1  LIG1        0.0607
      3 C           1.9464    3.2053   -0.0674 C.ar    1  LIG1        0.1136
      4 C           0.7899    3.9523    0.0662 C.ar    1  LIG1        0.1892
      5 O          -0.2401    3.1298    0.4067 O.2     1  LIG1       -0.4573
      6 H          -0.4677    1.0871    0.7269 H       1  LIG1        0.1041
      7 S           2.6308    0.4146    0.3173 S.3     1  LIG1       -0.1383
      8 H           3.2798    0.6144   -0.8489 H       1  LIG1        0.1072
      9 N           4.2733    3.9525   -0.8956 N.1     1  LIG1       -0.1907
     10 C           3.2202    3.6412   -0.5082 C.1     1  LIG1        0.1042
     11 C           0.4783    5.3507   -0.0641 C.ar    1  LIG1        0.1853
     12 C           1.1682    6.5213    0.1630 C.ar    1  LIG1        0.0712
     13 C           0.2312    7.5829   -0.1346 C.ar    1  LIG1        0.1033
     14 C          -0.9416    6.9764   -0.4992 C.ar    1  LIG1        0.1112
     15 O          -0.8102    5.6413   -0.4712 O.2     1  LIG1       -0.4573
     16 H          -1.9031    7.3689   -0.7911 H       1  LIG1        0.1043
     17 S           2.8298    6.7127    0.7150 S.3     1  LIG1       -0.1376
     18 H           2.6425    7.9593    1.1966 H       1  LIG1        0.1073
     19 N           0.7064   10.1120    0.0800 N.1     1  LIG1       -0.1907
     20 C           0.4753    8.9767   -0.0285 C.1     1  LIG1        0.1034
@<TRIPOS>BOND
     1     9    10    3
     2     8     7    1
     3    16    14    1
     4    10     3    1
     5    14    15   ar
     6    14    13   ar
     7    15    11   ar
     8    13    20    1
     9    13    12   ar
    10     3     4   ar
    11     3     2   ar
    12    11     4    1
    13    11    12   ar
    14    20    19    3
    15     4     5   ar
    16    12    17    1
    17     2     7    1
    18     2     1   ar
    19     5     1   ar
    20     1     6    1
    21    17    18    1
