@<TRIPOS>MOLECULE
mol_data/opt/b3lyp/geoms/mol2/12gd12gd-12gd-12gd.out
 38 41 0 0 0
SMALL
GASTEIGER

@<TRIPOS>ATOM
      1 C           0.4683    1.7394   -0.1604 C.ar    1  LIG1        0.1071
      2 C           1.7476    1.7960    0.3000 C.ar    1  LIG1        0.0607
      3 C           2.0601    3.2048    0.4135 C.ar    1  LIG1        0.1136
      4 C           0.9326    3.8884   -0.0083 C.ar    1  LIG1        0.1892
      5 O          -0.0296    2.9932   -0.3630 O.2     1  LIG1       -0.4573
      6 H          -0.1944    0.9200   -0.3872 H       1  LIG1        0.1041
      7 S           2.8089    0.4105    0.5832 S.3     1  LIG1       -0.1383
      8 H           3.3097    0.8360    1.7617 H       1  LIG1        0.1072
      9 N           4.2298    4.1286    1.4605 N.1     1  LIG1       -0.1907
     10 C           3.2491    3.7371    0.9693 C.1     1  LIG1        0.1042
     11 C           0.5970    5.2786   -0.1474 C.ar    1  LIG1        0.1864
     12 C           1.3109    6.4207   -0.4399 C.ar    1  LIG1        0.0719
     13 C           0.3385    7.4855   -0.4878 C.ar    1  LIG1        0.1144
     14 C          -0.8958    6.9152   -0.2163 C.ar    1  LIG1        0.1902
     15 O          -0.7390    5.5868   -0.0072 O.2     1  LIG1       -0.4461
     16 S           3.0383    6.5659   -0.7469 S.3     1  LIG1       -0.1376
     17 H           2.9303    7.7221   -1.4346 H       1  LIG1        0.1073
     18 N           0.9219    9.8785   -1.2532 N.1     1  LIG1       -0.1907
     19 C           0.6243    8.8134   -0.8875 C.1     1  LIG1        0.1042
     20 C          -2.2319    7.4254   -0.1033 C.ar    1  LIG1        0.1864
     21 C          -2.7837    8.6382    0.2544 C.ar    1  LIG1        0.0719
     22 C          -4.2122    8.4474    0.1941 C.ar    1  LIG1        0.1144
     23 C          -4.4268    7.1251   -0.1614 C.ar    1  LIG1        0.1902
     24 O          -3.2360    6.5131   -0.3520 O.2     1  LIG1       -0.4461
     25 S          -1.9499   10.1222    0.6993 S.3     1  LIG1       -0.1376
     26 H          -3.0197   10.6690    1.3133 H       1  LIG1        0.1073
     27 N          -5.9061   10.3550    0.5761 N.1     1  LIG1       -0.1907
     28 C          -5.1697    9.4695    0.4027 C.1     1  LIG1        0.1042
     29 C          -5.5983    6.3173   -0.3564 C.ar    1  LIG1        0.1854
     30 C          -6.8757    6.3095    0.1650 C.ar    1  LIG1        0.0712
     31 C          -7.5294    5.1724   -0.4443 C.ar    1  LIG1        0.1033
     32 C          -6.6041    4.5834   -1.2654 C.ar    1  LIG1        0.1112
     33 O          -5.4456    5.2567   -1.2296 O.2     1  LIG1       -0.4573
     34 H          -6.6481    3.7160   -1.9054 H       1  LIG1        0.1043
     35 S          -7.5823    7.4085    1.3437 S.3     1  LIG1       -0.1376
     36 H          -8.5924    6.5771    1.6743 H       1  LIG1        0.1073
     37 N          -9.9507    4.4107    0.0291 N.1     1  LIG1       -0.1907
     38 C          -8.8590    4.7398   -0.2032 C.1     1  LIG1        0.1034
@<TRIPOS>BOND
     1    34    32    1
     2    17    16    1
     3    32    33   ar
     4    32    31   ar
     5    18    19    3
     6    33    29   ar
     7    19    13    1
     8    16    12    1
     9    13    12   ar
    10    13    14   ar
    11    31    38    1
    12    31    30   ar
    13    12    11   ar
    14     6     1    1
    15     5     1   ar
    16     5     4   ar
    17    29    23    1
    18    29    30   ar
    19    24    23   ar
    20    24    20   ar
    21    14    20    1
    22    14    15   ar
    23    38    37    3
    24    23    22   ar
    25     1     2   ar
    26    11     4    1
    27    11    15   ar
    28    20    21   ar
    29     4     3   ar
    30    30    35    1
    31    22    21   ar
    32    22    28    1
    33    21    25    1
    34     2     3   ar
    35     2     7    1
    36    28    27    3
    37     3    10    1
    38     7     8    1
    39    25    26    1
    40    10     9    3
    41    35    36    1
