@<TRIPOS>MOLECULE
mol_data/opt/b3lyp/geoms/mol2/12gd12gd12gd-.out
 29 31 0 0 0
SMALL
GASTEIGER

@<TRIPOS>ATOM
      1 C           0.3867    1.8816    0.8973 C.ar    1  LIG1        0.1071
      2 C           1.6497    1.8120    0.3952 C.ar    1  LIG1        0.0607
      3 C           1.9716    3.1544   -0.0402 C.ar    1  LIG1        0.1136
      4 C           0.8665    3.9344    0.2538 C.ar    1  LIG1        0.1892
      5 O          -0.0911    3.1572    0.8306 O.2     1  LIG1       -0.4573
      6 H          -0.2759    1.1448    1.3219 H       1  LIG1        0.1041
      7 S           2.6875    0.3801    0.3948 S.3     1  LIG1       -0.1383
      8 H           3.1378    0.5145   -0.8702 H       1  LIG1        0.1072
      9 N           4.1121    3.7828   -1.3366 N.1     1  LIG1       -0.1907
     10 C           3.1457    3.5284   -0.7388 C.1     1  LIG1        0.1042
     11 C           0.5494    5.3269    0.0929 C.ar    1  LIG1        0.1864
     12 C           1.2818    6.4938    0.1006 C.ar    1  LIG1        0.0719
     13 C           0.3237    7.5562   -0.0889 C.ar    1  LIG1        0.1144
     14 C          -0.9252    6.9615   -0.1616 C.ar    1  LIG1        0.1902
     15 O          -0.7889    5.6185   -0.0669 O.2     1  LIG1       -0.4461
     16 S           3.0226    6.6777    0.2934 S.3     1  LIG1       -0.1376
     17 H           2.9533    7.9609    0.7045 H       1  LIG1        0.1073
     18 N           0.9854   10.0363   -0.3480 N.1     1  LIG1       -0.1907
     19 C           0.6535    8.9262   -0.2300 C.1     1  LIG1        0.1042
     20 C          -2.2652    7.4596   -0.3072 C.ar    1  LIG1        0.1854
     21 C          -2.9193    8.6170    0.0598 C.ar    1  LIG1        0.0712
     22 C          -4.2902    8.4314   -0.3623 C.ar    1  LIG1        0.1033
     23 C          -4.3583    7.1872   -0.9318 C.ar    1  LIG1        0.1112
     24 O          -3.1562    6.5938   -0.9131 O.2     1  LIG1       -0.4573
     25 H          -5.1725    6.6330   -1.3722 H       1  LIG1        0.1043
     26 S          -2.2650   10.0238    0.8908 S.3     1  LIG1       -0.1376
     27 H          -3.4676   10.4743    1.3048 H       1  LIG1        0.1073
     28 N          -6.2073   10.1243   -0.0075 N.1     1  LIG1       -0.1907
     29 C          -5.3565    9.3501   -0.1827 C.1     1  LIG1        0.1034
@<TRIPOS>BOND
     1    25    23    1
     2     9    10    3
     3    23    24   ar
     4    23    22   ar
     5    24    20   ar
     6     8     7    1
     7    10     3    1
     8    22    29    1
     9    22    21   ar
    10    18    19    3
    11    20    14    1
    12    20    21   ar
    13    19    13    1
    14    29    28    3
    15    14    13   ar
    16    14    15   ar
    17    13    12   ar
    18    15    11   ar
    19     3     4   ar
    20     3     2   ar
    21    21    26    1
    22    11    12   ar
    23    11     4    1
    24    12    16    1
    25     4     5   ar
    26    16    17    1
    27     7     2    1
    28     2     1   ar
    29     5     1   ar
    30    26    27    1
    31     1     6    1
