@<TRIPOS>MOLECULE
mol_data/opt/b3lyp/geoms/mol2/12gd12gd12gd12gd.out
 38 41 0 0 0
SMALL
GASTEIGER

@<TRIPOS>ATOM
      1 C           0.5411    1.7309    0.1811 C.ar    1  LIG1        0.1071
      2 C           1.8600    1.8169   -0.1425 C.ar    1  LIG1        0.0607
      3 C           2.1543    3.2325   -0.2108 C.ar    1  LIG1        0.1136
      4 C           0.9754    3.8899    0.0965 C.ar    1  LIG1        0.1892
      5 O          -0.0005    2.9726    0.3411 O.2     1  LIG1       -0.4573
      6 H          -0.1247    0.8964    0.3306 H       1  LIG1        0.1041
      7 S           2.9727    0.4545   -0.3236 S.3     1  LIG1       -0.1383
      8 H           3.5679    0.8872   -1.4547 H       1  LIG1        0.1072
      9 N           4.4020    4.2113   -1.0152 N.1     1  LIG1       -0.1907
     10 C           3.3839    3.7942   -0.6338 C.1     1  LIG1        0.1042
     11 C           0.5998    5.2718    0.2128 C.ar    1  LIG1        0.1864
     12 C           1.2561    6.4229    0.5916 C.ar    1  LIG1        0.0719
     13 C           0.2639    7.4694    0.5468 C.ar    1  LIG1        0.1144
     14 C          -0.9232    6.8799    0.1395 C.ar    1  LIG1        0.1902
     15 O          -0.7201    5.5574   -0.0652 O.2     1  LIG1       -0.4461
     16 S           2.9383    6.5956    1.0820 S.3     1  LIG1       -0.1376
     17 H           2.7348    7.7388    1.7700 H       1  LIG1        0.1073
     18 N           0.7114    9.8647    1.3925 N.1     1  LIG1       -0.1907
     19 C           0.4783    8.7977    0.9875 C.1     1  LIG1        0.1042
     20 C          -2.2492    7.3691   -0.1047 C.ar    1  LIG1        0.1864
     21 C          -2.7794    8.5764   -0.5113 C.ar    1  LIG1        0.0719
     22 C          -4.2005    8.3565   -0.6250 C.ar    1  LIG1        0.1144
     23 C          -4.4330    7.0356   -0.2751 C.ar    1  LIG1        0.1902
     24 O          -3.2596    6.4416    0.0401 O.2     1  LIG1       -0.4461
     25 S          -1.9228   10.0683   -0.8792 S.3     1  LIG1       -0.1376
     26 H          -2.9269   10.5920   -1.6134 H       1  LIG1        0.1073
     27 N          -5.8167   10.1175   -1.5944 N.1     1  LIG1       -0.1907
     28 C          -5.1197    9.3035   -1.1381 C.1     1  LIG1        0.1042
     29 C          -5.6110    6.2218   -0.1705 C.ar    1  LIG1        0.1854
     30 C          -6.9407    6.4656    0.1074 C.ar    1  LIG1        0.0712
     31 C          -7.5747    5.1659    0.1068 C.ar    1  LIG1        0.1033
     32 C          -6.5893    4.2506   -0.1549 C.ar    1  LIG1        0.1112
     33 O          -5.4099    4.8635   -0.3288 O.2     1  LIG1       -0.4573
     34 H          -6.6013    3.1754   -0.2430 H       1  LIG1        0.1043
     35 S          -7.7230    8.0079    0.4295 S.3     1  LIG1       -0.1376
     36 H          -8.8037    7.4600    1.0233 H       1  LIG1        0.1073
     37 N         -10.0721    4.7211    0.5889 N.1     1  LIG1       -0.1907
     38 C          -8.9446    4.8997    0.3635 C.1     1  LIG1        0.1034
@<TRIPOS>BOND
     1    26    25    1
     2    27    28    3
     3     8     7    1
     4    28    22    1
     5     9    10    3
     6    25    21    1
     7    10     3    1
     8    22    21   ar
     9    22    23   ar
    10    21    20   ar
    11    33    29   ar
    12    33    32   ar
    13     7     2    1
    14    23    29    1
    15    23    24   ar
    16    34    32    1
    17     3     2   ar
    18     3     4   ar
    19    29    30   ar
    20    32    31   ar
    21     2     1   ar
    22    20    24   ar
    23    20    14    1
    24    15    14   ar
    25    15    11   ar
    26     4    11    1
    27     4     5   ar
    28    31    30   ar
    29    31    38    1
    30    30    35    1
    31    14    13   ar
    32     1     6    1
    33     1     5   ar
    34    11    12   ar
    35    38    37    3
    36    35    36    1
    37    13    12   ar
    38    13    19    1
    39    12    16    1
    40    19    18    3
    41    16    17    1
