@<TRIPOS>MOLECULE
mol_data/opt/b3lyp/geoms/mol2/12gd12gd12gd-12gd-.out
 38 41 0 0 0
SMALL
GASTEIGER

@<TRIPOS>ATOM
      1 C           0.0835    1.8603    0.1775 C.ar    1  LIG1        0.1071
      2 C           1.4365    1.7509    0.0883 C.ar    1  LIG1        0.0607
      3 C           1.9348    3.1079   -0.0020 C.ar    1  LIG1        0.1136
      4 C           0.8214    3.9395    0.0451 C.ar    1  LIG1        0.1892
      5 O          -0.2938    3.1734    0.1523 O.2     1  LIG1       -0.4573
      6 H          -0.7131    1.1403    0.2598 H       1  LIG1        0.1041
      7 S           2.3741    0.2538    0.0798 S.3     1  LIG1       -0.1383
      8 H           3.5769    0.8540   -0.0272 H       1  LIG1        0.1072
      9 N           4.4647    3.5237   -0.2493 N.1     1  LIG1       -0.1907
     10 C           3.3106    3.4078   -0.1365 C.1     1  LIG1        0.1042
     11 C           0.5817    5.3562    0.0147 C.ar    1  LIG1        0.1864
     12 C           1.3487    6.5042    0.0033 C.ar    1  LIG1        0.0719
     13 C           0.4126    7.6025   -0.0234 C.ar    1  LIG1        0.1144
     14 C          -0.8631    7.0481   -0.0209 C.ar    1  LIG1        0.1902
     15 O          -0.7530    5.7011    0.0001 O.2     1  LIG1       -0.4461
     16 S           3.1021    6.6534    0.0279 S.3     1  LIG1       -0.1376
     17 H           3.0915    8.0027    0.0457 H       1  LIG1        0.1073
     18 N           1.2813   10.0271   -0.0855 N.1     1  LIG1       -0.1907
     19 C           0.8248    8.9555   -0.0570 C.1     1  LIG1        0.1042
     20 C          -2.2088    7.5449   -0.0323 C.ar    1  LIG1        0.1864
     21 C          -2.8276    8.7805    0.0056 C.ar    1  LIG1        0.0719
     22 C          -4.2445    8.5104   -0.0353 C.ar    1  LIG1        0.1144
     23 C          -4.3932    7.1293   -0.0914 C.ar    1  LIG1        0.1902
     24 O          -3.1706    6.5575   -0.0898 O.2     1  LIG1       -0.4461
     25 S          -2.0958   10.3767    0.0967 S.3     1  LIG1       -0.1376
     26 H          -3.2758   11.0315    0.1135 H       1  LIG1        0.1073
     27 N          -5.9290   10.4597   -0.0130 N.1     1  LIG1       -0.1907
     28 C          -5.2197    9.5356   -0.0249 C.1     1  LIG1        0.1042
     29 C          -5.4933    6.2071   -0.1474 C.ar    1  LIG1        0.1854
     30 C          -6.8751    6.2809   -0.1288 C.ar    1  LIG1        0.0712
     31 C          -7.3311    4.9117   -0.2180 C.ar    1  LIG1        0.1033
     32 C          -6.2106    4.1269   -0.2818 C.ar    1  LIG1        0.1112
     33 O          -5.1069    4.8811   -0.2408 O.2     1  LIG1       -0.4573
     34 H          -6.0752    3.0595   -0.3557 H       1  LIG1        0.1043
     35 S          -7.9174    7.6925   -0.0128 S.3     1  LIG1       -0.1376
     36 H          -9.0609    6.9765   -0.0452 H       1  LIG1        0.1073
     37 N          -9.8044    4.1728   -0.2420 N.1     1  LIG1       -0.1907
     38 C          -8.6822    4.4806   -0.2333 C.1     1  LIG1        0.1034
@<TRIPOS>BOND
     1    34    32    1
     2    32    33   ar
     3    32    31   ar
     4     9    10    3
     5    37    38    3
     6    33    29   ar
     7    38    31    1
     8    31    30   ar
     9    29    30   ar
    10    29    23    1
    11    10     3    1
    12    30    35    1
    13    23    24   ar
    14    23    22   ar
    15    24    20   ar
    16    18    19    3
    17    19    13    1
    18    36    35    1
    19    22    28    1
    20    22    21   ar
    21    20    14    1
    22    20    21   ar
    23     8     7    1
    24    28    27    3
    25    13    14   ar
    26    13    12   ar
    27    14    15   ar
    28     3     4   ar
    29     3     2   ar
    30    15    11   ar
    31    12    11   ar
    32    12    16    1
    33    21    25    1
    34    11     4    1
    35    16    17    1
    36     4     5   ar
    37     7     2    1
    38     2     1   ar
    39    25    26    1
    40     5     1   ar
    41     1     6    1
