@<TRIPOS>MOLECULE
mol_data/opt/b3lyp/geoms/mol2/12gd12gd-.out
 20 21 0 0 0
SMALL
GASTEIGER

@<TRIPOS>ATOM
      1 C           0.1206    1.8320   -0.0000 C.ar    1  LIG1        0.1071
      2 C           1.4795    1.7821    0.0000 C.ar    1  LIG1        0.0607
      3 C           1.9234    3.1616   -0.0000 C.ar    1  LIG1        0.1136
      4 C           0.7752    3.9437   -0.0001 C.ar    1  LIG1        0.1892
      5 O          -0.3099    3.1298   -0.0001 O.2     1  LIG1       -0.4573
      6 H          -0.6498    1.0787   -0.0001 H       1  LIG1        0.1041
      7 S           2.4813    0.3260    0.0001 S.3     1  LIG1       -0.1383
      8 H           3.6605    0.9801    0.0001 H       1  LIG1        0.1072
      9 N           4.4430    3.6981    0.0000 N.1     1  LIG1       -0.1907
     10 C           3.2904    3.5256    0.0000 C.1     1  LIG1        0.1042
     11 C           0.4771    5.3524   -0.0001 C.ar    1  LIG1        0.1853
     12 C           1.1954    6.5322   -0.0001 C.ar    1  LIG1        0.0712
     13 C           0.2028    7.5853   -0.0001 C.ar    1  LIG1        0.1033
     14 C          -1.0210    6.9719   -0.0002 C.ar    1  LIG1        0.1112
     15 O          -0.8764    5.6406   -0.0002 O.2     1  LIG1       -0.4573
     16 H          -2.0287    7.3570   -0.0003 H       1  LIG1        0.1043
     17 S           2.9382    6.7756    0.0000 S.3     1  LIG1       -0.1376
     18 H           2.8524    8.1223    0.0000 H       1  LIG1        0.1073
     19 N           0.7189   10.1150   -0.0001 N.1     1  LIG1       -0.1907
     20 C           0.4614    8.9799   -0.0001 C.1     1  LIG1        0.1034
@<TRIPOS>BOND
     1    16    14    1
     2    14    15   ar
     3    14    13   ar
     4    15    11   ar
     5    20    19    3
     6    20    13    1
     7    13    12   ar
     8    11    12   ar
     9    11     4    1
    10     5     4   ar
    11     5     1   ar
    12    12    17    1
    13     4     3   ar
    14     6     1    1
    15     1     2   ar
    16     3     2   ar
    17     3    10    1
    18     2     7    1
    19    10     9    3
    20    18    17    1
    21     7     8    1
