@<TRIPOS>MOLECULE
mol_data/opt/b3lyp/geoms/mol2/12gd12gd-12gd-.out
 29 31 0 0 0
SMALL
GASTEIGER

@<TRIPOS>ATOM
      1 C           0.4060    1.7794   -0.5061 C.ar    1  LIG1        0.1071
      2 C           1.6617    1.7942    0.0178 C.ar    1  LIG1        0.0607
      3 C           1.9697    3.1884    0.2560 C.ar    1  LIG1        0.1136
      4 C           0.8643    3.9078   -0.1642 C.ar    1  LIG1        0.1892
      5 O          -0.0806    3.0473   -0.6334 O.2     1  LIG1       -0.4573
      6 H          -0.2456    0.9832   -0.8279 H       1  LIG1        0.1041
      7 S           2.7072    0.3855    0.2410 S.3     1  LIG1       -0.1383
      8 H           3.1255    0.6958    1.4859 H       1  LIG1        0.1072
      9 N           4.0880    4.0199    1.4721 N.1     1  LIG1       -0.1907
     10 C           3.1316    3.6709    0.9067 C.1     1  LIG1        0.1042
     11 C           0.5356    5.3059   -0.2104 C.ar    1  LIG1        0.1864
     12 C           1.2609    6.4652   -0.3789 C.ar    1  LIG1        0.0719
     13 C           0.2897    7.5329   -0.3920 C.ar    1  LIG1        0.1144
     14 C          -0.9543    6.9461   -0.2263 C.ar    1  LIG1        0.1902
     15 O          -0.8067    5.6060   -0.1117 O.2     1  LIG1       -0.4461
     16 S           3.0011    6.6308   -0.5881 S.3     1  LIG1       -0.1376
     17 H           2.9249    7.8373   -1.1884 H       1  LIG1        0.1073
     18 N           0.8963    9.9811   -0.9324 N.1     1  LIG1       -0.1907
     19 C           0.5890    8.8888   -0.6695 C.1     1  LIG1        0.1042
     20 C          -2.2955    7.4527   -0.1429 C.ar    1  LIG1        0.1854
     21 C          -2.8642    8.6315    0.2933 C.ar    1  LIG1        0.0712
     22 C          -4.2904    8.4470    0.1402 C.ar    1  LIG1        0.1033
     23 C          -4.4694    7.1829   -0.3568 C.ar    1  LIG1        0.1112
     24 O          -3.2879    6.5755   -0.5382 O.2     1  LIG1       -0.4573
     25 H          -5.3541    6.6224   -0.6159 H       1  LIG1        0.1043
     26 S          -2.0579   10.0596    0.9313 S.3     1  LIG1       -0.1376
     27 H          -3.1590   10.5421    1.5441 H       1  LIG1        0.1073
     28 N          -6.1003   10.1764    0.7733 N.1     1  LIG1       -0.1907
     29 C          -5.3003    9.3853    0.4764 C.1     1  LIG1        0.1034
@<TRIPOS>BOND
     1    17    16    1
     2    18    19    3
     3     6     1    1
     4    19    13    1
     5     5     1   ar
     6     5     4   ar
     7    25    23    1
     8    16    12    1
     9    24    23   ar
    10    24    20   ar
    11     1     2   ar
    12    13    12   ar
    13    13    14   ar
    14    12    11   ar
    15    23    22   ar
    16    14    20    1
    17    14    15   ar
    18    11     4    1
    19    11    15   ar
    20     4     3   ar
    21    20    21   ar
    22     2     7    1
    23     2     3   ar
    24    22    21   ar
    25    22    29    1
    26     7     8    1
    27     3    10    1
    28    21    26    1
    29    29    28    3
    30    10     9    3
    31    26    27    1
