@<TRIPOS>MOLECULE
mol_data/opt/b3lyp/geoms/mol2/12gd12gd-12gd12gd-.out
 38 41 0 0 0
SMALL
GASTEIGER

@<TRIPOS>ATOM
      1 C           0.0760    1.8598   -0.0000 C.ar    1  LIG1        0.1071
      2 C           1.4317    1.7505   -0.0000 C.ar    1  LIG1        0.0607
      3 C           1.9358    3.1085   -0.0000 C.ar    1  LIG1        0.1136
      4 C           0.8217    3.9413   -0.0001 C.ar    1  LIG1        0.1892
      5 O          -0.2983    3.1742   -0.0000 O.2     1  LIG1       -0.4573
      6 H          -0.7254    1.1397   -0.0000 H       1  LIG1        0.1041
      7 S           2.3672    0.2510    0.0000 S.3     1  LIG1       -0.1383
      8 H           3.5746    0.8513    0.0000 H       1  LIG1        0.1072
      9 N           4.4782    3.5203   -0.0001 N.1     1  LIG1       -0.1907
     10 C           3.3181    3.4074   -0.0000 C.1     1  LIG1        0.1042
     11 C           0.5833    5.3584   -0.0001 C.ar    1  LIG1        0.1864
     12 C           1.3500    6.5068   -0.0001 C.ar    1  LIG1        0.0719
     13 C           0.4134    7.6056   -0.0001 C.ar    1  LIG1        0.1144
     14 C          -0.8623    7.0511   -0.0001 C.ar    1  LIG1        0.1902
     15 O          -0.7516    5.7038   -0.0001 O.2     1  LIG1       -0.4461
     16 S           3.1027    6.6572   -0.0000 S.3     1  LIG1       -0.1376
     17 H           3.0914    8.0066   -0.0000 H       1  LIG1        0.1073
     18 N           1.2859   10.0295   -0.0001 N.1     1  LIG1       -0.1907
     19 C           0.8261    8.9587   -0.0001 C.1     1  LIG1        0.1042
     20 C          -2.2082    7.5467   -0.0002 C.ar    1  LIG1        0.1864
     21 C          -2.8279    8.7826   -0.0002 C.ar    1  LIG1        0.0719
     22 C          -4.2454    8.5102   -0.0002 C.ar    1  LIG1        0.1144
     23 C          -4.3934    7.1280   -0.0002 C.ar    1  LIG1        0.1902
     24 O          -3.1700    6.5573   -0.0002 O.2     1  LIG1       -0.4461
     25 S          -2.0975   10.3812   -0.0001 S.3     1  LIG1       -0.1376
     26 H          -3.2781   11.0351   -0.0001 H       1  LIG1        0.1073
     27 N          -5.9311   10.4587   -0.0002 N.1     1  LIG1       -0.1907
     28 C          -5.2214    9.5346   -0.0002 C.1     1  LIG1        0.1042
     29 C          -5.4930    6.2040   -0.0003 C.ar    1  LIG1        0.1854
     30 C          -6.8749    6.2798   -0.0003 C.ar    1  LIG1        0.0712
     31 C          -7.3320    4.9079   -0.0003 C.ar    1  LIG1        0.1033
     32 C          -6.2119    4.1198   -0.0003 C.ar    1  LIG1        0.1112
     33 O          -5.1074    4.8746   -0.0003 O.2     1  LIG1       -0.4573
     34 H          -6.0761    3.0496   -0.0004 H       1  LIG1        0.1043
     35 S          -7.9155    7.6961   -0.0003 S.3     1  LIG1       -0.1376
     36 H          -9.0600    6.9811   -0.0003 H       1  LIG1        0.1073
     37 N          -9.8057    4.1690   -0.0004 N.1     1  LIG1       -0.1907
     38 C          -8.6834    4.4769   -0.0004 C.1     1  LIG1        0.1034
@<TRIPOS>BOND
     1    37    38    3
     2    38    31    1
     3    34    32    1
     4    31    32   ar
     5    31    30   ar
     6    32    33   ar
     7    36    35    1
     8    30    35    1
     9    30    29   ar
    10    33    29   ar
    11    29    23    1
    12    27    28    3
    13    28    22    1
    14    23    22   ar
    15    23    24   ar
    16    22    21   ar
    17    24    20   ar
    18    21    20   ar
    19    21    25    1
    20    20    14    1
    21    26    25    1
    22    14    15   ar
    23    14    13   ar
    24    18    19    3
    25    19    13    1
    26    15    11   ar
    27    13    12   ar
    28    11    12   ar
    29    11     4    1
    30    12    16    1
    31     4     5   ar
    32     4     3   ar
    33     9    10    3
    34    10     3    1
    35     5     1   ar
    36     3     2   ar
    37    17    16    1
    38     1     2   ar
    39     1     6    1
    40     2     7    1
    41     8     7    1
