@<TRIPOS>MOLECULE
mol_data/opt/b3lyp/geoms/mol2/12gd12gd-12gd-12gd-.out
 38 41 0 0 0
SMALL
GASTEIGER

@<TRIPOS>ATOM
      1 C           0.5446    1.7326   -0.2040 C.ar    1  LIG1        0.1071
      2 C           1.8580    1.8167    0.1414 C.ar    1  LIG1        0.0607
      3 C           2.1511    3.2319    0.2228 C.ar    1  LIG1        0.1136
      4 C           0.9773    3.8911   -0.0999 C.ar    1  LIG1        0.1892
      5 O           0.0055    2.9752   -0.3655 O.2     1  LIG1       -0.4573
      6 H          -0.1186    0.8990   -0.3691 H       1  LIG1        0.1041
      7 S           2.9677    0.4532    0.3328 S.3     1  LIG1       -0.1383
      8 H           3.5445    0.8793    1.4759 H       1  LIG1        0.1072
      9 N           4.3854    4.2059    1.0693 N.1     1  LIG1       -0.1907
     10 C           3.3736    3.7910    0.6689 C.1     1  LIG1        0.1042
     11 C           0.6035    5.2736   -0.2143 C.ar    1  LIG1        0.1864
     12 C           1.2658    6.4270   -0.5750 C.ar    1  LIG1        0.0719
     13 C           0.2729    7.4732   -0.5404 C.ar    1  LIG1        0.1144
     14 C          -0.9208    6.8811   -0.1569 C.ar    1  LIG1        0.1902
     15 O          -0.7210    5.5574    0.0431 O.2     1  LIG1       -0.4461
     16 S           2.9558    6.6030   -1.0357 S.3     1  LIG1       -0.1376
     17 H           2.7633    7.7489   -1.7224 H       1  LIG1        0.1073
     18 N           0.7337    9.8736   -1.3642 N.1     1  LIG1       -0.1907
     19 C           0.4943    8.8041   -0.9694 C.1     1  LIG1        0.1042
     20 C          -2.2508    7.3688    0.0681 C.ar    1  LIG1        0.1864
     21 C          -2.7880    8.5735    0.4731 C.ar    1  LIG1        0.0719
     22 C          -4.2107    8.3527    0.5622 C.ar    1  LIG1        0.1144
     23 C          -4.4370    7.0339    0.2004 C.ar    1  LIG1        0.1902
     24 O          -3.2584    6.4420   -0.0990 O.2     1  LIG1       -0.4461
     25 S          -1.9380   10.0633    0.8638 S.3     1  LIG1       -0.1376
     26 H          -2.9544   10.5827    1.5840 H       1  LIG1        0.1073
     27 N          -5.8436   10.1073    1.5149 N.1     1  LIG1       -0.1907
     28 C          -5.1386    9.2963    1.0655 C.1     1  LIG1        0.1042
     29 C          -5.6130    6.2207    0.0719 C.ar    1  LIG1        0.1854
     30 C          -6.9379    6.4659   -0.2270 C.ar    1  LIG1        0.0712
     31 C          -7.5718    5.1664   -0.2438 C.ar    1  LIG1        0.1033
     32 C          -6.5909    4.2497    0.0296 C.ar    1  LIG1        0.1112
     33 O          -5.4146    4.8616    0.2264 O.2     1  LIG1       -0.4573
     34 H          -6.6045    3.1740    0.1119 H       1  LIG1        0.1043
     35 S          -7.7145    8.0101   -0.5544 S.3     1  LIG1       -0.1376
     36 H          -8.7850    7.4655   -1.1692 H       1  LIG1        0.1073
     37 N         -10.0607    4.7244   -0.7702 N.1     1  LIG1       -0.1907
     38 C          -8.9372    4.9017   -0.5248 C.1     1  LIG1        0.1034
@<TRIPOS>BOND
     1    17    16    1
     2    18    19    3
     3    36    35    1
     4    16    12    1
     5    19    13    1
     6    37    38    3
     7    12    13   ar
     8    12    11   ar
     9    35    30    1
    10    13    14   ar
    11    38    31    1
    12     6     1    1
    13     5     1   ar
    14     5     4   ar
    15    31    30   ar
    16    31    32   ar
    17    30    29   ar
    18    11     4    1
    19    11    15   ar
    20     1     2   ar
    21    14    15   ar
    22    14    20    1
    23     4     3   ar
    24    24    20   ar
    25    24    23   ar
    26    32    34    1
    27    32    33   ar
    28    20    21   ar
    29    29    23    1
    30    29    33   ar
    31     2     3   ar
    32     2     7    1
    33    23    22   ar
    34     3    10    1
    35     7     8    1
    36    21    22   ar
    37    21    25    1
    38    22    28    1
    39    10     9    3
    40    25    26    1
    41    28    27    3
