@<TRIPOS>MOLECULE
mol_data/opt/b3lyp/geoms/mol2/12gd12gd-12gd12gd.out
 38 41 0 0 0
SMALL
GASTEIGER

@<TRIPOS>ATOM
      1 C           0.5502    1.7357    0.1963 C.ar    1  LIG1        0.1071
      2 C           1.8639    1.8216   -0.1480 C.ar    1  LIG1        0.0607
      3 C           2.1549    3.2372   -0.2296 C.ar    1  LIG1        0.1136
      4 C           0.9800    3.8948    0.0921 C.ar    1  LIG1        0.1892
      5 O           0.0093    2.9776    0.3571 O.2     1  LIG1       -0.4573
      6 H          -0.1118    0.9011    0.3614 H       1  LIG1        0.1041
      7 S           2.9755    0.4596   -0.3389 S.3     1  LIG1       -0.1383
      8 H           3.5519    0.8865   -1.4819 H       1  LIG1        0.1072
      9 N           4.3883    4.2143   -1.0748 N.1     1  LIG1       -0.1907
     10 C           3.3769    3.7981   -0.6749 C.1     1  LIG1        0.1042
     11 C           0.6040    5.2768    0.2056 C.ar    1  LIG1        0.1864
     12 C           1.2645    6.4314    0.5661 C.ar    1  LIG1        0.0719
     13 C           0.2701    7.4761    0.5301 C.ar    1  LIG1        0.1144
     14 C          -0.9224    6.8822    0.1457 C.ar    1  LIG1        0.1902
     15 O          -0.7205    5.5586   -0.0532 O.2     1  LIG1       -0.4461
     16 S           2.9541    6.6100    1.0279 S.3     1  LIG1       -0.1376
     17 H           2.7591    7.7549    1.7155 H       1  LIG1        0.1073
     18 N           0.7268    9.8777    1.3525 N.1     1  LIG1       -0.1907
     19 C           0.4893    8.8076    0.9584 C.1     1  LIG1        0.1042
     20 C          -2.2528    7.3680   -0.0806 C.ar    1  LIG1        0.1864
     21 C          -2.7910    8.5716   -0.4873 C.ar    1  LIG1        0.0719
     22 C          -4.2134    8.3491   -0.5772 C.ar    1  LIG1        0.1144
     23 C          -4.4385    7.0304   -0.2142 C.ar    1  LIG1        0.1902
     24 O          -3.2595    6.4402    0.0867 O.2     1  LIG1       -0.4461
     25 S          -1.9424   10.0618   -0.8793 S.3     1  LIG1       -0.1376
     26 H          -2.9595   10.5802   -1.5991 H       1  LIG1        0.1073
     27 N          -5.8474   10.1008   -1.5333 N.1     1  LIG1       -0.1907
     28 C          -5.1420    9.2911   -1.0824 C.1     1  LIG1        0.1042
     29 C          -5.6137    6.2161   -0.0855 C.ar    1  LIG1        0.1854
     30 C          -6.9390    6.4603    0.2122 C.ar    1  LIG1        0.0712
     31 C          -7.5715    5.1601    0.2304 C.ar    1  LIG1        0.1033
     32 C          -6.5895    4.2441   -0.0410 C.ar    1  LIG1        0.1112
     33 O          -5.4137    4.8570   -0.2379 O.2     1  LIG1       -0.4573
     34 H          -6.6017    3.1684   -0.1218 H       1  LIG1        0.1043
     35 S          -7.7176    8.0040    0.5367 S.3     1  LIG1       -0.1376
     36 H          -8.7878    7.4591    1.1518 H       1  LIG1        0.1073
     37 N         -10.0603    4.7161    0.7556 N.1     1  LIG1       -0.1907
     38 C          -8.9368    4.8943    0.5109 C.1     1  LIG1        0.1034
@<TRIPOS>BOND
     1    26    25    1
     2    27    28    3
     3     8     7    1
     4    28    22    1
     5     9    10    3
     6    25    21    1
     7    10     3    1
     8    22    21   ar
     9    22    23   ar
    10    21    20   ar
    11     7     2    1
    12    33    29   ar
    13    33    32   ar
    14     3     2   ar
    15     3     4   ar
    16    23    29    1
    17    23    24   ar
    18     2     1   ar
    19    34    32    1
    20    29    30   ar
    21    20    24   ar
    22    20    14    1
    23    15    14   ar
    24    15    11   ar
    25    32    31   ar
    26     4    11    1
    27     4     5   ar
    28    14    13   ar
    29     1     5   ar
    30     1     6    1
    31    11    12   ar
    32    30    31   ar
    33    30    35    1
    34    31    38    1
    35    38    37    3
    36    13    12   ar
    37    13    19    1
    38    35    36    1
    39    12    16    1
    40    19    18    3
    41    16    17    1
