@<TRIPOS>MOLECULE
mol_data/opt/b3lyp/geoms/mol2/12gd12gd12gd-12gd.out
 38 41 0 0 0
SMALL
GASTEIGER

@<TRIPOS>ATOM
      1 C           0.5815    2.0252    1.4085 C.ar    1  LIG1        0.1071
      2 C           1.7490    1.8659    0.7274 C.ar    1  LIG1        0.0607
      3 C           1.9976    3.1344    0.0763 C.ar    1  LIG1        0.1136
      4 C           0.9530    3.9683    0.4365 C.ar    1  LIG1        0.1892
      5 O           0.0990    3.2912    1.2527 O.2     1  LIG1       -0.4573
      6 H          -0.0048    1.3629    2.0247 H       1  LIG1        0.1041
      7 S           2.7728    0.4242    0.7496 S.3     1  LIG1       -0.1383
      8 H           3.0184    0.3866   -0.5767 H       1  LIG1        0.1072
      9 N           3.9052    3.5467   -1.6114 N.1     1  LIG1       -0.1907
     10 C           3.0459    3.3912   -0.8411 C.1     1  LIG1        0.1042
     11 C           0.6132    5.3346    0.1481 C.ar    1  LIG1        0.1864
     12 C           1.3367    6.4781   -0.1123 C.ar    1  LIG1        0.0719
     13 C           0.3605    7.5267   -0.2825 C.ar    1  LIG1        0.1144
     14 C          -0.8848    6.9529   -0.0773 C.ar    1  LIG1        0.1902
     15 O          -0.7330    5.6299    0.1670 O.2     1  LIG1       -0.4461
     16 S           3.0855    6.6493   -0.2243 S.3     1  LIG1       -0.1376
     17 H           3.0819    7.9774    0.0132 H       1  LIG1        0.1073
     18 N           0.9837    9.9339   -0.9686 N.1     1  LIG1       -0.1907
     19 C           0.6674    8.8583   -0.6534 C.1     1  LIG1        0.1042
     20 C          -2.2314    7.4498   -0.0691 C.ar    1  LIG1        0.1864
     21 C          -2.8234    8.6610    0.2229 C.ar    1  LIG1        0.0719
     22 C          -4.2414    8.4485    0.0630 C.ar    1  LIG1        0.1144
     23 C          -4.4124    7.1169   -0.2811 C.ar    1  LIG1        0.1902
     24 O          -3.2032    6.5188   -0.3719 O.2     1  LIG1       -0.4461
     25 S          -2.0462   10.1656    0.7010 S.3     1  LIG1       -0.1376
     26 H          -3.1725   10.7148    1.2014 H       1  LIG1        0.1073
     27 N          -5.9814   10.3395    0.2875 N.1     1  LIG1       -0.1907
     28 C          -5.2243    9.4606    0.1831 C.1     1  LIG1        0.1042
     29 C          -5.5554    6.2881   -0.5456 C.ar    1  LIG1        0.1854
     30 C          -6.8678    6.2711   -0.1198 C.ar    1  LIG1        0.0712
     31 C          -7.4588    5.1124   -0.7520 C.ar    1  LIG1        0.1033
     32 C          -6.4673    4.5217   -1.4903 C.ar    1  LIG1        0.1112
     33 O          -5.3240    5.2131   -1.3830 O.2     1  LIG1       -0.4573
     34 H          -6.4517    3.6414   -2.1138 H       1  LIG1        0.1043
     35 S          -7.6744    7.3820    0.9806 S.3     1  LIG1       -0.1376
     36 H          -8.6989    6.5453    1.2471 H       1  LIG1        0.1073
     37 N          -9.8978    4.3240   -0.4413 N.1     1  LIG1       -0.1907
     38 C          -8.7965    4.6645   -0.6003 C.1     1  LIG1        0.1034
@<TRIPOS>BOND
     1    34    32    1
     2     9    10    3
     3    32    33   ar
     4    32    31   ar
     5    33    29   ar
     6    18    19    3
     7    10     3    1
     8    31    38    1
     9    31    30   ar
    10    19    13    1
    11    38    37    3
    12     8     7    1
    13    29    23    1
    14    29    30   ar
    15    24    23   ar
    16    24    20   ar
    17    13    12   ar
    18    13    14   ar
    19    23    22   ar
    20    16    12    1
    21    16    17    1
    22    30    35    1
    23    12    11   ar
    24    14    20    1
    25    14    15   ar
    26    20    21   ar
    27    22    28    1
    28    22    21   ar
    29     3     4   ar
    30     3     2   ar
    31    11    15   ar
    32    11     4    1
    33    28    27    3
    34    21    25    1
    35     4     5   ar
    36    25    26    1
    37     2     7    1
    38     2     1   ar
    39    35    36    1
    40     5     1   ar
    41     1     6    1
