@<TRIPOS>MOLECULE
mol_data/opt/b3lyp/geoms/mol2/12ge12ge-12ge-12ge.out
 42 45 0 0 0
SMALL
GASTEIGER

@<TRIPOS>ATOM
      1 C           0.5101    1.6788   -0.1778 C.ar    1  LIG1        0.1071
      2 C           1.7808    1.7600    0.3032 C.ar    1  LIG1        0.0587
      3 C           2.0754    3.1734    0.4240 C.ar    1  LIG1        0.0866
      4 C           0.9429    3.8341   -0.0235 C.ar    1  LIG1        0.1872
      5 O          -0.0064    2.9266   -0.3846 O.2     1  LIG1       -0.4574
      6 H          -0.1399    0.8522   -0.4143 H       1  LIG1        0.1041
      7 S           2.8549    0.4155    0.7078 S.3     1  LIG1       -0.1384
      8 H           3.8141    1.1978    1.2448 H       1  LIG1        0.1072
      9 C           3.2530    3.7189    0.9821 C.1     1  LIG1       -0.0647
     10 C           4.2755    4.1274    1.4877 C.1     1  LIG1       -0.1138
     11 H           5.1615    4.5233    1.9274 H       1  LIG1        0.1232
     12 C           0.5975    5.2215   -0.1731 C.ar    1  LIG1        0.1863
     13 C           1.3010    6.3631   -0.4867 C.ar    1  LIG1        0.0699
     14 C           0.3349    7.4368   -0.5222 C.ar    1  LIG1        0.0874
     15 C          -0.8896    6.8632   -0.2186 C.ar    1  LIG1        0.1882
     16 O          -0.7334    5.5304   -0.0054 O.2     1  LIG1       -0.4461
     17 S           3.0169    6.5147   -0.8652 S.3     1  LIG1       -0.1377
     18 H           2.8657    7.6966   -1.5015 H       1  LIG1        0.1073
     19 C           0.6020    8.7645   -0.9256 C.1     1  LIG1       -0.0646
     20 C           0.8791    9.8815   -1.3033 C.1     1  LIG1       -0.1138
     21 H           1.0894   10.8745   -1.6277 H       1  LIG1        0.1232
     22 C          -2.2219    7.3824   -0.0855 C.ar    1  LIG1        0.1863
     23 C          -2.7568    8.5812    0.3334 C.ar    1  LIG1        0.0699
     24 C          -4.1915    8.4357    0.2469 C.ar    1  LIG1        0.0874
     25 C          -4.4217    7.1395   -0.1836 C.ar    1  LIG1        0.1882
     26 O          -3.2392    6.5077   -0.3976 O.2     1  LIG1       -0.4461
     27 S          -1.9076   10.0179    0.9014 S.3     1  LIG1       -0.1377
     28 H          -2.9957   10.5322    1.5137 H       1  LIG1        0.1073
     29 C          -5.1374    9.4528    0.5077 C.1     1  LIG1       -0.0646
     30 C          -5.9077   10.3601    0.7317 C.1     1  LIG1       -0.1138
     31 H          -6.6099   11.1411    0.9116 H       1  LIG1        0.1232
     32 C          -5.6129    6.3749   -0.4369 C.ar    1  LIG1        0.1852
     33 C          -6.8741    6.3307    0.1149 C.ar    1  LIG1        0.0691
     34 C          -7.5868    5.2897   -0.5983 C.ar    1  LIG1        0.0762
     35 C          -6.6952    4.7849   -1.5087 C.ar    1  LIG1        0.1092
     36 O          -5.5128    5.4239   -1.4329 O.2     1  LIG1       -0.4574
     37 H          -6.7757    3.9985   -2.2425 H       1  LIG1        0.1042
     38 S          -7.5199    7.2780    1.4547 S.3     1  LIG1       -0.1377
     39 H          -8.5278    6.4136    1.7013 H       1  LIG1        0.1073
     40 C          -8.9178    4.8655   -0.3651 C.1     1  LIG1       -0.0654
     41 C         -10.0554    4.5227   -0.1342 C.1     1  LIG1       -0.1138
     42 H         -11.0580    4.2126    0.0507 H       1  LIG1        0.1232
@<TRIPOS>BOND
     1    37    35    1
     2    21    20    1
     3    35    36   ar
     4    35    34   ar
     5    18    17    1
     6    36    32   ar
     7    20    19    3
     8    19    14    1
     9    17    13    1
    10    34    40    1
    11    34    33   ar
    12    14    13   ar
    13    14    15   ar
    14    13    12   ar
    15    32    25    1
    16    32    33   ar
    17     6     1    1
    18    26    25   ar
    19    26    22   ar
    20     5     1   ar
    21     5     4   ar
    22    40    41    3
    23    15    22    1
    24    15    16   ar
    25    25    24   ar
    26     1     2   ar
    27    12     4    1
    28    12    16   ar
    29    41    42    1
    30    22    23   ar
    31     4     3   ar
    32    33    38    1
    33    24    23   ar
    34    24    29    1
    35     2     3   ar
    36     2     7    1
    37    23    27    1
    38     3     9    1
    39    29    30    3
    40     7     8    1
    41    30    31    1
    42    27    28    1
    43     9    10    3
    44    38    39    1
    45    10    11    1
