@<TRIPOS>MOLECULE
mol_data/opt/b3lyp/geoms/mol2/12ge12ge12ge-.out
 32 34 0 0 0
SMALL
GASTEIGER

@<TRIPOS>ATOM
      1 C           0.3424    1.8471    0.9794 C.ar    1  LIG1        0.1071
      2 C           1.6135    1.7857    0.4966 C.ar    1  LIG1        0.0587
      3 C           1.9484    3.1304    0.0740 C.ar    1  LIG1        0.0866
      4 C           0.8372    3.9048    0.3642 C.ar    1  LIG1        0.1872
      5 O          -0.1364    3.1245    0.9117 O.2     1  LIG1       -0.4574
      6 H          -0.3306    1.1096    1.3856 H       1  LIG1        0.1041
      7 S           2.6489    0.3555    0.4048 S.3     1  LIG1       -0.1384
      8 H           3.5915    0.9478   -0.3575 H       1  LIG1        0.1072
      9 C           3.1377    3.5076   -0.5890 C.1     1  LIG1       -0.0647
     10 C           4.1671    3.7679   -1.1722 C.1     1  LIG1       -0.1138
     11 H           5.0615    4.0335   -1.6867 H       1  LIG1        0.1232
     12 C           0.5327    5.3018    0.2123 C.ar    1  LIG1        0.1863
     13 C           1.2679    6.4637    0.2784 C.ar    1  LIG1        0.0699
     14 C           0.3385    7.5455    0.0448 C.ar    1  LIG1        0.0874
     15 C          -0.9055    6.9568   -0.1080 C.ar    1  LIG1        0.1882
     16 O          -0.7899    5.6059   -0.0232 O.2     1  LIG1       -0.4461
     17 S           2.9918    6.6448    0.6047 S.3     1  LIG1       -0.1377
     18 H           2.8838    7.9407    0.9682 H       1  LIG1        0.1073
     19 C           0.6771    8.9143   -0.0512 C.1     1  LIG1       -0.0646
     20 C           1.0186   10.0731   -0.1357 C.1     1  LIG1       -0.1138
     21 H           1.2891   11.0997   -0.2257 H       1  LIG1        0.1232
     22 C          -2.2288    7.4744   -0.3299 C.ar    1  LIG1        0.1852
     23 C          -2.9043    8.6115    0.0544 C.ar    1  LIG1        0.0691
     24 C          -4.2411    8.4871   -0.4918 C.ar    1  LIG1        0.0762
     25 C          -4.2654    7.2832   -1.1460 C.ar    1  LIG1        0.1092
     26 O          -3.0716    6.6659   -1.0669 O.2     1  LIG1       -0.4574
     27 H          -5.0427    6.7689   -1.6888 H       1  LIG1        0.1042
     28 S          -2.3280    9.9445    1.0547 S.3     1  LIG1       -0.1377
     29 H          -3.5711   10.3787    1.3546 H       1  LIG1        0.1073
     30 C          -5.3049    9.4096   -0.3392 C.1     1  LIG1       -0.0654
     31 C          -6.1941   10.2156   -0.1825 C.1     1  LIG1       -0.1138
     32 H          -6.9866   10.9176   -0.0607 H       1  LIG1        0.1232
@<TRIPOS>BOND
     1    27    25    1
     2    11    10    1
     3    10     9    3
     4    25    26   ar
     5    25    24   ar
     6    26    22   ar
     7     9     3    1
     8    24    30    1
     9    24    23   ar
    10     8     7    1
    11    30    31    3
    12    22    15    1
    13    22    23   ar
    14    21    20    1
    15    31    32    1
    16    20    19    3
    17    15    16   ar
    18    15    14   ar
    19    19    14    1
    20    16    12   ar
    21    14    13   ar
    22    23    28    1
    23     3     4   ar
    24     3     2   ar
    25    12    13   ar
    26    12     4    1
    27    13    17    1
    28     4     5   ar
    29     7     2    1
    30     2     1   ar
    31    17    18    1
    32     5     1   ar
    33     1     6    1
    34    28    29    1
