@<TRIPOS>MOLECULE
mol_data/opt/b3lyp/geoms/mol2/12ge12ge-12ge12ge-.out
 42 45 0 0 0
SMALL
GASTEIGER

@<TRIPOS>ATOM
      1 C           0.0093    1.9135    0.0006 C.ar    1  LIG1        0.1071
      2 C           1.3625    1.7853    0.0003 C.ar    1  LIG1        0.0587
      3 C           1.8994    3.1334    0.0000 C.ar    1  LIG1        0.0866
      4 C           0.7950    3.9794    0.0001 C.ar    1  LIG1        0.1872
      5 O          -0.3439    3.2314    0.0004 O.2     1  LIG1       -0.4574
      6 H          -0.8029    1.2054    0.0008 H       1  LIG1        0.1041
      7 S           2.2840    0.2771    0.0004 S.3     1  LIG1       -0.1384
      8 H           3.4887    0.8852    0.0001 H       1  LIG1        0.1072
      9 C           3.2840    3.4126   -0.0003 C.1     1  LIG1       -0.0647
     10 C           4.4920    3.5135   -0.0006 C.1     1  LIG1       -0.1138
     11 H           5.5467    3.6645   -0.0005 H       1  LIG1        0.1232
     12 C           0.5714    5.4014   -0.0000 C.ar    1  LIG1        0.1863
     13 C           1.3393    6.5480   -0.0001 C.ar    1  LIG1        0.0699
     14 C           0.4143    7.6606   -0.0002 C.ar    1  LIG1        0.0874
     15 C          -0.8613    7.1067   -0.0001 C.ar    1  LIG1        0.1882
     16 O          -0.7592    5.7542   -0.0000 O.2     1  LIG1       -0.4461
     17 S           3.0944    6.7179   -0.0002 S.3     1  LIG1       -0.1377
     18 H           3.0425    8.0680   -0.0002 H       1  LIG1        0.1073
     19 C           0.8244    9.0126   -0.0005 C.1     1  LIG1       -0.0646
     20 C           1.2961   10.1291   -0.0006 C.1     1  LIG1       -0.1138
     21 H           1.6563   11.1319   -0.0004 H       1  LIG1        0.1232
     22 C          -2.2108    7.6008   -0.0001 C.ar    1  LIG1        0.1863
     23 C          -2.8451    8.8281    0.0000 C.ar    1  LIG1        0.0699
     24 C          -4.2656    8.5539   -0.0001 C.ar    1  LIG1        0.0874
     25 C          -4.3953    7.1705   -0.0002 C.ar    1  LIG1        0.1882
     26 O          -3.1640    6.6062   -0.0003 O.2     1  LIG1       -0.4461
     27 S          -2.1535   10.4490    0.0003 S.3     1  LIG1       -0.1377
     28 H          -3.3634   11.0507    0.0004 H       1  LIG1        0.1073
     29 C          -5.2560    9.5618    0.0000 C.1     1  LIG1       -0.0646
     30 C          -6.0140   10.5073    0.0000 C.1     1  LIG1       -0.1138
     31 H          -6.7234   11.3025   -0.0004 H       1  LIG1        0.1232
     32 C          -5.4831    6.2280   -0.0004 C.ar    1  LIG1        0.1852
     33 C          -6.8651    6.2686   -0.0002 C.ar    1  LIG1        0.0691
     34 C          -7.3051    4.8873   -0.0005 C.ar    1  LIG1        0.0762
     35 C          -6.1645    4.1293   -0.0008 C.ar    1  LIG1        0.1092
     36 O          -5.0711    4.9083   -0.0007 O.2     1  LIG1       -0.4574
     37 H          -6.0017    3.0632   -0.0010 H       1  LIG1        0.1042
     38 S          -7.9649    7.6464    0.0002 S.3     1  LIG1       -0.1377
     39 H          -9.0682    6.8664    0.0001 H       1  LIG1        0.1073
     40 C          -8.6448    4.4287   -0.0005 C.1     1  LIG1       -0.0654
     41 C          -9.8016    4.0717   -0.0006 C.1     1  LIG1       -0.1138
     42 H         -10.8133    3.7368   -0.0011 H       1  LIG1        0.1232
@<TRIPOS>BOND
     1    42    41    1
     2    37    35    1
     3    35    36   ar
     4    35    34   ar
     5    36    32   ar
     6    20    19    3
     7    20    21    1
     8    10    11    1
     9    10     9    3
    10    41    40    3
    11    34    40    1
    12    34    33   ar
    13    19    14    1
    14    31    30    1
    15    32    33   ar
    16    32    25    1
    17     9     3    1
    18    26    25   ar
    19    26    22   ar
    20    33    38    1
    21    18    17    1
    22    14    13   ar
    23    14    15   ar
    24    25    24   ar
    25    17    13    1
    26    13    12   ar
    27    15    22    1
    28    15    16   ar
    29    22    23   ar
    30    24    29    1
    31    24    23   ar
    32    12    16   ar
    33    12     4    1
    34    29    30    3
    35    23    27    1
    36     3     4   ar
    37     3     2   ar
    38     8     7    1
    39     4     5   ar
    40    39    38    1
    41    27    28    1
    42     2     7    1
    43     2     1   ar
    44     5     1   ar
    45     1     6    1
