@<TRIPOS>MOLECULE
mol_data/opt/b3lyp/geoms/mol2/12ge.out
 12 12 0 0 0
SMALL
GASTEIGER

@<TRIPOS>ATOM
      1 C           0.0977    1.9117   -0.0001 C.ar    1  LIG1        0.1060
      2 C           1.4588    1.8860    0.0000 C.ar    1  LIG1        0.0580
      3 C           1.8846    3.2744   -0.0000 C.ar    1  LIG1        0.0755
      4 C           0.7288    4.0116   -0.0001 C.ar    1  LIG1        0.1081
      5 O          -0.3553    3.2052   -0.0001 O.2     1  LIG1       -0.4687
      6 H          -0.6589    1.1442   -0.0001 H       1  LIG1        0.1041
      7 H           0.5443    5.0739   -0.0001 H       1  LIG1        0.1042
      8 S           2.5007    0.4566    0.0001 S.3     1  LIG1       -0.1384
      9 H           3.6524    1.1588    0.0002 H       1  LIG1        0.1072
     10 C           3.2197    3.7462    0.0001 C.1     1  LIG1       -0.0654
     11 C           4.3767    4.1034    0.0001 C.1     1  LIG1       -0.1138
     12 H           5.3874    4.4406   -0.0001 H       1  LIG1        0.1232
@<TRIPOS>BOND
     1     5     4   ar
     2     5     1   ar
     3    12    11    1
     4     7     4    1
     5     4     3   ar
     6     6     1    1
     7     1     2   ar
     8     3     2   ar
     9     3    10    1
    10     2     8    1
    11    10    11    3
    12     8     9    1
