@<TRIPOS>MOLECULE
mol_data/opt/b3lyp/geoms/mol2/12ge12ge12ge-12ge-.out
 42 45 0 0 0
SMALL
GASTEIGER

@<TRIPOS>ATOM
      1 C           0.6306    2.0689    1.7646 C.ar    1  LIG1        0.1071
      2 C           1.7837    1.8978    1.0619 C.ar    1  LIG1        0.0587
      3 C           2.0127    3.1421    0.3561 C.ar    1  LIG1        0.0866
      4 C           0.9696    3.9786    0.7182 C.ar    1  LIG1        0.1872
      5 O           0.1322    3.3255    1.5718 O.2     1  LIG1       -0.4574
      6 H           0.0593    1.4270    2.4153 H       1  LIG1        0.1041
      7 S           2.8004    0.4518    1.0221 S.3     1  LIG1       -0.1384
      8 H           3.5445    0.8652   -0.0246 H       1  LIG1        0.1072
      9 C           3.0442    3.3728   -0.5815 C.1     1  LIG1       -0.0647
     10 C           3.9357    3.5056   -1.3909 C.1     1  LIG1       -0.1138
     11 H           4.7086    3.6590   -2.1080 H       1  LIG1        0.1232
     12 C           0.6214    5.3340    0.3877 C.ar    1  LIG1        0.1863
     13 C           1.3389    6.4745    0.1044 C.ar    1  LIG1        0.0699
     14 C           0.3668    7.5182   -0.1258 C.ar    1  LIG1        0.0874
     15 C          -0.8753    6.9378    0.0747 C.ar    1  LIG1        0.1882
     16 O          -0.7251    5.6194    0.3678 O.2     1  LIG1       -0.4461
     17 S           3.0906    6.6734    0.0480 S.3     1  LIG1       -0.1377
     18 H           3.0381    8.0153    0.1885 H       1  LIG1        0.1073
     19 C           0.6625    8.8404   -0.5273 C.1     1  LIG1       -0.0646
     20 C           0.9679    9.9574   -0.8821 C.1     1  LIG1       -0.1138
     21 H           1.2032   10.9450   -1.2052 H       1  LIG1        0.1232
     22 C          -2.2231    7.4339    0.0321 C.ar    1  LIG1        0.1863
     23 C          -2.8250    8.6366    0.3304 C.ar    1  LIG1        0.0699
     24 C          -4.2373    8.4537    0.0859 C.ar    1  LIG1        0.0874
     25 C          -4.3920    7.1348   -0.3079 C.ar    1  LIG1        0.1882
     26 O          -3.1812    6.5228   -0.3549 O.2     1  LIG1       -0.4461
     27 S          -2.0763   10.1170    0.9282 S.3     1  LIG1       -0.1377
     28 H          -3.2396   10.6307    1.3822 H       1  LIG1        0.1073
     29 C          -5.2257    9.4585    0.1890 C.1     1  LIG1       -0.0646
     30 C          -6.0335   10.3561    0.2808 C.1     1  LIG1       -0.1138
     31 H          -6.7662   11.1273    0.3424 H       1  LIG1        0.1232
     32 C          -5.5309    6.3312   -0.6611 C.ar    1  LIG1        0.1852
     33 C          -6.8471    6.2810   -0.2580 C.ar    1  LIG1        0.0691
     34 C          -7.4512    5.1913   -0.9984 C.ar    1  LIG1        0.0762
     35 C          -6.4496    4.6678   -1.7737 C.ar    1  LIG1        0.1092
     36 O          -5.2967    5.3385   -1.5919 O.2     1  LIG1       -0.4574
     37 H          -6.4284    3.8471   -2.4733 H       1  LIG1        0.1042
     38 S          -7.6633    7.2719    0.9506 S.3     1  LIG1       -0.1377
     39 H          -8.6806    6.3987    1.1137 H       1  LIG1        0.1073
     40 C          -8.7920    4.7457   -0.9014 C.1     1  LIG1       -0.0654
     41 C          -9.9422    4.3864   -0.7878 C.1     1  LIG1       -0.1138
     42 H         -10.9535    4.0606   -0.7061 H       1  LIG1        0.1232
@<TRIPOS>BOND
     1    37    35    1
     2    11    10    1
     3    35    36   ar
     4    35    34   ar
     5    36    32   ar
     6    10     9    3
     7    21    20    1
     8    34    40    1
     9    34    33   ar
    10    40    41    3
    11    20    19    3
    12    41    42    1
    13    32    25    1
    14    32    33   ar
    15     9     3    1
    16    19    14    1
    17    26    25   ar
    18    26    22   ar
    19    25    24   ar
    20    33    38    1
    21    14    15   ar
    22    14    13   ar
    23     8     7    1
    24    22    15    1
    25    22    23   ar
    26    17    13    1
    27    17    18    1
    28    15    16   ar
    29    24    29    1
    30    24    23   ar
    31    13    12   ar
    32    29    30    3
    33    30    31    1
    34    23    27    1
    35     3     4   ar
    36     3     2   ar
    37    16    12   ar
    38    12     4    1
    39     4     5   ar
    40    27    28    1
    41    38    39    1
    42     7     2    1
    43     2     1   ar
    44     5     1   ar
    45     1     6    1
