@<TRIPOS>MOLECULE
mol_data/opt/b3lyp/geoms/mol2/12ge12ge12ge12ge-.out
 42 45 0 0 0
SMALL
GASTEIGER

@<TRIPOS>ATOM
      1 C           0.6008    1.6737    0.1470 C.ar    1  LIG1        0.1071
      2 C           1.9163    1.7931   -0.1810 C.ar    1  LIG1        0.0587
      3 C           2.1895    3.2149   -0.2375 C.ar    1  LIG1        0.0866
      4 C           0.9973    3.8408    0.0889 C.ar    1  LIG1        0.1872
      5 O           0.0346    2.9049    0.3195 O.2     1  LIG1       -0.4574
      6 H          -0.0522    0.8280    0.2883 H       1  LIG1        0.1041
      7 S           3.0628    0.4803   -0.4774 S.3     1  LIG1       -0.1384
      8 H           4.0362    1.2860   -0.9506 H       1  LIG1        0.1072
      9 C           3.4095    3.7979   -0.6466 C.1     1  LIG1       -0.0647
     10 C           4.4722    4.2400   -1.0248 C.1     1  LIG1       -0.1138
     11 H           5.3929    4.6649   -1.3520 H       1  LIG1        0.1232
     12 C           0.6043    5.2164    0.2274 C.ar    1  LIG1        0.1863
     13 C           1.2404    6.3650    0.6427 C.ar    1  LIG1        0.0699
     14 C           0.2510    7.4166    0.5928 C.ar    1  LIG1        0.0874
     15 C          -0.9177    6.8241    0.1409 C.ar    1  LIG1        0.1882
     16 O          -0.7070    5.5007   -0.0819 O.2     1  LIG1       -0.4461
     17 S           2.8986    6.5450    1.2152 S.3     1  LIG1       -0.1377
     18 H           2.6481    7.7086    1.8541 H       1  LIG1        0.1073
     19 C           0.4390    8.7396    1.0524 C.1     1  LIG1       -0.0646
     20 C           0.6445    9.8529    1.4831 C.1     1  LIG1       -0.1138
     21 H           0.7928   10.8419    1.8507 H       1  LIG1        0.1232
     22 C          -2.2395    7.3174   -0.1250 C.ar    1  LIG1        0.1863
     23 C          -2.7542    8.5171   -0.5671 C.ar    1  LIG1        0.0699
     24 C          -4.1821    8.3273   -0.6773 C.ar    1  LIG1        0.0874
     25 C          -4.4290    7.0217   -0.2852 C.ar    1  LIG1        0.1882
     26 O          -3.2628    6.4123    0.0493 O.2     1  LIG1       -0.4461
     27 S          -1.8810    9.9819   -1.0130 S.3     1  LIG1       -0.1377
     28 H          -2.9048   10.4785   -1.7411 H       1  LIG1        0.1073
     29 C          -5.0947    9.2662   -1.2093 C.1     1  LIG1       -0.0646
     30 C          -5.8314   10.0957   -1.6953 C.1     1  LIG1       -0.1138
     31 H          -6.5071   10.8048   -2.1150 H       1  LIG1        0.1232
     32 C          -5.6240    6.2329   -0.1639 C.ar    1  LIG1        0.1852
     33 C          -6.9365    6.5036    0.1565 C.ar    1  LIG1        0.0691
     34 C          -7.6243    5.2283    0.1362 C.ar    1  LIG1        0.0762
     35 C          -6.6707    4.2960   -0.1800 C.ar    1  LIG1        0.1092
     36 O          -5.4709    4.8764   -0.3695 O.2     1  LIG1       -0.4574
     37 H          -6.7155    3.2248   -0.2980 H       1  LIG1        0.1042
     38 S          -7.6663    8.0534    0.5729 S.3     1  LIG1       -0.1377
     39 H          -8.7403    7.4924    1.1693 H       1  LIG1        0.1073
     40 C          -8.9925    5.0024    0.4241 C.1     1  LIG1       -0.0654
     41 C         -10.1641    4.8445    0.6836 C.1     1  LIG1       -0.1138
     42 H         -11.1951    4.6875    0.9025 H       1  LIG1        0.1232
@<TRIPOS>BOND
     1    31    30    1
     2    28    27    1
     3    30    29    3
     4    11    10    1
     5    29    24    1
     6    10     9    3
     7    27    23    1
     8     8     7    1
     9    24    23   ar
    10    24    25   ar
    11     9     3    1
    12    23    22   ar
    13     7     2    1
    14    36    35   ar
    15    36    32   ar
    16    37    35    1
    17    25    32    1
    18    25    26   ar
    19     3     2   ar
    20     3     4   ar
    21     2     1   ar
    22    35    34   ar
    23    32    33   ar
    24    22    26   ar
    25    22    15    1
    26    16    15   ar
    27    16    12   ar
    28     4    12    1
    29     4     5   ar
    30    34    33   ar
    31    34    40    1
    32    15    14   ar
    33     1     6    1
    34     1     5   ar
    35    33    38    1
    36    12    13   ar
    37    40    41    3
    38    38    39    1
    39    14    13   ar
    40    14    19    1
    41    13    17    1
    42    41    42    1
    43    19    20    3
    44    17    18    1
    45    20    21    1
