@<TRIPOS>MOLECULE
mol_data/opt/b3lyp/geoms/mol2/12ge12ge-12ge12ge.out
 42 45 0 0 0
SMALL
GASTEIGER

@<TRIPOS>ATOM
      1 C           0.6087    1.6775    0.1585 C.ar    1  LIG1        0.1071
      2 C           1.9180    1.7971   -0.1934 C.ar    1  LIG1        0.0587
      3 C           2.1882    3.2188   -0.2615 C.ar    1  LIG1        0.0866
      4 C           1.0011    3.8448    0.0831 C.ar    1  LIG1        0.1872
      5 O           0.0439    2.9088    0.3351 O.2     1  LIG1       -0.4574
      6 H          -0.0405    0.8316    0.3156 H       1  LIG1        0.1041
      7 S           3.0610    0.4843   -0.5040 S.3     1  LIG1       -0.1384
      8 H           4.0249    1.2891   -0.9976 H       1  LIG1        0.1072
      9 C           3.3999    3.8018   -0.6947 C.1     1  LIG1       -0.0647
     10 C           4.4550    4.2439   -1.0936 C.1     1  LIG1       -0.1138
     11 H           5.3690    4.6686   -1.4391 H       1  LIG1        0.1232
     12 C           0.6089    5.2206    0.2214 C.ar    1  LIG1        0.1863
     13 C           1.2504    6.3716    0.6212 C.ar    1  LIG1        0.0699
     14 C           0.2592    7.4220    0.5831 C.ar    1  LIG1        0.0874
     15 C          -0.9162    6.8263    0.1530 C.ar    1  LIG1        0.1882
     16 O          -0.7077    5.5022   -0.0675 O.2     1  LIG1       -0.4461
     17 S           2.9179    6.5555    1.1649 S.3     1  LIG1       -0.1377
     18 H           2.6763    7.7194    1.8067 H       1  LIG1        0.1073
     19 C           0.4532    8.7470    1.0341 C.1     1  LIG1       -0.0646
     20 C           0.6644    9.8623    1.4569 C.1     1  LIG1       -0.1138
     21 H           0.8173   10.8531    1.8178 H       1  LIG1        0.1232
     22 C          -2.2425    7.3171   -0.0937 C.ar    1  LIG1        0.1863
     23 C          -2.7658    8.5146   -0.5318 C.ar    1  LIG1        0.0699
     24 C          -4.1950    8.3226   -0.6186 C.ar    1  LIG1        0.0874
     25 C          -4.4339    7.0181   -0.2180 C.ar    1  LIG1        0.1882
     26 O          -3.2618    6.4113    0.1000 O.2     1  LIG1       -0.4461
     27 S          -1.9018    9.9786   -0.9973 S.3     1  LIG1       -0.1377
     28 H          -2.9387   10.4721   -1.7089 H       1  LIG1        0.1073
     29 C          -5.1172    9.2585   -1.1394 C.1     1  LIG1       -0.0646
     30 C          -5.8625   10.0854   -1.6165 C.1     1  LIG1       -0.1138
     31 H          -6.5456   10.7922   -2.0281 H       1  LIG1        0.1232
     32 C          -5.6258    6.2284   -0.0745 C.ar    1  LIG1        0.1852
     33 C          -6.9335    6.4986    0.2658 C.ar    1  LIG1        0.0691
     34 C          -7.6196    5.2223    0.2618 C.ar    1  LIG1        0.0762
     35 C          -6.6699    4.2900   -0.0657 C.ar    1  LIG1        0.1092
     36 O          -5.4741    4.8712   -0.2768 O.2     1  LIG1       -0.4574
     37 H          -6.7151    3.2183   -0.1786 H       1  LIG1        0.1042
     38 S          -7.6588    8.0491    0.6875 S.3     1  LIG1       -0.1377
     39 H          -8.7228    7.4890    1.3023 H       1  LIG1        0.1073
     40 C          -8.9827    4.9957    0.5724 C.1     1  LIG1       -0.0654
     41 C         -10.1498    4.8374    0.8511 C.1     1  LIG1       -0.1138
     42 H         -11.1771    4.6798    1.0868 H       1  LIG1        0.1232
@<TRIPOS>BOND
     1    31    30    1
     2    28    27    1
     3    30    29    3
     4    11    10    1
     5    29    24    1
     6    10     9    3
     7     8     7    1
     8    27    23    1
     9     9     3    1
    10    24    23   ar
    11    24    25   ar
    12    23    22   ar
    13     7     2    1
    14    36    32   ar
    15    36    35   ar
    16     3     2   ar
    17     3     4   ar
    18    25    32    1
    19    25    26   ar
    20     2     1   ar
    21    37    35    1
    22    22    26   ar
    23    22    15    1
    24    32    33   ar
    25    16    15   ar
    26    16    12   ar
    27    35    34   ar
    28     4    12    1
    29     4     5   ar
    30    15    14   ar
    31     1     6    1
    32     1     5   ar
    33    12    13   ar
    34    34    33   ar
    35    34    40    1
    36    33    38    1
    37    40    41    3
    38    14    13   ar
    39    14    19    1
    40    13    17    1
    41    38    39    1
    42    41    42    1
    43    19    20    3
    44    17    18    1
    45    20    21    1
