@<TRIPOS>MOLECULE
mol_data/opt/b3lyp/geoms/mol2/12ge12ge12ge.out
 32 34 0 0 0
SMALL
GASTEIGER

@<TRIPOS>ATOM
      1 C           0.4093    1.7516    0.6555 C.ar    1  LIG1        0.1071
      2 C           1.6514    1.7678    0.0995 C.ar    1  LIG1        0.0587
      3 C           1.9504    3.1583   -0.1770 C.ar    1  LIG1        0.0866
      4 C           0.8503    3.8753    0.2644 C.ar    1  LIG1        0.1872
      5 O          -0.0844    3.0209    0.7662 O.2     1  LIG1       -0.4574
      6 H          -0.2330    0.9612    1.0082 H       1  LIG1        0.1041
      7 S           2.6906    0.3749   -0.2263 S.3     1  LIG1       -0.1384
      8 H           3.6113    1.0813   -0.9147 H       1  LIG1        0.1072
      9 C           3.0987    3.6300   -0.8513 C.1     1  LIG1       -0.0647
     10 C           4.0936    3.9732   -1.4515 C.1     1  LIG1       -0.1138
     11 H           4.9565    4.3118   -1.9769 H       1  LIG1        0.1232
     12 C           0.5246    5.2751    0.2943 C.ar    1  LIG1        0.1863
     13 C           1.2522    6.4330    0.4541 C.ar    1  LIG1        0.0699
     14 C           0.2964    7.5170    0.4387 C.ar    1  LIG1        0.0874
     15 C          -0.9463    6.9316    0.2629 C.ar    1  LIG1        0.1882
     16 O          -0.8122    5.5831    0.1719 O.2     1  LIG1       -0.4461
     17 S           2.9879    6.6011    0.7172 S.3     1  LIG1       -0.1377
     18 H           2.8811    7.8427    1.2382 H       1  LIG1        0.1073
     19 C           0.5935    8.8757    0.6897 C.1     1  LIG1       -0.0646
     20 C           0.8958   10.0227    0.9346 C.1     1  LIG1       -0.1138
     21 H           1.1292   11.0413    1.1429 H       1  LIG1        0.1232
     22 C          -2.2814    7.4537    0.1574 C.ar    1  LIG1        0.1852
     23 C          -2.8328    8.6103   -0.3484 C.ar    1  LIG1        0.0691
     24 C          -4.2651    8.4834   -0.1674 C.ar    1  LIG1        0.0762
     25 C          -4.4594    7.2591    0.4171 C.ar    1  LIG1        0.1092
     26 O          -3.2866    6.6311    0.6256 O.2     1  LIG1       -0.4574
     27 H          -5.3511    6.7363    0.7250 H       1  LIG1        0.1042
     28 S          -2.0141    9.9681   -1.1196 S.3     1  LIG1       -0.1377
     29 H          -3.1347   10.4227   -1.7208 H       1  LIG1        0.1073
     30 C          -5.2519    9.4224   -0.5550 C.1     1  LIG1       -0.0654
     31 C          -6.0693   10.2433   -0.9058 C.1     1  LIG1       -0.1138
     32 H          -6.8022   10.9581   -1.2015 H       1  LIG1        0.1232
@<TRIPOS>BOND
     1    11    10    1
     2    29    28    1
     3    10     9    3
     4    32    31    1
     5    28    23    1
     6     8     7    1
     7    31    30    3
     8     9     3    1
     9    30    24    1
    10    23    24   ar
    11    23    22   ar
    12     7     2    1
    13     3     2   ar
    14     3     4   ar
    15    24    25   ar
    16     2     1   ar
    17    22    15    1
    18    22    26   ar
    19    16    15   ar
    20    16    12   ar
    21    15    14   ar
    22     4    12    1
    23     4     5   ar
    24    12    13   ar
    25    25    26   ar
    26    25    27    1
    27    14    13   ar
    28    14    19    1
    29    13    17    1
    30     1     5   ar
    31     1     6    1
    32    19    20    3
    33    17    18    1
    34    20    21    1
