@<TRIPOS>MOLECULE
mol_data/opt/b3lyp/geoms/mol2/12ge12ge-12ge-.out
 32 34 0 0 0
SMALL
GASTEIGER

@<TRIPOS>ATOM
      1 C           0.4047    1.7466   -0.6424 C.ar    1  LIG1        0.1071
      2 C           1.6421    1.7625   -0.0760 C.ar    1  LIG1        0.0587
      3 C           1.9419    3.1536    0.1966 C.ar    1  LIG1        0.0866
      4 C           0.8471    3.8710   -0.2574 C.ar    1  LIG1        0.1872
      5 O          -0.0852    3.0164   -0.7631 O.2     1  LIG1       -0.4574
      6 H          -0.2364    0.9560   -0.9968 H       1  LIG1        0.1041
      7 S           2.6753    0.3690    0.2649 S.3     1  LIG1       -0.1384
      8 H           3.5914    1.0763    0.9585 H       1  LIG1        0.1072
      9 C           3.0855    3.6260    0.8784 C.1     1  LIG1       -0.0647
     10 C           4.0761    3.9696    1.4853 C.1     1  LIG1       -0.1138
     11 H           4.9354    4.3087    2.0162 H       1  LIG1        0.1232
     12 C           0.5249    5.2715   -0.2964 C.ar    1  LIG1        0.1863
     13 C           1.2563    6.4270   -0.4555 C.ar    1  LIG1        0.0699
     14 C           0.3028    7.5131   -0.4530 C.ar    1  LIG1        0.0874
     15 C          -0.9426    6.9313   -0.2850 C.ar    1  LIG1        0.1882
     16 O          -0.8123    5.5829   -0.1867 O.2     1  LIG1       -0.4461
     17 S           2.9947    6.5901   -0.7046 S.3     1  LIG1       -0.1377
     18 H           2.8950    7.8294   -1.2323 H       1  LIG1        0.1073
     19 C           0.6049    8.8701   -0.7077 C.1     1  LIG1       -0.0646
     20 C           0.9118   10.0153   -0.9552 C.1     1  LIG1       -0.1138
     21 H           1.1490   11.0325   -1.1661 H       1  LIG1        0.1232
     22 C          -2.2773    7.4568   -0.1931 C.ar    1  LIG1        0.1852
     23 C          -2.8302    8.6171    0.3028 C.ar    1  LIG1        0.0691
     24 C          -4.2612    8.4926    0.1102 C.ar    1  LIG1        0.0762
     25 C          -4.4535    7.2663   -0.4705 C.ar    1  LIG1        0.1092
     26 O          -3.2805    6.6346   -0.6662 O.2     1  LIG1       -0.4574
     27 H          -5.3439    6.7442   -0.7835 H       1  LIG1        0.1042
     28 S          -2.0149    9.9762    1.0749 S.3     1  LIG1       -0.1377
     29 H          -3.1396   10.4363    1.6642 H       1  LIG1        0.1073
     30 C          -5.2491    9.4357    0.4852 C.1     1  LIG1       -0.0654
     31 C          -6.0674   10.2600    0.8254 C.1     1  LIG1       -0.1138
     32 H          -6.8011   10.9778    1.1118 H       1  LIG1        0.1232
@<TRIPOS>BOND
     1    18    17    1
     2    21    20    1
     3     6     1    1
     4    20    19    3
     5    27    25    1
     6     5     1   ar
     7     5     4   ar
     8    19    14    1
     9    17    13    1
    10    26    25   ar
    11    26    22   ar
    12     1     2   ar
    13    25    24   ar
    14    13    14   ar
    15    13    12   ar
    16    14    15   ar
    17    12     4    1
    18    12    16   ar
    19    15    22    1
    20    15    16   ar
    21     4     3   ar
    22    22    23   ar
    23     2     3   ar
    24     2     7    1
    25    24    23   ar
    26    24    30    1
    27     3     9    1
    28     7     8    1
    29    23    28    1
    30    30    31    3
    31    31    32    1
    32     9    10    3
    33    28    29    1
    34    10    11    1
