@<TRIPOS>MOLECULE
mol_data/opt/b3lyp/geoms/mol2/12ge12ge-12ge-12ge-.out
 42 45 0 0 0
SMALL
GASTEIGER

@<TRIPOS>ATOM
      1 C           0.5995    1.6702   -0.1114 C.ar    1  LIG1        0.1071
      2 C           1.9089    1.7911    0.2396 C.ar    1  LIG1        0.0587
      3 C           2.1823    3.2130    0.2901 C.ar    1  LIG1        0.0866
      4 C           0.9968    3.8374   -0.0628 C.ar    1  LIG1        0.1872
      5 O           0.0377    2.9005   -0.3037 O.2     1  LIG1       -0.4574
      6 H          -0.0516    0.8239   -0.2582 H       1  LIG1        0.1041
      7 S           3.0486    0.4798    0.5671 S.3     1  LIG1       -0.1384
      8 H           4.0137    1.2883    1.0522 H       1  LIG1        0.1072
      9 C           3.3953    3.7984    0.7166 C.1     1  LIG1       -0.0647
     10 C           4.4513    4.2427    1.1105 C.1     1  LIG1       -0.1138
     11 H           5.3663    4.6694    1.4511 H       1  LIG1        0.1232
     12 C           0.6076    5.2122   -0.2186 C.ar    1  LIG1        0.1863
     13 C           1.2519    6.3570   -0.6318 C.ar    1  LIG1        0.0699
     14 C           0.2627    7.4097   -0.6077 C.ar    1  LIG1        0.0874
     15 C          -0.9143    6.8216   -0.1717 C.ar    1  LIG1        0.1882
     16 O          -0.7087    5.4999    0.0653 O.2     1  LIG1       -0.4461
     17 S           2.9204    6.5311   -1.1757 S.3     1  LIG1       -0.1377
     18 H           2.6820    7.6883   -1.8308 H       1  LIG1        0.1073
     19 C           0.4598    8.7288   -1.0745 C.1     1  LIG1       -0.0646
     20 C           0.6736    9.8384   -1.5106 C.1     1  LIG1       -0.1138
     21 H           0.8288   10.8245   -1.8833 H       1  LIG1        0.1232
     22 C          -2.2400    7.3181    0.0672 C.ar    1  LIG1        0.1863
     23 C          -2.7612    8.5218    0.4905 C.ar    1  LIG1        0.0699
     24 C          -4.1910    8.3341    0.5773 C.ar    1  LIG1        0.0874
     25 C          -4.4322    7.0256    0.1914 C.ar    1  LIG1        0.1882
     26 O          -3.2610    6.4125   -0.1177 O.2     1  LIG1       -0.4461
     27 S          -1.8944    9.9893    0.9403 S.3     1  LIG1       -0.1377
     28 H          -2.9302   10.4922    1.6468 H       1  LIG1        0.1073
     29 C          -5.1118    9.2781    1.0856 C.1     1  LIG1       -0.0646
     30 C          -5.8559   10.1122    1.5521 C.1     1  LIG1       -0.1138
     31 H          -6.5380   10.8252    1.9544 H       1  LIG1        0.1232
     32 C          -5.6257    6.2369    0.0550 C.ar    1  LIG1        0.1852
     33 C          -6.9322    6.5061   -0.2906 C.ar    1  LIG1        0.0691
     34 C          -7.6211    5.2314   -0.2735 C.ar    1  LIG1        0.0762
     35 C          -6.6739    4.3008    0.0661 C.ar    1  LIG1        0.1092
     36 O          -5.4773    4.8818    0.2727 O.2     1  LIG1       -0.4574
     37 H          -6.7215    3.2305    0.1910 H       1  LIG1        0.1042
     38 S          -7.6534    8.0532   -0.7309 S.3     1  LIG1       -0.1377
     39 H          -8.7182    7.4885   -1.3403 H       1  LIG1        0.1073
     40 C          -8.9841    5.0042   -0.5839 C.1     1  LIG1       -0.0654
     41 C         -10.1511    4.8453   -0.8629 C.1     1  LIG1       -0.1138
     42 H         -11.1782    4.6874   -1.0986 H       1  LIG1        0.1232
@<TRIPOS>BOND
     1    21    20    1
     2    18    17    1
     3    20    19    3
     4    39    38    1
     5    17    13    1
     6    42    41    1
     7    19    14    1
     8    41    40    3
     9    38    33    1
    10    13    14   ar
    11    13    12   ar
    12    14    15   ar
    13    40    34    1
    14     5     1   ar
    15     5     4   ar
    16    33    34   ar
    17    33    32   ar
    18    34    35   ar
    19     6     1    1
    20    12     4    1
    21    12    16   ar
    22    15    16   ar
    23    15    22    1
    24    26    22   ar
    25    26    25   ar
    26     1     2   ar
    27     4     3   ar
    28    32    25    1
    29    32    36   ar
    30    35    37    1
    31    35    36   ar
    32    22    23   ar
    33    25    24   ar
    34     2     3   ar
    35     2     7    1
    36     3     9    1
    37    23    24   ar
    38    23    27    1
    39     7     8    1
    40    24    29    1
    41     9    10    3
    42    27    28    1
    43    29    30    3
    44    10    11    1
    45    30    31    1
