@<TRIPOS>MOLECULE
mol_data/opt/b3lyp/geoms/mol2/12ge12ge12ge12ge.out
 42 45 0 0 0
SMALL
GASTEIGER

@<TRIPOS>ATOM
      1 C           0.5978    1.6711    0.1365 C.ar    1  LIG1        0.1071
      2 C           1.9132    1.7906   -0.1918 C.ar    1  LIG1        0.0587
      3 C           2.1874    3.2123   -0.2442 C.ar    1  LIG1        0.0866
      4 C           0.9958    3.8381    0.0848 C.ar    1  LIG1        0.1872
      5 O           0.0326    2.9023    0.3131 O.2     1  LIG1       -0.4574
      6 H          -0.0558    0.8254    0.2758 H       1  LIG1        0.1041
      7 S           3.0587    0.4778   -0.4928 S.3     1  LIG1       -0.1384
      8 H           4.0320    1.2841   -0.9650 H       1  LIG1        0.1072
      9 C           3.4076    3.7959   -0.6519 C.1     1  LIG1       -0.0647
     10 C           4.4704    4.2385   -1.0292 C.1     1  LIG1       -0.1138
     11 H           5.3912    4.6637   -1.3555 H       1  LIG1        0.1232
     12 C           0.6038    5.2136    0.2272 C.ar    1  LIG1        0.1863
     13 C           1.2406    6.3604    0.6464 C.ar    1  LIG1        0.0699
     14 C           0.2519    7.4128    0.6000 C.ar    1  LIG1        0.0874
     15 C          -0.9172    6.8225    0.1460 C.ar    1  LIG1        0.1882
     16 O          -0.7073    5.4997   -0.0812 O.2     1  LIG1       -0.4461
     17 S           2.8992    6.5372    1.2190 S.3     1  LIG1       -0.1377
     18 H           2.6491    7.6972    1.8648 H       1  LIG1        0.1073
     19 C           0.4406    8.7341    1.0642 C.1     1  LIG1       -0.0646
     20 C           0.6465    9.8457    1.4989 C.1     1  LIG1       -0.1138
     21 H           0.7951   10.8335    1.8698 H       1  LIG1        0.1232
     22 C          -2.2384    7.3177   -0.1187 C.ar    1  LIG1        0.1863
     23 C          -2.7522    8.5192   -0.5570 C.ar    1  LIG1        0.0699
     24 C          -4.1801    8.3309   -0.6684 C.ar    1  LIG1        0.0874
     25 C          -4.4281    7.0242   -0.2808 C.ar    1  LIG1        0.1882
     26 O          -3.2625    6.4127    0.0522 O.2     1  LIG1       -0.4461
     27 S          -1.8776    9.9848   -0.9979 S.3     1  LIG1       -0.1377
     28 H          -2.9010   10.4846   -1.7245 H       1  LIG1        0.1073
     29 C          -5.0918    9.2723   -1.1976 C.1     1  LIG1       -0.0646
     30 C          -5.8277   10.1039   -1.6813 C.1     1  LIG1       -0.1138
     31 H          -6.5026   10.8148   -2.0991 H       1  LIG1        0.1232
     32 C          -5.6238    6.2360   -0.1619 C.ar    1  LIG1        0.1852
     33 C          -6.9362    6.5066    0.1590 C.ar    1  LIG1        0.0691
     34 C          -7.6247    5.2318    0.1355 C.ar    1  LIG1        0.0762
     35 C          -6.6715    4.2997   -0.1828 C.ar    1  LIG1        0.1092
     36 O          -5.4714    4.8798   -0.3707 O.2     1  LIG1       -0.4574
     37 H          -6.7170    3.2288   -0.3036 H       1  LIG1        0.1042
     38 S          -7.6652    8.0557    0.5792 S.3     1  LIG1       -0.1377
     39 H          -8.7404    7.4937    1.1725 H       1  LIG1        0.1073
     40 C          -8.9930    5.0059    0.4226 C.1     1  LIG1       -0.0654
     41 C         -10.1648    4.8481    0.6814 C.1     1  LIG1       -0.1138
     42 H         -11.1960    4.6913    0.8994 H       1  LIG1        0.1232
@<TRIPOS>BOND
     1    31    30    1
     2    28    27    1
     3    30    29    3
     4    11    10    1
     5    29    24    1
     6    10     9    3
     7    27    23    1
     8     8     7    1
     9    24    23   ar
    10    24    25   ar
    11     9     3    1
    12    23    22   ar
    13     7     2    1
    14    36    35   ar
    15    36    32   ar
    16    37    35    1
    17    25    32    1
    18    25    26   ar
    19     3     2   ar
    20     3     4   ar
    21     2     1   ar
    22    35    34   ar
    23    32    33   ar
    24    22    26   ar
    25    22    15    1
    26    16    15   ar
    27    16    12   ar
    28     4    12    1
    29     4     5   ar
    30    34    33   ar
    31    34    40    1
    32     1     6    1
    33     1     5   ar
    34    15    14   ar
    35    33    38    1
    36    12    13   ar
    37    40    41    3
    38    38    39    1
    39    14    13   ar
    40    14    19    1
    41    13    17    1
    42    41    42    1
    43    19    20    3
    44    17    18    1
    45    20    21    1
