@<TRIPOS>MOLECULE
mol_data/opt/b3lyp/geoms/mol2/12ge12ge-12ge.out
 32 34 0 0 0
SMALL
GASTEIGER

@<TRIPOS>ATOM
      1 C           0.1197    1.8638    0.0001 C.ar    1  LIG1        0.1071
      2 C           1.4760    1.7733    0.0000 C.ar    1  LIG1        0.0587
      3 C           1.9751    3.1359   -0.0000 C.ar    1  LIG1        0.0866
      4 C           0.8481    3.9508   -0.0000 C.ar    1  LIG1        0.1872
      5 O          -0.2699    3.1717    0.0000 O.2     1  LIG1       -0.4574
      6 H          -0.6728    1.1335    0.0001 H       1  LIG1        0.1041
      7 S           2.4398    0.2918    0.0001 S.3     1  LIG1       -0.1384
      8 H           3.6266    0.9344    0.0000 H       1  LIG1        0.1072
      9 C           3.3513    3.4544   -0.0001 C.1     1  LIG1       -0.0647
     10 C           4.5557    3.5914   -0.0002 C.1     1  LIG1       -0.1138
     11 H           5.6056    3.7727    0.0000 H       1  LIG1        0.1232
     12 C           0.5854    5.3663   -0.0001 C.ar    1  LIG1        0.1863
     13 C           1.3197    6.5343   -0.0000 C.ar    1  LIG1        0.0699
     14 C           0.3618    7.6198   -0.0001 C.ar    1  LIG1        0.0874
     15 C          -0.8951    7.0295   -0.0002 C.ar    1  LIG1        0.1882
     16 O          -0.7552    5.6812   -0.0001 O.2     1  LIG1       -0.4461
     17 S           3.0689    6.7562    0.0001 S.3     1  LIG1       -0.1377
     18 H           2.9778    8.1044    0.0001 H       1  LIG1        0.1073
     19 C           0.7282    8.9846   -0.0001 C.1     1  LIG1       -0.0646
     20 C           1.1599   10.1170   -0.0002 C.1     1  LIG1       -0.1138
     21 H           1.4863   11.1313   -0.0003 H       1  LIG1        0.1232
     22 C          -2.2601    7.4871   -0.0002 C.ar    1  LIG1        0.1852
     23 C          -2.9274    8.6974   -0.0002 C.ar    1  LIG1        0.0691
     24 C          -4.3409    8.3747   -0.0003 C.ar    1  LIG1        0.0762
     25 C          -4.4147    7.0074   -0.0005 C.ar    1  LIG1        0.1092
     26 O          -3.1876    6.4613   -0.0004 O.2     1  LIG1       -0.4574
     27 H          -5.2503    6.3255   -0.0006 H       1  LIG1        0.1042
     28 S          -2.2981   10.3447    0.0001 S.3     1  LIG1       -0.1377
     29 H          -3.5300   10.8994    0.0001 H       1  LIG1        0.1073
     30 C          -5.4163    9.2960   -0.0003 C.1     1  LIG1       -0.0654
     31 C          -6.3109   10.1117   -0.0003 C.1     1  LIG1       -0.1138
     32 H          -7.1128   10.8136   -0.0000 H       1  LIG1        0.1232
@<TRIPOS>BOND
     1    27    25    1
     2    25    26   ar
     3    25    24   ar
     4    26    22   ar
     5    21    20    1
     6    24    30    1
     7    24    23   ar
     8    30    31    3
     9    31    32    1
    10    22    15    1
    11    22    23   ar
    12    20    19    3
    13    15    16   ar
    14    15    14   ar
    15    23    28    1
    16    10     9    3
    17    10    11    1
    18    19    14    1
    19    16    12   ar
    20     9     3    1
    21    14    13   ar
    22    12    13   ar
    23    12     4    1
    24    13    17    1
    25     3     4   ar
    26     3     2   ar
    27     4     5   ar
    28     8     7    1
    29     5     1   ar
    30     2     7    1
    31     2     1   ar
    32     1     6    1
    33    17    18    1
    34    29    28    1
