@<TRIPOS>MOLECULE
mol_data/opt/b3lyp/geoms/mol2/12ge12ge.out
 22 23 0 0 0
SMALL
GASTEIGER

@<TRIPOS>ATOM
      1 C           0.1657    1.8393    0.4412 C.ar    1  LIG1        0.1071
      2 C           1.5117    1.8069    0.2433 C.ar    1  LIG1        0.0587
      3 C           1.9118    3.1739   -0.0240 C.ar    1  LIG1        0.0866
      4 C           0.7543    3.9286    0.0586 C.ar    1  LIG1        0.1872
      5 O          -0.3042    3.1186    0.3401 O.2     1  LIG1       -0.4574
      6 H          -0.5695    1.0796    0.6512 H       1  LIG1        0.1041
      7 S           2.5628    0.3865    0.3033 S.3     1  LIG1       -0.1384
      8 H           3.6383    1.0205   -0.2081 H       1  LIG1        0.1072
      9 C           3.2117    3.5919   -0.3878 C.1     1  LIG1       -0.0647
     10 C           4.3394    3.8902   -0.7143 C.1     1  LIG1       -0.1138
     11 H           5.3207    4.1883   -1.0033 H       1  LIG1        0.1232
     12 C           0.4734    5.3331   -0.0816 C.ar    1  LIG1        0.1852
     13 C           1.1578    6.4898    0.2142 C.ar    1  LIG1        0.0691
     14 C           0.2794    7.5822   -0.1560 C.ar    1  LIG1        0.0762
     15 C          -0.8646    6.9950   -0.6293 C.ar    1  LIG1        0.1092
     16 O          -0.7658    5.6516   -0.6011 O.2     1  LIG1       -0.4574
     17 H          -1.7892    7.4060   -1.0027 H       1  LIG1        0.1042
     18 S           2.7561    6.6564    0.9416 S.3     1  LIG1       -0.1377
     19 H           2.5441    7.9270    1.3467 H       1  LIG1        0.1073
     20 C           0.5456    8.9660   -0.0143 C.1     1  LIG1       -0.0654
     21 C           0.8023   10.1403    0.1279 C.1     1  LIG1       -0.1138
     22 H           1.0148   11.1785    0.2393 H       1  LIG1        0.1232
@<TRIPOS>BOND
     1    11    10    1
     2    17    15    1
     3    10     9    3
     4    15    16   ar
     5    15    14   ar
     6    16    12   ar
     7     9     3    1
     8     8     7    1
     9    14    20    1
    10    14    13   ar
    11    12     4    1
    12    12    13   ar
    13     3     4   ar
    14     3     2   ar
    15    20    21    3
    16     4     5   ar
    17    21    22    1
    18    13    18    1
    19     2     7    1
    20     2     1   ar
    21     5     1   ar
    22     1     6    1
    23    18    19    1
