@<TRIPOS>MOLECULE
mol_data/opt/b3lyp/geoms/mol2/12ge12ge-.out
 22 23 0 0 0
SMALL
GASTEIGER

@<TRIPOS>ATOM
      1 C           0.1225    1.8414    0.0001 C.ar    1  LIG1        0.1071
      2 C           1.4806    1.7896    0.0000 C.ar    1  LIG1        0.0587
      3 C           1.9403    3.1664   -0.0000 C.ar    1  LIG1        0.0866
      4 C           0.7917    3.9479   -0.0001 C.ar    1  LIG1        0.1872
      5 O          -0.3038    3.1385    0.0000 O.2     1  LIG1       -0.4574
      6 H          -0.6492    1.0892    0.0001 H       1  LIG1        0.1041
      7 S           2.4872    0.3366    0.0001 S.3     1  LIG1       -0.1384
      8 H           3.6549    1.0131    0.0000 H       1  LIG1        0.1072
      9 C           3.3062    3.5277   -0.0002 C.1     1  LIG1       -0.0647
     10 C           4.5052    3.7054   -0.0002 C.1     1  LIG1       -0.1138
     11 H           5.5487    3.9207    0.0000 H       1  LIG1        0.1232
     12 C           0.4921    5.3583   -0.0001 C.ar    1  LIG1        0.1852
     13 C           1.1980    6.5444   -0.0000 C.ar    1  LIG1        0.0691
     14 C           0.2049    7.6019   -0.0002 C.ar    1  LIG1        0.0762
     15 C          -1.0119    6.9748   -0.0003 C.ar    1  LIG1        0.1092
     16 O          -0.8619    5.6389   -0.0003 O.2     1  LIG1       -0.4574
     17 H          -2.0227    7.3509   -0.0004 H       1  LIG1        0.1042
     18 S           2.9388    6.8298    0.0003 S.3     1  LIG1       -0.1377
     19 H           2.7992    8.1736    0.0003 H       1  LIG1        0.1073
     20 C           0.4569    8.9955   -0.0001 C.1     1  LIG1       -0.0654
     21 C           0.7092   10.1795   -0.0001 C.1     1  LIG1       -0.1138
     22 H           0.9105   11.2260   -0.0002 H       1  LIG1        0.1232
@<TRIPOS>BOND
     1    17    15    1
     2    15    16   ar
     3    15    14   ar
     4    16    12   ar
     5    10     9    3
     6    10    11    1
     7    22    21    1
     8    14    20    1
     9    14    13   ar
    10     9     3    1
    11    20    21    3
    12    12     4    1
    13    12    13   ar
    14     4     3   ar
    15     4     5   ar
    16     3     2   ar
    17    13    18    1
    18     5     1   ar
    19     8     7    1
    20     2     1   ar
    21     2     7    1
    22     1     6    1
    23    18    19    1
