@<TRIPOS>MOLECULE
mol_data/opt/b3lyp/geoms/mol2/12ge12ge12ge-12ge.out
 42 45 0 0 0
SMALL
GASTEIGER

@<TRIPOS>ATOM
      1 C           0.6360    2.0624    1.7436 C.ar    1  LIG1        0.1071
      2 C           1.7867    1.8938    1.0365 C.ar    1  LIG1        0.0587
      3 C           2.0135    3.1406    0.3343 C.ar    1  LIG1        0.0866
      4 C           0.9718    3.9760    0.7030 C.ar    1  LIG1        0.1872
      5 O           0.1371    3.3199    1.5571 O.2     1  LIG1       -0.4574
      6 H           0.0667    1.4183    2.3938 H       1  LIG1        0.1041
      7 S           2.8032    0.4477    0.9879 S.3     1  LIG1       -0.1384
      8 H           3.5440    0.8652   -0.0595 H       1  LIG1        0.1072
      9 C           3.0419    3.3748   -0.6058 C.1     1  LIG1       -0.0647
     10 C           3.9306    3.5106   -1.4177 C.1     1  LIG1       -0.1138
     11 H           4.7012    3.6667   -2.1368 H       1  LIG1        0.1232
     12 C           0.6227    5.3326    0.3786 C.ar    1  LIG1        0.1863
     13 C           1.3394    6.4741    0.0976 C.ar    1  LIG1        0.0699
     14 C           0.3667    7.5187   -0.1258 C.ar    1  LIG1        0.0874
     15 C          -0.8749    6.9376    0.0760 C.ar    1  LIG1        0.1882
     16 O          -0.7239    5.6182    0.3636 O.2     1  LIG1       -0.4461
     17 S           3.0909    6.6731    0.0369 S.3     1  LIG1       -0.1377
     18 H           3.0389    8.0144    0.1824 H       1  LIG1        0.1073
     19 C           0.6614    8.8424   -0.5232 C.1     1  LIG1       -0.0646
     20 C           0.9660    9.9607   -0.8746 C.1     1  LIG1       -0.1138
     21 H           1.2005   10.9495   -1.1947 H       1  LIG1        0.1232
     22 C          -2.2228    7.4339    0.0392 C.ar    1  LIG1        0.1863
     23 C          -2.8238    8.6356    0.3433 C.ar    1  LIG1        0.0699
     24 C          -4.2368    8.4533    0.1027 C.ar    1  LIG1        0.0874
     25 C          -4.3927    7.1357   -0.2950 C.ar    1  LIG1        0.1882
     26 O          -3.1820    6.5239   -0.3478 O.2     1  LIG1       -0.4461
     27 S          -2.0735   10.1140    0.9436 S.3     1  LIG1       -0.1377
     28 H          -3.2355   10.6262    1.4029 H       1  LIG1        0.1073
     29 C          -5.2250    9.4577    0.2121 C.1     1  LIG1       -0.0646
     30 C          -6.0326   10.3549    0.3092 C.1     1  LIG1       -0.1138
     31 H          -6.7652   11.1258    0.3756 H       1  LIG1        0.1232
     32 C          -5.5326    6.3332   -0.6472 C.ar    1  LIG1        0.1852
     33 C          -6.8476    6.2816   -0.2401 C.ar    1  LIG1        0.0691
     34 C          -7.4538    5.1940   -0.9819 C.ar    1  LIG1        0.0762
     35 C          -6.4546    4.6731   -1.7620 C.ar    1  LIG1        0.1092
     36 O          -5.3013    5.3434   -1.5817 O.2     1  LIG1       -0.4574
     37 H          -6.4355    3.8546   -2.4642 H       1  LIG1        0.1042
     38 S          -7.6600    7.2683    0.9743 S.3     1  LIG1       -0.1377
     39 H          -8.6775    6.3951    1.1366 H       1  LIG1        0.1073
     40 C          -8.7943    4.7480   -0.8821 C.1     1  LIG1       -0.0654
     41 C          -9.9441    4.3881   -0.7660 C.1     1  LIG1       -0.1138
     42 H         -10.9551    4.0619   -0.6821 H       1  LIG1        0.1232
@<TRIPOS>BOND
     1    37    35    1
     2    11    10    1
     3    35    36   ar
     4    35    34   ar
     5    36    32   ar
     6    10     9    3
     7    21    20    1
     8    34    40    1
     9    34    33   ar
    10    40    41    3
    11    20    19    3
    12    41    42    1
    13    32    25    1
    14    32    33   ar
    15     9     3    1
    16    19    14    1
    17    26    25   ar
    18    26    22   ar
    19    25    24   ar
    20    33    38    1
    21    14    15   ar
    22    14    13   ar
    23     8     7    1
    24    17    13    1
    25    17    18    1
    26    22    15    1
    27    22    23   ar
    28    15    16   ar
    29    13    12   ar
    30    24    29    1
    31    24    23   ar
    32    29    30    3
    33    30    31    1
    34     3     4   ar
    35     3     2   ar
    36    23    27    1
    37    16    12   ar
    38    12     4    1
    39     4     5   ar
    40    27    28    1
    41    38    39    1
    42     7     2    1
    43     2     1   ar
    44     5     1   ar
    45     1     6    1
