@<TRIPOS>MOLECULE
mol_data/opt/b3lyp/geoms/mol2/12gf12gf12gf12gf-.out
 38 41 0 0 0
SMALL
GASTEIGER

@<TRIPOS>ATOM
      1 C           0.4004    1.8199   -0.0289 C.ar    1  LIG1        0.1096
      2 C           1.7647    1.8681   -0.0337 C.ar    1  LIG1        0.0849
      3 C           2.1090    3.2610   -0.0406 C.ar    1  LIG1        0.1792
      4 C           0.9140    3.9651   -0.0399 C.ar    1  LIG1        0.2131
      5 O          -0.1323    3.0614   -0.0450 O.2     1  LIG1       -0.4549
      6 H          -0.2978    0.9977   -0.0240 H       1  LIG1        0.1042
      7 S           2.8731    0.4937   -0.1357 S.3     1  LIG1       -0.1361
      8 H           3.7213    0.9054    0.8294 H       1  LIG1        0.1073
      9 O           3.3859    3.6712   -0.0224 O.3     1  LIG1       -0.5024
     10 H           3.4254    4.6517   -0.0164 H       1  LIG1        0.2923
     11 C           0.5430    5.3510   -0.0434 C.ar    1  LIG1        0.1912
     12 C           1.2407    6.5499   -0.0753 C.ar    1  LIG1        0.0962
     13 C           0.2624    7.5920   -0.0581 C.ar    1  LIG1        0.1800
     14 C          -0.9790    6.9771   -0.0192 C.ar    1  LIG1        0.2142
     15 O          -0.7870    5.6049   -0.0057 O.2     1  LIG1       -0.4435
     16 S           2.9888    6.8165   -0.0458 S.3     1  LIG1       -0.1353
     17 H           3.1854    7.0916   -1.3562 H       1  LIG1        0.1073
     18 O           0.6074    8.8850   -0.1004 O.3     1  LIG1       -0.5024
     19 H          -0.1952    9.4500   -0.0651 H       1  LIG1        0.2923
     20 C          -2.3403    7.4196    0.0096 C.ar    1  LIG1        0.1912
     21 C          -2.9644    8.6585    0.0659 C.ar    1  LIG1        0.0962
     22 C          -4.3721    8.4062    0.0660 C.ar    1  LIG1        0.1800
     23 C          -4.5344    7.0331    0.0119 C.ar    1  LIG1        0.2141
     24 O          -3.2806    6.4442   -0.0277 O.2     1  LIG1       -0.4435
     25 S          -2.2336   10.2684    0.0554 S.3     1  LIG1       -0.1353
     26 H          -2.3147   10.5533    1.3764 H       1  LIG1        0.1073
     27 O          -5.2688    9.4000    0.1393 O.3     1  LIG1       -0.5024
     28 H          -6.1786    9.0368    0.0805 H       1  LIG1        0.2923
     29 C          -5.6508    6.1311   -0.0020 C.ar    1  LIG1        0.1901
     30 C          -7.0270    6.2813   -0.0855 C.ar    1  LIG1        0.0954
     31 C          -7.5741    4.9539   -0.0384 C.ar    1  LIG1        0.1686
     32 C          -6.5225    4.0940    0.0584 C.ar    1  LIG1        0.1352
     33 O          -5.3469    4.8099    0.0863 O.2     1  LIG1       -0.4548
     34 H          -6.4297    3.0217    0.1112 H       1  LIG1        0.1068
     35 S          -7.9760    7.7711   -0.1534 S.3     1  LIG1       -0.1354
     36 H          -8.1668    7.8543   -1.4917 H       1  LIG1        0.1073
     37 O          -8.9082    4.7159   -0.1035 O.3     1  LIG1       -0.5029
     38 H          -9.0669    3.7657   -0.0342 H       1  LIG1        0.2923
@<TRIPOS>BOND
     1    36    35    1
     2    17    16    1
     3    35    30    1
     4     7     2    1
     5     7     8    1
     6    37    31    1
     7    37    38    1
     8    18    19    1
     9    18    13    1
    10    30    31   ar
    11    30    29   ar
    12    12    13   ar
    13    12    16    1
    14    12    11   ar
    15    13    14   ar
    16     5     4   ar
    17     5     1   ar
    18    11     4    1
    19    11    15   ar
    20     3     4   ar
    21     3     2   ar
    22     3     9    1
    23    31    32   ar
    24     2     1   ar
    25     1     6    1
    26    24    20   ar
    27    24    23   ar
    28     9    10    1
    29    14    15   ar
    30    14    20    1
    31    29    23    1
    32    29    33   ar
    33    20    21   ar
    34    23    22   ar
    35    25    21    1
    36    25    26    1
    37    32    33   ar
    38    32    34    1
    39    21    22   ar
    40    22    27    1
    41    28    27    1
