@<TRIPOS>MOLECULE
mol_data/opt/b3lyp/geoms/mol2/12gf12gf-.out
 20 21 0 0 0
SMALL
GASTEIGER

@<TRIPOS>ATOM
      1 C           0.1197    1.8084    0.0001 C.ar    1  LIG1        0.1096
      2 C           1.4825    1.7945    0.0000 C.ar    1  LIG1        0.0849
      3 C           1.8896    3.1694   -0.0001 C.ar    1  LIG1        0.1792
      4 C           0.7370    3.9326   -0.0001 C.ar    1  LIG1        0.2131
      5 O          -0.3474    3.0844    0.0000 O.2     1  LIG1       -0.4549
      6 H          -0.6249    1.0291    0.0001 H       1  LIG1        0.1042
      7 S           2.5628    0.3909    0.0001 S.3     1  LIG1       -0.1361
      8 H           3.6928    1.1242    0.0000 H       1  LIG1        0.1073
      9 O           3.2095    3.4828   -0.0002 O.3     1  LIG1       -0.5024
     10 H           3.3591    4.4383   -0.0003 H       1  LIG1        0.2923
     11 C           0.4186    5.3400   -0.0001 C.ar    1  LIG1        0.1901
     12 C           1.1473    6.5109    0.0000 C.ar    1  LIG1        0.0954
     13 C           0.1912    7.5765   -0.0001 C.ar    1  LIG1        0.1686
     14 C          -1.0451    7.0051   -0.0003 C.ar    1  LIG1        0.1352
     15 O          -0.9160    5.6422   -0.0003 O.2     1  LIG1       -0.4548
     16 H          -2.0496    7.3944   -0.0005 H       1  LIG1        0.1068
     17 S           2.9016    6.7381    0.0004 S.3     1  LIG1       -0.1354
     18 H           2.8716    8.0827    0.0002 H       1  LIG1        0.1073
     19 O           0.5820    8.8814   -0.0001 O.3     1  LIG1       -0.5029
     20 H          -0.1945    9.4551   -0.0002 H       1  LIG1        0.2923
@<TRIPOS>BOND
     1    16    14    1
     2    10     9    1
     3    14    15   ar
     4    14    13   ar
     5    15    11   ar
     6    20    19    1
     7     9     3    1
     8    13    19    1
     9    13    12   ar
    10    11     4    1
    11    11    12   ar
    12     3     4   ar
    13     3     2   ar
    14     4     5   ar
    15     5     1   ar
    16     8     7    1
    17    12    17    1
    18     2     1   ar
    19     2     7    1
    20     1     6    1
    21    18    17    1
