@<TRIPOS>MOLECULE
mol_data/opt/b3lyp/geoms/mol2/12gf12gf-12gf12gf.out
 38 41 0 0 0
SMALL
GASTEIGER

@<TRIPOS>ATOM
      1 C           0.3975    1.8222   -0.1129 C.ar    1  LIG1        0.1096
      2 C           1.7617    1.8696   -0.1302 C.ar    1  LIG1        0.0849
      3 C           2.1076    3.2611   -0.0783 C.ar    1  LIG1        0.1792
      4 C           0.9135    3.9653   -0.0323 C.ar    1  LIG1        0.2131
      5 O          -0.1335    3.0624   -0.0421 O.2     1  LIG1       -0.4549
      6 H          -0.3015    1.0009   -0.1355 H       1  LIG1        0.1042
      7 S           2.8702    0.4916   -0.0981 S.3     1  LIG1       -0.1361
      8 H           3.7001    0.9363   -1.0644 H       1  LIG1        0.1073
      9 O           3.3844    3.6711   -0.1040 O.3     1  LIG1       -0.5024
     10 H           3.4249    4.6511   -0.0732 H       1  LIG1        0.2923
     11 C           0.5441    5.3503    0.0276 C.ar    1  LIG1        0.1912
     12 C           1.2436    6.5468    0.0921 C.ar    1  LIG1        0.0962
     13 C           0.2664    7.5895    0.1276 C.ar    1  LIG1        0.1800
     14 C          -0.9761    6.9772    0.0855 C.ar    1  LIG1        0.2142
     15 O          -0.7859    5.6062    0.0195 O.2     1  LIG1       -0.4435
     16 S           2.9915    6.8134    0.0466 S.3     1  LIG1       -0.1353
     17 H           3.2079    7.0388    1.3633 H       1  LIG1        0.1073
     18 O           0.6134    8.8799    0.2118 O.3     1  LIG1       -0.5024
     19 H          -0.1891    9.4461    0.2094 H       1  LIG1        0.2923
     20 C          -2.3372    7.4213    0.0932 C.ar    1  LIG1        0.1912
     21 C          -2.9606    8.6618    0.0831 C.ar    1  LIG1        0.0962
     22 C          -4.3684    8.4107    0.1017 C.ar    1  LIG1        0.1800
     23 C          -4.5316    7.0366    0.1135 C.ar    1  LIG1        0.2141
     24 O          -3.2779    6.4460    0.1145 O.2     1  LIG1       -0.4435
     25 S          -2.2273   10.2697    0.1371 S.3     1  LIG1       -0.1353
     26 H          -2.3190   10.5953   -1.1738 H       1  LIG1        0.1073
     27 O          -5.2645    9.4077    0.0970 O.3     1  LIG1       -0.5024
     28 H          -6.1748    9.0417    0.1143 H       1  LIG1        0.2923
     29 C          -5.6476    6.1336    0.1243 C.ar    1  LIG1        0.1901
     30 C          -7.0258    6.2801    0.0737 C.ar    1  LIG1        0.0954
     31 C          -7.5681    4.9514    0.1338 C.ar    1  LIG1        0.1686
     32 C          -6.5126    4.0941    0.2076 C.ar    1  LIG1        0.1352
     33 O          -5.3387    4.8131    0.2077 O.2     1  LIG1       -0.4548
     34 H          -6.4158    3.0222    0.2610 H       1  LIG1        0.1068
     35 S          -7.9810    7.7672    0.0448 S.3     1  LIG1       -0.1354
     36 H          -8.2614    7.8255   -1.2789 H       1  LIG1        0.1073
     37 O          -8.9030    4.7108    0.0994 O.3     1  LIG1       -0.5029
     38 H          -9.0586    3.7609    0.1803 H       1  LIG1        0.2923
@<TRIPOS>BOND
     1    36    35    1
     2    26    25    1
     3     8     7    1
     4     6     1    1
     5     2     1   ar
     6     2     7    1
     7     2     3   ar
     8     1     5   ar
     9     9     3    1
    10     9    10    1
    11     3     4   ar
    12     5     4   ar
    13     4    11    1
    14    15    11   ar
    15    15    14   ar
    16    11    12   ar
    17    35    30    1
    18    16    12    1
    19    16    17    1
    20    30    29   ar
    21    30    31   ar
    22    21    20   ar
    23    21    22   ar
    24    21    25    1
    25    14    20    1
    26    14    13   ar
    27    12    13   ar
    28    20    24   ar
    29    27    22    1
    30    27    28    1
    31    37    31    1
    32    37    38    1
    33    22    23   ar
    34    23    24   ar
    35    23    29    1
    36    29    33   ar
    37    13    18    1
    38    31    32   ar
    39    32    33   ar
    40    32    34    1
    41    19    18    1
