@<TRIPOS>MOLECULE
mol_data/opt/b3lyp/geoms/mol2/12gf12gf-12gf12gf-.out
 38 41 0 0 0
SMALL
GASTEIGER

@<TRIPOS>ATOM
      1 C           0.2940    1.7483    0.0006 C.ar    1  LIG1        0.1096
      2 C           1.6574    1.7369    0.0003 C.ar    1  LIG1        0.0849
      3 C           2.0617    3.1115   -0.0001 C.ar    1  LIG1        0.1792
      4 C           0.9054    3.8733    0.0001 C.ar    1  LIG1        0.2131
      5 O          -0.1763    3.0217    0.0005 O.2     1  LIG1       -0.4549
      6 H          -0.4484    0.9669    0.0009 H       1  LIG1        0.1042
      7 S           2.7394    0.3347    0.0002 S.3     1  LIG1       -0.1361
      8 H           3.8684    1.0696   -0.0002 H       1  LIG1        0.1073
      9 O           3.3800    3.4269   -0.0005 O.3     1  LIG1       -0.5024
     10 H           3.5299    4.3826   -0.0009 H       1  LIG1        0.2923
     11 C           0.5848    5.2758    0.0001 C.ar    1  LIG1        0.1912
     12 C           1.3113    6.4492   -0.0001 C.ar    1  LIG1        0.0962
     13 C           0.3669    7.5160   -0.0002 C.ar    1  LIG1        0.1800
     14 C          -0.8940    6.9454   -0.0001 C.ar    1  LIG1        0.2142
     15 O          -0.7461    5.5765    0.0001 O.2     1  LIG1       -0.4435
     16 S           3.0646    6.6743    0.0000 S.3     1  LIG1       -0.1353
     17 H           3.0329    8.0189   -0.0003 H       1  LIG1        0.1073
     18 O           0.8056    8.7989   -0.0005 O.3     1  LIG1       -0.5024
     19 H           0.0787    9.4376   -0.0007 H       1  LIG1        0.2923
     20 C          -2.2481    7.4221   -0.0001 C.ar    1  LIG1        0.1912
     21 C          -2.8503    8.6646    0.0000 C.ar    1  LIG1        0.0962
     22 C          -4.2571    8.4379   -0.0001 C.ar    1  LIG1        0.1800
     23 C          -4.4503    7.0689   -0.0003 C.ar    1  LIG1        0.2141
     24 O          -3.2159    6.4596   -0.0002 O.2     1  LIG1       -0.4435
     25 S          -2.1013   10.2653    0.0004 S.3     1  LIG1       -0.1353
     26 H          -3.2531   10.9597    0.0002 H       1  LIG1        0.1073
     27 O          -5.1055    9.4968   -0.0002 O.3     1  LIG1       -0.5024
     28 H          -6.0341    9.2254   -0.0005 H       1  LIG1        0.2923
     29 C          -5.5794    6.1768   -0.0004 C.ar    1  LIG1        0.1901
     30 C          -6.9513    6.3316   -0.0002 C.ar    1  LIG1        0.0954
     31 C          -7.5015    5.0108   -0.0006 C.ar    1  LIG1        0.1686
     32 C          -6.4531    4.1404   -0.0010 C.ar    1  LIG1        0.1352
     33 O          -5.2786    4.8425   -0.0008 O.2     1  LIG1       -0.4548
     34 H          -6.3726    3.0659   -0.0013 H       1  LIG1        0.1068
     35 S          -7.9070    7.8190    0.0006 S.3     1  LIG1       -0.1354
     36 H          -9.1108    7.2196    0.0003 H       1  LIG1        0.1073
     37 O          -8.8476    4.8027   -0.0006 O.3     1  LIG1       -0.5029
     38 H          -9.0320    3.8550   -0.0008 H       1  LIG1        0.2923
@<TRIPOS>BOND
     1    34    32    1
     2    32    33   ar
     3    32    31   ar
     4    10     9    1
     5    38    37    1
     6    33    29   ar
     7    19    18    1
     8    31    37    1
     9    31    30   ar
    10     9     3    1
    11    28    27    1
    12    18    13    1
    13    29    23    1
    14    29    30   ar
    15    17    16    1
    16    23    24   ar
    17    23    22   ar
    18    24    20   ar
    19    27    22    1
    20    13    14   ar
    21    13    12   ar
    22    30    35    1
    23     8     7    1
    24    22    21   ar
    25    14    20    1
    26    14    15   ar
    27    20    21   ar
    28    12    16    1
    29    12    11   ar
    30     3     4   ar
    31     3     2   ar
    32    21    25    1
    33    15    11   ar
    34    11     4    1
    35     4     5   ar
    36    26    25    1
    37     7     2    1
    38    36    35    1
    39     2     1   ar
    40     5     1   ar
    41     1     6    1
