@<TRIPOS>MOLECULE
mol_data/opt/b3lyp/geoms/mol2/12gf12gf-12gf-12gf-.out
 38 41 0 0 0
SMALL
GASTEIGER

@<TRIPOS>ATOM
      1 C           0.4032    1.8284   -0.1759 C.ar    1  LIG1        0.1096
      2 C           1.7641    1.8707   -0.0765 C.ar    1  LIG1        0.0849
      3 C           2.1077    3.2600    0.0298 C.ar    1  LIG1        0.1792
      4 C           0.9154    3.9676   -0.0138 C.ar    1  LIG1        0.2131
      5 O          -0.1274    3.0700   -0.1529 O.2     1  LIG1       -0.4549
      6 H          -0.2926    1.0100   -0.2752 H       1  LIG1        0.1042
      7 S           2.8748    0.4983   -0.1863 S.3     1  LIG1       -0.1361
      8 H           3.6077    0.7972    0.9067 H       1  LIG1        0.1073
      9 O           3.3788    3.6637    0.1695 O.3     1  LIG1       -0.5024
     10 H           3.4175    4.6424    0.2294 H       1  LIG1        0.2923
     11 C           0.5443    5.3523    0.0446 C.ar    1  LIG1        0.1912
     12 C           1.2421    6.5491    0.1214 C.ar    1  LIG1        0.0962
     13 C           0.2635    7.5909    0.1481 C.ar    1  LIG1        0.1800
     14 C          -0.9776    6.9782    0.0802 C.ar    1  LIG1        0.2142
     15 O          -0.7858    5.6070    0.0239 O.2     1  LIG1       -0.4435
     16 S           2.9857    6.8083    0.2646 S.3     1  LIG1       -0.1353
     17 H           3.2599    7.1376   -1.0192 H       1  LIG1        0.1073
     18 O           0.6087    8.8829    0.2140 O.3     1  LIG1       -0.5024
     19 H          -0.1953    9.4456    0.2500 H       1  LIG1        0.2923
     20 C          -2.3387    7.4218    0.0512 C.ar    1  LIG1        0.1912
     21 C          -2.9647    8.6607    0.0773 C.ar    1  LIG1        0.0962
     22 C          -4.3712    8.4079    0.0241 C.ar    1  LIG1        0.1800
     23 C          -4.5313    7.0347   -0.0309 C.ar    1  LIG1        0.2141
     24 O          -3.2773    6.4455   -0.0082 O.2     1  LIG1       -0.4435
     25 S          -2.2395   10.2642    0.2459 S.3     1  LIG1       -0.1353
     26 H          -2.3338   10.6803   -1.0388 H       1  LIG1        0.1073
     27 O          -5.2681    9.4042    0.0066 O.3     1  LIG1       -0.5024
     28 H          -6.1783    9.0374    0.0234 H       1  LIG1        0.2923
     29 C          -5.6457    6.1339   -0.1107 C.ar    1  LIG1        0.1901
     30 C          -7.0235    6.2764   -0.0406 C.ar    1  LIG1        0.0954
     31 C          -7.5673    4.9570   -0.2050 C.ar    1  LIG1        0.1686
     32 C          -6.5125    4.1080   -0.3516 C.ar    1  LIG1        0.1352
     33 O          -5.3379    4.8242   -0.2999 O.2     1  LIG1       -0.4548
     34 H          -6.4168    3.0435   -0.4889 H       1  LIG1        0.1068
     35 S          -7.9761    7.7554    0.1325 S.3     1  LIG1       -0.1354
     36 H          -8.1854    7.7319    1.4704 H       1  LIG1        0.1073
     37 O          -8.9019    4.7140   -0.1840 O.3     1  LIG1       -0.5029
     38 H          -9.0573    3.7719   -0.3298 H       1  LIG1        0.2923
@<TRIPOS>BOND
     1    26    25    1
     2    17    16    1
     3    34    32    1
     4    32    33   ar
     5    32    31   ar
     6    38    37    1
     7    33    29   ar
     8     6     1    1
     9    31    37    1
    10    31    30   ar
    11     7     2    1
    12     7     8    1
    13     1     5   ar
    14     1     2   ar
    15     5     4   ar
    16    29    30   ar
    17    29    23    1
    18     2     3   ar
    19    30    35    1
    20    23    24   ar
    21    23    22   ar
    22     4     3   ar
    23     4    11    1
    24    24    20   ar
    25    27    28    1
    26    27    22    1
    27    15    11   ar
    28    15    14   ar
    29    22    21   ar
    30     3     9    1
    31    11    12   ar
    32    20    21   ar
    33    20    14    1
    34    21    25    1
    35    14    13   ar
    36    12    13   ar
    37    12    16    1
    38    35    36    1
    39    13    18    1
    40     9    10    1
    41    18    19    1
