@<TRIPOS>MOLECULE
mol_data/opt/b3lyp/geoms/mol2/12gf12gf12gf12gf.out
 38 41 0 0 0
SMALL
GASTEIGER

@<TRIPOS>ATOM
      1 C           0.3997    1.8197   -0.0496 C.ar    1  LIG1        0.1096
      2 C           1.7640    1.8677   -0.0499 C.ar    1  LIG1        0.0849
      3 C           2.1085    3.2605   -0.0479 C.ar    1  LIG1        0.1792
      4 C           0.9136    3.9648   -0.0469 C.ar    1  LIG1        0.2131
      5 O          -0.1328    3.0613   -0.0605 O.2     1  LIG1       -0.4549
      6 H          -0.2986    0.9975   -0.0515 H       1  LIG1        0.1042
      7 S           2.8723    0.4934   -0.1565 S.3     1  LIG1       -0.1361
      8 H           3.7181    0.8994    0.8131 H       1  LIG1        0.1073
      9 O           3.3854    3.6704   -0.0231 O.3     1  LIG1       -0.5024
     10 H           3.4250    4.6509   -0.0126 H       1  LIG1        0.2923
     11 C           0.5429    5.3508   -0.0433 C.ar    1  LIG1        0.1912
     12 C           1.2409    6.5496   -0.0686 C.ar    1  LIG1        0.0962
     13 C           0.2628    7.5919   -0.0460 C.ar    1  LIG1        0.1800
     14 C          -0.9787    6.9771   -0.0110 C.ar    1  LIG1        0.2142
     15 O          -0.7870    5.6047   -0.0049 O.2     1  LIG1       -0.4435
     16 S           2.9891    6.8158   -0.0382 S.3     1  LIG1       -0.1353
     17 H           3.1864    7.0922   -1.3483 H       1  LIG1        0.1073
     18 O           0.6080    8.8850   -0.0812 O.3     1  LIG1       -0.5024
     19 H          -0.1944    9.4500   -0.0425 H       1  LIG1        0.2923
     20 C          -2.3399    7.4197    0.0199 C.ar    1  LIG1        0.1912
     21 C          -2.9639    8.6583    0.0833 C.ar    1  LIG1        0.0962
     22 C          -4.3716    8.4062    0.0809 C.ar    1  LIG1        0.1800
     23 C          -4.5341    7.0336    0.0184 C.ar    1  LIG1        0.2141
     24 O          -3.2804    6.4447   -0.0240 O.2     1  LIG1       -0.4435
     25 S          -2.2326   10.2682    0.0831 S.3     1  LIG1       -0.1353
     26 H          -2.3140   10.5448    1.4058 H       1  LIG1        0.1073
     27 O          -5.2680    9.3998    0.1593 O.3     1  LIG1       -0.5024
     28 H          -6.1779    9.0373    0.0983 H       1  LIG1        0.2923
     29 C          -5.6506    6.1319   -0.0014 C.ar    1  LIG1        0.1901
     30 C          -7.0268    6.2827   -0.0841 C.ar    1  LIG1        0.0954
     31 C          -7.5740    4.9550   -0.0459 C.ar    1  LIG1        0.1686
     32 C          -6.5225    4.0944    0.0453 C.ar    1  LIG1        0.1352
     33 O          -5.3468    4.8101    0.0783 O.2     1  LIG1       -0.4548
     34 H          -6.4297    3.0218    0.0915 H       1  LIG1        0.1068
     35 S          -7.9758    7.7728   -0.1420 S.3     1  LIG1       -0.1354
     36 H          -8.1684    7.8639   -1.4796 H       1  LIG1        0.1073
     37 O          -8.9081    4.7176   -0.1125 O.3     1  LIG1       -0.5029
     38 H          -9.0665    3.7666   -0.0541 H       1  LIG1        0.2923
@<TRIPOS>BOND
     1    36    35    1
     2    17    16    1
     3     7     2    1
     4     7     8    1
     5    35    30    1
     6    37    38    1
     7    37    31    1
     8    30    31   ar
     9    30    29   ar
    10    18    13    1
    11    18    19    1
    12    12    13   ar
    13    12    11   ar
    14    12    16    1
    15     5     1   ar
    16     5     4   ar
    17     6     1    1
    18     2     1   ar
    19     2     3   ar
    20     3     4   ar
    21     3     9    1
    22     4    11    1
    23    13    14   ar
    24    31    32   ar
    25    11    15   ar
    26    24    23   ar
    27    24    20   ar
    28     9    10    1
    29    14    15   ar
    30    14    20    1
    31    29    23    1
    32    29    33   ar
    33    23    22   ar
    34    20    21   ar
    35    32    33   ar
    36    32    34    1
    37    22    21   ar
    38    22    27    1
    39    25    21    1
    40    25    26    1
    41    28    27    1
