@<TRIPOS>MOLECULE
mol_data/opt/b3lyp/geoms/mol2/12gf12gf-12gf-.out
 29 31 0 0 0
SMALL
GASTEIGER

@<TRIPOS>ATOM
      1 C           0.2912    1.8173    0.0161 C.ar    1  LIG1        0.1096
      2 C           1.6557    1.8526    0.0236 C.ar    1  LIG1        0.0849
      3 C           2.0137    3.2425    0.0300 C.ar    1  LIG1        0.1792
      4 C           0.8260    3.9577    0.0253 C.ar    1  LIG1        0.2131
      5 O          -0.2294    3.0641    0.0290 O.2     1  LIG1       -0.4549
      6 H          -0.4145    1.0015    0.0110 H       1  LIG1        0.1042
      7 S           2.7483    0.4659    0.1333 S.3     1  LIG1       -0.1361
      8 H           3.5803    0.8396   -0.8611 H       1  LIG1        0.1073
      9 O           3.2946    3.6413    0.0180 O.3     1  LIG1       -0.5024
     10 H           3.3420    4.6211   -0.0032 H       1  LIG1        0.2923
     11 C           0.4678    5.3480    0.0309 C.ar    1  LIG1        0.1912
     12 C           1.1742    6.5409    0.0384 C.ar    1  LIG1        0.0962
     13 C           0.2022    7.5910    0.0436 C.ar    1  LIG1        0.1800
     14 C          -1.0416    6.9862    0.0383 C.ar    1  LIG1        0.2141
     15 O          -0.8613    5.6127    0.0243 O.2     1  LIG1       -0.4435
     16 S           2.9228    6.7931   -0.0439 S.3     1  LIG1       -0.1353
     17 H           3.1517    7.1214    1.2488 H       1  LIG1        0.1073
     18 O           0.5583    8.8830    0.0780 O.3     1  LIG1       -0.5024
     19 H          -0.2392    9.4527    0.0286 H       1  LIG1        0.2923
     20 C          -2.4041    7.4386    0.0528 C.ar    1  LIG1        0.1901
     21 C          -3.0234    8.6757   -0.0394 C.ar    1  LIG1        0.0954
     22 C          -4.4341    8.4207    0.0541 C.ar    1  LIG1        0.1686
     23 C          -4.5866    7.0737    0.1841 C.ar    1  LIG1        0.1352
     24 O          -3.3485    6.4714    0.1892 O.2     1  LIG1       -0.4548
     25 H          -5.4368    6.4180    0.2753 H       1  LIG1        0.1068
     26 S          -2.2838   10.2766   -0.1628 S.3     1  LIG1       -0.1354
     27 H          -2.3592   10.4545   -1.5033 H       1  LIG1        0.1073
     28 O          -5.3570    9.4132   -0.0055 O.3     1  LIG1       -0.5029
     29 H          -6.2399    9.0348    0.0961 H       1  LIG1        0.2923
@<TRIPOS>BOND
     1    27    26    1
     2     8     7    1
     3    26    21    1
     4    16    12    1
     5    16    17    1
     6    21    20   ar
     7    21    22   ar
     8    28    22    1
     9    28    29    1
    10    10     9    1
    11     6     1    1
    12     1     2   ar
    13     1     5   ar
    14     9     3    1
    15     2     3   ar
    16     2     7    1
    17    15    11   ar
    18    15    14   ar
    19     4     5   ar
    20     4     3   ar
    21     4    11    1
    22    19    18    1
    23    11    12   ar
    24    14    13   ar
    25    14    20    1
    26    12    13   ar
    27    13    18    1
    28    20    24   ar
    29    22    23   ar
    30    23    24   ar
    31    23    25    1
