@<TRIPOS>MOLECULE
mol_data/opt/b3lyp/geoms/mol2/12gf12gf.out
 20 21 0 0 0
SMALL
GASTEIGER

@<TRIPOS>ATOM
      1 C           0.2312    1.8663   -0.2148 C.ar    1  LIG1        0.1096
      2 C           1.5899    1.8959   -0.0944 C.ar    1  LIG1        0.0849
      3 C           1.9456    3.2827    0.0190 C.ar    1  LIG1        0.1792
      4 C           0.7641    4.0011   -0.0437 C.ar    1  LIG1        0.2131
      5 O          -0.2864    3.1155   -0.2004 O.2     1  LIG1       -0.4549
      6 H          -0.4719    1.0558   -0.3255 H       1  LIG1        0.1042
      7 S           2.6897    0.5135   -0.1865 S.3     1  LIG1       -0.1361
      8 H           3.4199    0.8164    0.9069 H       1  LIG1        0.1073
      9 O           3.2198    3.6740    0.1836 O.3     1  LIG1       -0.5024
     10 H           3.2689    4.6530    0.2132 H       1  LIG1        0.2923
     11 C           0.4056    5.3937    0.0169 C.ar    1  LIG1        0.1901
     12 C           1.1129    6.5837    0.0649 C.ar    1  LIG1        0.0954
     13 C           0.1285    7.6292    0.1195 C.ar    1  LIG1        0.1686
     14 C          -1.0921    7.0263    0.0924 C.ar    1  LIG1        0.1352
     15 O          -0.9264    5.6609    0.0354 O.2     1  LIG1       -0.4548
     16 H          -2.1085    7.3841    0.1034 H       1  LIG1        0.1068
     17 S           2.8627    6.8308    0.1369 S.3     1  LIG1       -0.1354
     18 H           3.1048    7.0794   -1.1718 H       1  LIG1        0.1073
     19 O           0.4658    8.9423    0.1690 O.3     1  LIG1       -0.5029
     20 H          -0.3368    9.4764    0.2276 H       1  LIG1        0.2923
@<TRIPOS>BOND
     1    18    17    1
     2     6     1    1
     3     1     5   ar
     4     1     2   ar
     5     5     4   ar
     6     7     2    1
     7     7     8    1
     8     2     3   ar
     9     4    11    1
    10     4     3   ar
    11    11    15   ar
    12    11    12   ar
    13     3     9    1
    14    15    14   ar
    15    12    13   ar
    16    12    17    1
    17    14    16    1
    18    14    13   ar
    19    13    19    1
    20    19    20    1
    21     9    10    1
