@<TRIPOS>MOLECULE
mol_data/opt/b3lyp/geoms/mol2/12gf12gf12gf.out
 29 31 0 0 0
SMALL
GASTEIGER

@<TRIPOS>ATOM
      1 C           0.2902    1.8172    0.0164 C.ar    1  LIG1        0.1096
      2 C           1.6547    1.8522    0.0242 C.ar    1  LIG1        0.0849
      3 C           2.0132    3.2419    0.0092 C.ar    1  LIG1        0.1792
      4 C           0.8257    3.9573   -0.0064 C.ar    1  LIG1        0.2131
      5 O          -0.2298    3.0639   -0.0139 O.2     1  LIG1       -0.4549
      6 H          -0.4158    1.0017    0.0208 H       1  LIG1        0.1042
      7 S           2.7481    0.4644   -0.0603 S.3     1  LIG1       -0.1361
      8 H           3.5687    0.8470    0.9402 H       1  LIG1        0.1073
      9 O           3.2940    3.6406    0.0321 O.3     1  LIG1       -0.5024
     10 H           3.3415    4.6205    0.0450 H       1  LIG1        0.2923
     11 C           0.4680    5.3475   -0.0286 C.ar    1  LIG1        0.1912
     12 C           1.1749    6.5402   -0.0392 C.ar    1  LIG1        0.0962
     13 C           0.2033    7.5904   -0.0647 C.ar    1  LIG1        0.1800
     14 C          -1.0407    6.9859   -0.0677 C.ar    1  LIG1        0.2141
     15 O          -0.8610    5.6126   -0.0392 O.2     1  LIG1       -0.4435
     16 S           2.9225    6.7929    0.0603 S.3     1  LIG1       -0.1353
     17 H           3.1660    7.1086   -1.2329 H       1  LIG1        0.1073
     18 O           0.5601    8.8820   -0.1068 O.3     1  LIG1       -0.5024
     19 H          -0.2378    9.4523   -0.0717 H       1  LIG1        0.2923
     20 C          -2.4028    7.4384   -0.1016 C.ar    1  LIG1        0.1901
     21 C          -3.0227    8.6765   -0.0279 C.ar    1  LIG1        0.0954
     22 C          -4.4324    8.4209   -0.1349 C.ar    1  LIG1        0.1686
     23 C          -4.5838    7.0728   -0.2540 C.ar    1  LIG1        0.1352
     24 O          -3.3459    6.4702   -0.2396 O.2     1  LIG1       -0.4548
     25 H          -5.4332    6.4165   -0.3488 H       1  LIG1        0.1068
     26 S          -2.2842   10.2784    0.0888 S.3     1  LIG1       -0.1354
     27 H          -2.3748   10.4690    1.4265 H       1  LIG1        0.1073
     28 O          -5.3556    9.4141   -0.0948 O.3     1  LIG1       -0.5029
     29 H          -6.2374    9.0350   -0.2024 H       1  LIG1        0.2923
@<TRIPOS>BOND
     1    17    16    1
     2    25    23    1
     3    23    24   ar
     4    23    22   ar
     5    24    20   ar
     6    29    28    1
     7    22    28    1
     8    22    21   ar
     9    18    19    1
    10    18    13    1
    11    20    14    1
    12    20    21   ar
    13    14    13   ar
    14    14    15   ar
    15    13    12   ar
    16     7     2    1
    17     7     8    1
    18    12    11   ar
    19    12    16    1
    20    15    11   ar
    21    11     4    1
    22    21    26    1
    23     5     4   ar
    24     5     1   ar
    25     4     3   ar
    26     3     2   ar
    27     3     9    1
    28     1     6    1
    29     1     2   ar
    30     9    10    1
    31    26    27    1
