@<TRIPOS>MOLECULE
mol_data/opt/b3lyp/geoms/mol2/12gf12gf12gf-.out
 29 31 0 0 0
SMALL
GASTEIGER

@<TRIPOS>ATOM
      1 C           0.2938    1.8179    0.0009 C.ar    1  LIG1        0.1096
      2 C           1.6582    1.8540    0.0130 C.ar    1  LIG1        0.0849
      3 C           2.0155    3.2441    0.0059 C.ar    1  LIG1        0.1792
      4 C           0.8276    3.9586   -0.0099 C.ar    1  LIG1        0.2131
      5 O          -0.2272    3.0643   -0.0250 O.2     1  LIG1       -0.4549
      6 H          -0.4115    1.0017   -0.0008 H       1  LIG1        0.1042
      7 S           2.7533    0.4676   -0.0746 S.3     1  LIG1       -0.1361
      8 H           3.5697    0.8458    0.9310 H       1  LIG1        0.1073
      9 O           3.2960    3.6437    0.0347 O.3     1  LIG1       -0.5024
     10 H           3.3425    4.6236    0.0523 H       1  LIG1        0.2923
     11 C           0.4686    5.3486   -0.0265 C.ar    1  LIG1        0.1912
     12 C           1.1744    6.5419   -0.0292 C.ar    1  LIG1        0.0962
     13 C           0.2020    7.5913   -0.0526 C.ar    1  LIG1        0.1800
     14 C          -1.0414    6.9858   -0.0623 C.ar    1  LIG1        0.2141
     15 O          -0.8606    5.6125   -0.0399 O.2     1  LIG1       -0.4435
     16 S           2.9215    6.7956    0.0766 S.3     1  LIG1       -0.1353
     17 H           3.1685    7.1176   -1.2144 H       1  LIG1        0.1073
     18 O           0.5577    8.8835   -0.0873 O.3     1  LIG1       -0.5024
     19 H          -0.2408    9.4528   -0.0523 H       1  LIG1        0.2923
     20 C          -2.4039    7.4372   -0.0983 C.ar    1  LIG1        0.1901
     21 C          -3.0252    8.6743   -0.0207 C.ar    1  LIG1        0.0954
     22 C          -4.4343    8.4179   -0.1329 C.ar    1  LIG1        0.1686
     23 C          -4.5841    7.0702   -0.2586 C.ar    1  LIG1        0.1352
     24 O          -3.3457    6.4687   -0.2434 O.2     1  LIG1       -0.4548
     25 H          -5.4326    6.4135   -0.3589 H       1  LIG1        0.1068
     26 S          -2.2885   10.2763    0.1050 S.3     1  LIG1       -0.1354
     27 H          -2.3834   10.4613    1.4432 H       1  LIG1        0.1073
     28 O          -5.3586    9.4100   -0.0910 O.3     1  LIG1       -0.5029
     29 H          -6.2397    9.0306   -0.2033 H       1  LIG1        0.2923
@<TRIPOS>BOND
     1    17    16    1
     2    25    23    1
     3    23    24   ar
     4    23    22   ar
     5    24    20   ar
     6    29    28    1
     7    22    28    1
     8    22    21   ar
     9    20    14    1
    10    20    21   ar
    11    18    13    1
    12    18    19    1
    13     7     2    1
    14     7     8    1
    15    14    13   ar
    16    14    15   ar
    17    13    12   ar
    18    15    11   ar
    19    12    11   ar
    20    12    16    1
    21    11     4    1
    22     5     4   ar
    23     5     1   ar
    24    21    26    1
    25     4     3   ar
    26     6     1    1
    27     1     2   ar
    28     3     2   ar
    29     3     9    1
    30     9    10    1
    31    26    27    1
