@<TRIPOS>MOLECULE
mol_data/opt/b3lyp/geoms/mol2/12gf12gf12gf-12gf.out
 38 41 0 0 0
SMALL
GASTEIGER

@<TRIPOS>ATOM
      1 C           0.3947    1.8202    0.0733 C.ar    1  LIG1        0.1096
      2 C           1.7585    1.8667    0.1097 C.ar    1  LIG1        0.0849
      3 C           2.1055    3.2586    0.0813 C.ar    1  LIG1        0.1792
      4 C           0.9124    3.9639    0.0287 C.ar    1  LIG1        0.2131
      5 O          -0.1350    3.0616    0.0121 O.2     1  LIG1       -0.4549
      6 H          -0.3049    0.9991    0.0753 H       1  LIG1        0.1042
      7 S           2.8669    0.4888    0.0739 S.3     1  LIG1       -0.1361
      8 H           3.6857    0.9219    1.0548 H       1  LIG1        0.1073
      9 O           3.3820    3.6676    0.1291 O.3     1  LIG1       -0.5024
     10 H           3.4231    4.6479    0.1163 H       1  LIG1        0.2923
     11 C           0.5443    5.3499   -0.0187 C.ar    1  LIG1        0.1912
     12 C           1.2449    6.5470   -0.0522 C.ar    1  LIG1        0.0962
     13 C           0.2685    7.5903   -0.0922 C.ar    1  LIG1        0.1800
     14 C          -0.9746    6.9778   -0.0834 C.ar    1  LIG1        0.2142
     15 O          -0.7857    5.6059   -0.0331 O.2     1  LIG1       -0.4435
     16 S           2.9914    6.8124    0.0336 S.3     1  LIG1       -0.1353
     17 H           3.2337    7.0648   -1.2737 H       1  LIG1        0.1073
     18 O           0.6172    8.8816   -0.1514 O.3     1  LIG1       -0.5024
     19 H          -0.1851    9.4481   -0.1551 H       1  LIG1        0.2923
     20 C          -2.3352    7.4224   -0.1121 C.ar    1  LIG1        0.1912
     21 C          -2.9587    8.6627   -0.0949 C.ar    1  LIG1        0.0962
     22 C          -4.3658    8.4124   -0.1469 C.ar    1  LIG1        0.1800
     23 C          -4.5287    7.0388   -0.1843 C.ar    1  LIG1        0.2141
     24 O          -3.2753    6.4479   -0.1686 O.2     1  LIG1       -0.4435
     25 S          -2.2244   10.2710   -0.1070 S.3     1  LIG1       -0.1353
     26 H          -2.3412   10.5741    1.2073 H       1  LIG1        0.1073
     27 O          -5.2618    9.4095   -0.1448 O.3     1  LIG1       -0.5024
     28 H          -6.1716    9.0441   -0.1868 H       1  LIG1        0.2923
     29 C          -5.6442    6.1365   -0.2330 C.ar    1  LIG1        0.1901
     30 C          -7.0232    6.2827   -0.2086 C.ar    1  LIG1        0.0954
     31 C          -7.5642    4.9552   -0.3016 C.ar    1  LIG1        0.1686
     32 C          -6.5074    4.0989   -0.3676 C.ar    1  LIG1        0.1352
     33 O          -5.3337    4.8174   -0.3315 O.2     1  LIG1       -0.4548
     34 H          -6.4095    3.0280   -0.4366 H       1  LIG1        0.1068
     35 S          -7.9788    7.7693   -0.1751 S.3     1  LIG1       -0.1354
     36 H          -8.2864    7.8062    1.1433 H       1  LIG1        0.1073
     37 O          -8.8995    4.7146   -0.2989 O.3     1  LIG1       -0.5029
     38 H          -9.0534    3.7662   -0.3979 H       1  LIG1        0.2923
@<TRIPOS>BOND
     1    17    16    1
     2    34    32    1
     3    38    37    1
     4    32    33   ar
     5    32    31   ar
     6    33    29   ar
     7    31    37    1
     8    31    30   ar
     9    29    30   ar
    10    29    23    1
    11    30    35    1
    12    28    27    1
    13    23    24   ar
    14    23    22   ar
    15    35    36    1
    16    24    20   ar
    17    19    18    1
    18    18    13    1
    19    22    27    1
    20    22    21   ar
    21    20    21   ar
    22    20    14    1
    23    25    21    1
    24    25    26    1
    25    13    14   ar
    26    13    12   ar
    27    14    15   ar
    28    12    11   ar
    29    12    16    1
    30    15    11   ar
    31    11     4    1
    32     5     4   ar
    33     5     1   ar
    34     4     3   ar
    35     1     6    1
    36     1     2   ar
    37     7     2    1
    38     7     8    1
    39     3     2   ar
    40     3     9    1
    41    10     9    1
