@<TRIPOS>MOLECULE
mol_data/opt/b3lyp/geoms/mol2/12gf12gf-12gf-12gf.out
 38 41 0 0 0
SMALL
GASTEIGER

@<TRIPOS>ATOM
      1 C           0.4068    1.8305   -0.1683 C.ar    1  LIG1        0.1096
      2 C           1.7675    1.8740   -0.0673 C.ar    1  LIG1        0.0849
      3 C           2.1098    3.2637    0.0381 C.ar    1  LIG1        0.1792
      4 C           0.9171    3.9703   -0.0078 C.ar    1  LIG1        0.2131
      5 O          -0.1249    3.0717   -0.1472 O.2     1  LIG1       -0.4549
      6 H          -0.2882    1.0114   -0.2678 H       1  LIG1        0.1042
      7 S           2.8795    0.5025   -0.1741 S.3     1  LIG1       -0.1361
      8 H           3.6101    0.8026    0.9200 H       1  LIG1        0.1073
      9 O           3.3804    3.6686    0.1790 O.3     1  LIG1       -0.5024
     10 H           3.4182    4.6474    0.2375 H       1  LIG1        0.2923
     11 C           0.5447    5.3547    0.0489 C.ar    1  LIG1        0.1912
     12 C           1.2413    6.5522    0.1249 C.ar    1  LIG1        0.0962
     13 C           0.2619    7.5932    0.1497 C.ar    1  LIG1        0.1800
     14 C          -0.9787    6.9793    0.0817 C.ar    1  LIG1        0.2142
     15 O          -0.7856    5.6082    0.0270 O.2     1  LIG1       -0.4435
     16 S           2.9846    6.8131    0.2688 S.3     1  LIG1       -0.1353
     17 H           3.2595    7.1406   -1.0153 H       1  LIG1        0.1073
     18 O           0.6059    8.8856    0.2144 O.3     1  LIG1       -0.5024
     19 H          -0.1987    9.4476    0.2492 H       1  LIG1        0.2923
     20 C          -2.3402    7.4216    0.0510 C.ar    1  LIG1        0.1912
     21 C          -2.9673    8.6600    0.0754 C.ar    1  LIG1        0.0962
     22 C          -4.3734    8.4059    0.0211 C.ar    1  LIG1        0.1800
     23 C          -4.5323    7.0326   -0.0329 C.ar    1  LIG1        0.2141
     24 O          -3.2778    6.4445   -0.0084 O.2     1  LIG1       -0.4435
     25 S          -2.2435   10.2644    0.2435 S.3     1  LIG1       -0.1353
     26 H          -2.3376   10.6796   -1.0416 H       1  LIG1        0.1073
     27 O          -5.2712    9.4015    0.0019 O.3     1  LIG1       -0.5024
     28 H          -6.1811    9.0339    0.0176 H       1  LIG1        0.2923
     29 C          -5.6459    6.1307   -0.1130 C.ar    1  LIG1        0.1901
     30 C          -7.0238    6.2721   -0.0446 C.ar    1  LIG1        0.0954
     31 C          -7.5663    4.9520   -0.2082 C.ar    1  LIG1        0.1686
     32 C          -6.5107    4.1038   -0.3527 C.ar    1  LIG1        0.1352
     33 O          -5.3367    4.8211   -0.3005 O.2     1  LIG1       -0.4548
     34 H          -6.4138    3.0392   -0.4888 H       1  LIG1        0.1068
     35 S          -7.9779    7.7504    0.1258 S.3     1  LIG1       -0.1354
     36 H          -8.1884    7.7284    1.4636 H       1  LIG1        0.1073
     37 O          -8.9007    4.7079   -0.1884 O.3     1  LIG1       -0.5029
     38 H          -9.0552    3.7656   -0.3340 H       1  LIG1        0.2923
@<TRIPOS>BOND
     1    26    25    1
     2    17    16    1
     3    34    32    1
     4    32    33   ar
     5    32    31   ar
     6    38    37    1
     7    33    29   ar
     8     6     1    1
     9    31    37    1
    10    31    30   ar
    11     7     2    1
    12     7     8    1
    13     1     5   ar
    14     1     2   ar
    15     5     4   ar
    16    29    30   ar
    17    29    23    1
    18     2     3   ar
    19    30    35    1
    20    23    24   ar
    21    23    22   ar
    22    24    20   ar
    23     4     3   ar
    24     4    11    1
    25    27    28    1
    26    27    22    1
    27    22    21   ar
    28    15    11   ar
    29    15    14   ar
    30     3     9    1
    31    11    12   ar
    32    20    21   ar
    33    20    14    1
    34    21    25    1
    35    14    13   ar
    36    12    13   ar
    37    12    16    1
    38    35    36    1
    39    13    18    1
    40     9    10    1
    41    18    19    1
