@<TRIPOS>MOLECULE
mol_data/opt/b3lyp/geoms/mol2/12gf12gf12gf-12gf-.out
 38 41 0 0 0
SMALL
GASTEIGER

@<TRIPOS>ATOM
      1 C           0.3969    1.8216    0.0681 C.ar    1  LIG1        0.1096
      2 C           1.7602    1.8691    0.1192 C.ar    1  LIG1        0.0849
      3 C           2.1065    3.2613    0.0929 C.ar    1  LIG1        0.1792
      4 C           0.9135    3.9656    0.0262 C.ar    1  LIG1        0.2131
      5 O          -0.1330    3.0624   -0.0006 O.2     1  LIG1       -0.4549
      6 H          -0.3020    0.9999    0.0635 H       1  LIG1        0.1042
      7 S           2.8699    0.4919    0.0974 S.3     1  LIG1       -0.1361
      8 H           3.6739    0.9234    1.0912 H       1  LIG1        0.1073
      9 O           3.3820    3.6714    0.1554 O.3     1  LIG1       -0.5024
     10 H           3.4227    4.6517    0.1343 H       1  LIG1        0.2923
     11 C           0.5449    5.3513   -0.0251 C.ar    1  LIG1        0.1912
     12 C           1.2452    6.5484   -0.0618 C.ar    1  LIG1        0.0962
     13 C           0.2686    7.5914   -0.1044 C.ar    1  LIG1        0.1800
     14 C          -0.9744    6.9786   -0.0943 C.ar    1  LIG1        0.2142
     15 O          -0.7851    5.6069   -0.0406 O.2     1  LIG1       -0.4435
     16 S           2.9918    6.8145    0.0201 S.3     1  LIG1       -0.1353
     17 H           3.2345    7.0483   -1.2906 H       1  LIG1        0.1073
     18 O           0.6168    8.8827   -0.1662 O.3     1  LIG1       -0.5024
     19 H          -0.1858    9.4488   -0.1753 H       1  LIG1        0.2923
     20 C          -2.3352    7.4226   -0.1236 C.ar    1  LIG1        0.1912
     21 C          -2.9592    8.6628   -0.1141 C.ar    1  LIG1        0.0962
     22 C          -4.3663    8.4115   -0.1612 C.ar    1  LIG1        0.1800
     23 C          -4.5287    7.0376   -0.1885 C.ar    1  LIG1        0.2141
     24 O          -3.2750    6.4474   -0.1714 O.2     1  LIG1       -0.4435
     25 S          -2.2257   10.2713   -0.1404 S.3     1  LIG1       -0.1353
     26 H          -2.3455   10.5869    1.1707 H       1  LIG1        0.1073
     27 O          -5.2627    9.4083   -0.1640 O.3     1  LIG1       -0.5024
     28 H          -6.1724    9.0423   -0.2033 H       1  LIG1        0.2923
     29 C          -5.6439    6.1345   -0.2286 C.ar    1  LIG1        0.1901
     30 C          -7.0230    6.2802   -0.2045 C.ar    1  LIG1        0.0954
     31 C          -7.5634    4.9518   -0.2853 C.ar    1  LIG1        0.1686
     32 C          -6.5062    4.0954   -0.3443 C.ar    1  LIG1        0.1352
     33 O          -5.3328    4.8147   -0.3156 O.2     1  LIG1       -0.4548
     34 H          -6.4079    3.0239   -0.4039 H       1  LIG1        0.1068
     35 S          -7.9791    7.7667   -0.1844 S.3     1  LIG1       -0.1354
     36 H          -8.2888    7.8139    1.1332 H       1  LIG1        0.1073
     37 O          -8.8986    4.7106   -0.2793 O.3     1  LIG1       -0.5029
     38 H          -9.0522    3.7614   -0.3711 H       1  LIG1        0.2923
@<TRIPOS>BOND
     1    17    16    1
     2    34    32    1
     3    38    37    1
     4    32    33   ar
     5    32    31   ar
     6    33    29   ar
     7    31    37    1
     8    31    30   ar
     9    29    30   ar
    10    29    23    1
    11    30    35    1
    12    28    27    1
    13    23    24   ar
    14    23    22   ar
    15    35    36    1
    16    19    18    1
    17    24    20   ar
    18    18    13    1
    19    27    22    1
    20    22    21   ar
    21    25    21    1
    22    25    26    1
    23    20    21   ar
    24    20    14    1
    25    13    14   ar
    26    13    12   ar
    27    14    15   ar
    28    12    11   ar
    29    12    16    1
    30    15    11   ar
    31    11     4    1
    32     5     4   ar
    33     5     1   ar
    34     4     3   ar
    35     6     1    1
    36     1     2   ar
    37     3     2   ar
    38     3     9    1
    39     7     2    1
    40     7     8    1
    41    10     9    1
