@<TRIPOS>MOLECULE
mol_data/opt/b3lyp/geoms/mol2/12gf12gf-12gf.out
 29 31 0 0 0
SMALL
GASTEIGER

@<TRIPOS>ATOM
      1 C           0.1997    1.7467    0.0003 C.ar    1  LIG1        0.1096
      2 C           1.5629    1.7320    0.0001 C.ar    1  LIG1        0.0849
      3 C           1.9707    3.1059   -0.0001 C.ar    1  LIG1        0.1792
      4 C           0.8168    3.8704    0.0000 C.ar    1  LIG1        0.2131
      5 O          -0.2673    3.0217    0.0003 O.2     1  LIG1       -0.4549
      6 H          -0.5446    0.9671    0.0005 H       1  LIG1        0.1042
      7 S           2.6405    0.3266    0.0000 S.3     1  LIG1       -0.1361
      8 H           3.7718    1.0579   -0.0002 H       1  LIG1        0.1073
      9 O           3.2899    3.4187   -0.0004 O.3     1  LIG1       -0.5024
     10 H           3.4414    4.3741   -0.0007 H       1  LIG1        0.2923
     11 C           0.4998    5.2743    0.0000 C.ar    1  LIG1        0.1912
     12 C           1.2275    6.4460    0.0001 C.ar    1  LIG1        0.0962
     13 C           0.2831    7.5147   -0.0001 C.ar    1  LIG1        0.1800
     14 C          -0.9765    6.9463   -0.0001 C.ar    1  LIG1        0.2141
     15 O          -0.8309    5.5773   -0.0001 O.2     1  LIG1       -0.4435
     16 S           2.9812    6.6686    0.0003 S.3     1  LIG1       -0.1353
     17 H           2.9512    8.0133    0.0001 H       1  LIG1        0.1073
     18 O           0.7240    8.7978   -0.0002 O.3     1  LIG1       -0.5024
     19 H          -0.0024    9.4367   -0.0005 H       1  LIG1        0.2923
     20 C          -2.3350    7.4221   -0.0002 C.ar    1  LIG1        0.1901
     21 C          -2.9396    8.6629   -0.0000 C.ar    1  LIG1        0.0954
     22 C          -4.3496    8.4196   -0.0003 C.ar    1  LIG1        0.1686
     23 C          -4.5229    7.0681   -0.0006 C.ar    1  LIG1        0.1352
     24 O          -3.3003    6.4526   -0.0005 O.2     1  LIG1       -0.4548
     25 H          -5.3870    6.4244   -0.0009 H       1  LIG1        0.1068
     26 S          -2.1953   10.2669    0.0006 S.3     1  LIG1       -0.1354
     27 H          -3.3464   10.9624    0.0003 H       1  LIG1        0.1073
     28 O          -5.2472    9.4441   -0.0003 O.3     1  LIG1       -0.5029
     29 H          -6.1459    9.0912   -0.0005 H       1  LIG1        0.2923
@<TRIPOS>BOND
     1    25    23    1
     2    10     9    1
     3    23    24   ar
     4    23    22   ar
     5    24    20   ar
     6    19    18    1
     7    29    28    1
     8     9     3    1
     9    22    28    1
    10    22    21   ar
    11    18    13    1
    12     8     7    1
    13    20    14    1
    14    20    21   ar
    15    14    13   ar
    16    14    15   ar
    17    13    12   ar
    18     3     4   ar
    19     3     2   ar
    20    15    11   ar
    21    21    26    1
    22    11     4    1
    23    11    12   ar
    24     4     5   ar
    25     7     2    1
    26    12    16    1
    27    17    16    1
    28     2     1   ar
    29     5     1   ar
    30    27    26    1
    31     1     6    1
