@<TRIPOS>MOLECULE
mol_data/opt/b3lyp/geoms/mol2/12gg12gg12gg.out
 29 31 0 0 0
SMALL
GASTEIGER

@<TRIPOS>ATOM
      1 C           0.6033    1.7032    0.4706 C.ar    1  LIG1        0.1069
      2 C           1.7927    1.8320   -0.1845 C.ar    1  LIG1        0.0565
      3 C           2.0146    3.2501   -0.3402 C.ar    1  LIG1        0.0669
      4 C           0.9287    3.8690    0.2396 C.ar    1  LIG1        0.1850
      5 O           0.0712    2.9128    0.7491 O.2     1  LIG1       -0.4575
      6 H           0.0449    0.8400    0.7975 H       1  LIG1        0.1041
      7 S           2.8611    0.4916   -0.6368 S.3     1  LIG1       -0.1385
      8 H           2.7115    0.5818   -1.9770 H       1  LIG1        0.1072
      9 S           3.3893    3.9076   -1.2311 S.3     1  LIG1       -0.1378
     10 H           3.3475    5.1478   -0.6935 H       1  LIG1        0.1072
     11 C           0.4905    5.2375    0.3810 C.ar    1  LIG1        0.1860
     12 C           1.1047    6.4218    0.7212 C.ar    1  LIG1        0.0677
     13 C           0.0879    7.4396    0.6829 C.ar    1  LIG1        0.0677
     14 C          -1.0789    6.8012    0.3277 C.ar    1  LIG1        0.1860
     15 O          -0.8410    5.4699    0.1376 O.2     1  LIG1       -0.4463
     16 S           2.7794    6.6257    1.2551 S.3     1  LIG1       -0.1378
     17 H           2.8238    7.9482    0.9834 H       1  LIG1        0.1072
     18 S           0.3349    9.1201    1.1886 S.3     1  LIG1       -0.1378
     19 H          -0.2542    9.7178    0.1258 H       1  LIG1        0.1072
     20 C          -2.4278    7.2691    0.1214 C.ar    1  LIG1        0.1850
     21 C          -2.9637    8.3275   -0.5713 C.ar    1  LIG1        0.0669
     22 C          -4.3907    8.2701   -0.3551 C.ar    1  LIG1        0.0565
     23 C          -4.6070    7.1629    0.4136 C.ar    1  LIG1        0.1069
     24 O          -3.4444    6.5476    0.7147 O.2     1  LIG1       -0.4575
     25 H          -5.5082    6.7163    0.8039 H       1  LIG1        0.1041
     26 S          -2.0936    9.4436   -1.6260 S.3     1  LIG1       -0.1378
     27 H          -3.1703   10.2235   -1.8667 H       1  LIG1        0.1072
     28 S          -5.6317    9.3385   -1.0339 S.3     1  LIG1       -0.1385
     29 H          -5.6102   10.2866   -0.0700 H       1  LIG1        0.1072
@<TRIPOS>BOND
     1     8     7    1
     2    27    26    1
     3    26    21    1
     4     9    10    1
     5     9     3    1
     6    28    22    1
     7    28    29    1
     8     7     2    1
     9    21    22   ar
    10    21    20   ar
    11    22    23   ar
    12     3     2   ar
    13     3     4   ar
    14     2     1   ar
    15    20    14    1
    16    20    24   ar
    17    19    18    1
    18    15    14   ar
    19    15    11   ar
    20     4    11    1
    21     4     5   ar
    22    14    13   ar
    23    11    12   ar
    24    23    24   ar
    25    23    25    1
    26     1     5   ar
    27     1     6    1
    28    13    12   ar
    29    13    18    1
    30    12    16    1
    31    17    16    1
