@<TRIPOS>MOLECULE
mol_data/opt/b3lyp/geoms/mol2/12gg12gg-.out
 20 21 0 0 0
SMALL
GASTEIGER

@<TRIPOS>ATOM
      1 C           0.3864    1.8235    0.6495 C.ar    1  LIG1        0.1069
      2 C           1.6685    1.8709    0.1865 C.ar    1  LIG1        0.0565
      3 C           1.9174    3.2496   -0.1540 C.ar    1  LIG1        0.0669
      4 C           0.7626    3.9338    0.1432 C.ar    1  LIG1        0.1849
      5 O          -0.1789    3.0510    0.6379 O.2     1  LIG1       -0.4575
      6 H          -0.2250    1.0105    1.0087 H       1  LIG1        0.1041
      7 S           2.7999    0.5074    0.1254 S.3     1  LIG1       -0.1385
      8 H           2.8898    0.4113   -1.2198 H       1  LIG1        0.1072
      9 S           3.4281    3.8068   -0.8780 S.3     1  LIG1       -0.1378
     10 H           2.9727    5.0271   -1.2241 H       1  LIG1        0.1072
     11 C           0.3632    5.3154    0.0352 C.ar    1  LIG1        0.1849
     12 C           0.9480    6.5086    0.3903 C.ar    1  LIG1        0.0669
     13 C           0.0177    7.5438   -0.0018 C.ar    1  LIG1        0.0565
     14 C          -1.0635    6.8990   -0.5281 C.ar    1  LIG1        0.1069
     15 O          -0.8766    5.5626   -0.5269 O.2     1  LIG1       -0.4575
     16 H          -2.0017    7.2593   -0.9207 H       1  LIG1        0.1041
     17 S           2.4990    6.7371    1.2032 S.3     1  LIG1       -0.1378
     18 H           2.2498    8.0300    1.5093 H       1  LIG1        0.1072
     19 S           0.1449    9.2872    0.2862 S.3     1  LIG1       -0.1385
     20 H           0.9941    9.5857   -0.7231 H       1  LIG1        0.1072
@<TRIPOS>BOND
     1    10     9    1
     2     8     7    1
     3    16    14    1
     4     9     3    1
     5    20    19    1
     6    14    15   ar
     7    14    13   ar
     8    15    11   ar
     9     3     4   ar
    10     3     2   ar
    11    13    19    1
    12    13    12   ar
    13    11     4    1
    14    11    12   ar
    15     7     2    1
    16     4     5   ar
    17     2     1   ar
    18    12    17    1
    19     5     1   ar
    20     1     6    1
    21    17    18    1
