@<TRIPOS>MOLECULE
mol_data/opt/b3lyp/geoms/mol2/12gg12gg.out
 20 21 0 0 0
SMALL
GASTEIGER

@<TRIPOS>ATOM
      1 C           0.3845    1.8236    0.6504 C.ar    1  LIG1        0.1069
      2 C           1.6687    1.8713    0.1932 C.ar    1  LIG1        0.0565
      3 C           1.9189    3.2501   -0.1462 C.ar    1  LIG1        0.0669
      4 C           0.7625    3.9340    0.1458 C.ar    1  LIG1        0.1849
      5 O          -0.1811    3.0509    0.6362 O.2     1  LIG1       -0.4575
      6 H          -0.2282    1.0104    1.0069 H       1  LIG1        0.1041
      7 S           2.8008    0.5078    0.1375 S.3     1  LIG1       -0.1385
      8 H           2.8960    0.4109   -1.2073 H       1  LIG1        0.1072
      9 S           3.4324    3.8074   -0.8636 S.3     1  LIG1       -0.1378
     10 H           2.9786    5.0281   -1.2112 H       1  LIG1        0.1072
     11 C           0.3628    5.3153    0.0351 C.ar    1  LIG1        0.1849
     12 C           0.9457    6.5089    0.3920 C.ar    1  LIG1        0.0669
     13 C           0.0167    7.5435   -0.0051 C.ar    1  LIG1        0.0565
     14 C          -1.0620    6.8979   -0.5355 C.ar    1  LIG1        0.1069
     15 O          -0.8746    5.5616   -0.5325 O.2     1  LIG1       -0.4575
     16 H          -1.9986    7.2575   -0.9323 H       1  LIG1        0.1041
     17 S           2.4930    6.7383    1.2119 S.3     1  LIG1       -0.1378
     18 H           2.2418    8.0312    1.5167 H       1  LIG1        0.1072
     19 S           0.1420    9.2867    0.2828 S.3     1  LIG1       -0.1385
     20 H           0.9962    9.5850   -0.7224 H       1  LIG1        0.1072
@<TRIPOS>BOND
     1    10     9    1
     2     8     7    1
     3    16    14    1
     4     9     3    1
     5    20    19    1
     6    14    15   ar
     7    14    13   ar
     8    15    11   ar
     9     3     4   ar
    10     3     2   ar
    11    13    19    1
    12    13    12   ar
    13    11     4    1
    14    11    12   ar
    15     7     2    1
    16     4     5   ar
    17     2     1   ar
    18    12    17    1
    19     5     1   ar
    20     1     6    1
    21    17    18    1
