@<TRIPOS>MOLECULE
mol_data/opt/b3lyp/geoms/mol2/12gg12gg12gg12gg.out
 38 41 0 0 0
SMALL
GASTEIGER

@<TRIPOS>ATOM
      1 C           0.9518    1.6784    0.0857 C.ar    1  LIG1        0.1069
      2 C           2.2165    1.9217   -0.3638 C.ar    1  LIG1        0.0565
      3 C           2.3803    3.3559   -0.3465 C.ar    1  LIG1        0.0669
      4 C           1.1876    3.8675    0.1166 C.ar    1  LIG1        0.1850
      5 O           0.3183    2.8304    0.3944 O.2     1  LIG1       -0.4575
      6 H           0.3997    0.7643    0.2393 H       1  LIG1        0.1041
      7 S           3.4124    0.6788   -0.7741 S.3     1  LIG1       -0.1385
      8 H           3.4565    0.8994   -2.1067 H       1  LIG1        0.1072
      9 S           3.8314    4.1601   -0.9493 S.3     1  LIG1       -0.1378
     10 H           3.6553    5.3229   -0.2804 H       1  LIG1        0.1072
     11 C           0.6575    5.1957    0.3161 C.ar    1  LIG1        0.1860
     12 C           1.1477    6.3651    0.8531 C.ar    1  LIG1        0.0677
     13 C           0.0965    7.3415    0.7497 C.ar    1  LIG1        0.0677
     14 C          -0.9671    6.6948    0.1605 C.ar    1  LIG1        0.1860
     15 O          -0.6320    5.3965   -0.1065 O.2     1  LIG1       -0.4463
     16 S           2.7075    6.5810    1.6614 S.3     1  LIG1       -0.1378
     17 H           2.7584    7.9160    1.4618 H       1  LIG1        0.1072
     18 S           0.1895    8.9767    1.4205 S.3     1  LIG1       -0.1378
     19 H          -0.3702    9.6149    0.3625 H       1  LIG1        0.1072
     20 C          -2.3043    7.1050   -0.1960 C.ar    1  LIG1        0.1860
     21 C          -2.8258    8.2096   -0.8306 C.ar    1  LIG1        0.0677
     22 C          -4.2502    8.0167   -0.8893 C.ar    1  LIG1        0.0677
     23 C          -4.4944    6.8013   -0.2894 C.ar    1  LIG1        0.1860
     24 O          -3.3184    6.2453    0.1334 O.2     1  LIG1       -0.4463
     25 S          -1.9005    9.5039   -1.6056 S.3     1  LIG1       -0.1378
     26 H          -2.8528   10.4498   -1.4569 H       1  LIG1        0.1072
     27 S          -5.3627    9.0997   -1.7425 S.3     1  LIG1       -0.1378
     28 H          -6.3425    9.1201   -0.8077 H       1  LIG1        0.1072
     29 C          -5.7024    6.0556   -0.0347 C.ar    1  LIG1        0.1850
     30 C          -6.9330    6.3925    0.4751 C.ar    1  LIG1        0.0669
     31 C          -7.7284    5.1874    0.4387 C.ar    1  LIG1        0.0565
     32 C          -6.9064    4.2130   -0.0494 C.ar    1  LIG1        0.1069
     33 O          -5.6872    4.7103   -0.3434 O.2     1  LIG1       -0.4575
     34 H          -7.0585    3.1606   -0.2318 H       1  LIG1        0.1041
     35 S          -7.3979    7.9500    1.1626 S.3     1  LIG1       -0.1378
     36 H          -8.6914    7.6039    1.3434 H       1  LIG1        0.1072
     37 S          -9.3923    4.9726    1.0113 S.3     1  LIG1       -0.1385
     38 H         -10.0290    5.3179   -0.1308 H       1  LIG1        0.1072
@<TRIPOS>BOND
     1     8     7    1
     2    27    22    1
     3    27    28    1
     4    25    26    1
     5    25    21    1
     6     9     3    1
     7     9    10    1
     8    22    21   ar
     9    22    23   ar
    10    21    20   ar
    11     7     2    1
    12     2     3   ar
    13     2     1   ar
    14     3     4   ar
    15    33    32   ar
    16    33    29   ar
    17    23    29    1
    18    23    24   ar
    19    34    32    1
    20    20    24   ar
    21    20    14    1
    22    38    37    1
    23    15    14   ar
    24    15    11   ar
    25    32    31   ar
    26    29    30   ar
    27     1     6    1
    28     1     5   ar
    29     4    11    1
    30     4     5   ar
    31    14    13   ar
    32    11    12   ar
    33    19    18    1
    34    31    30   ar
    35    31    37    1
    36    30    35    1
    37    13    12   ar
    38    13    18    1
    39    12    16    1
    40    35    36    1
    41    17    16    1
