@<TRIPOS>MOLECULE
mol_data/opt/b3lyp/geoms/mol2/12gg12gg-12gg-12gg-.out
 38 41 0 0 0
SMALL
GASTEIGER

@<TRIPOS>ATOM
      1 C           0.9469    1.6744   -0.1413 C.ar    1  LIG1        0.1069
      2 C           2.2103    1.9135    0.3141 C.ar    1  LIG1        0.0565
      3 C           2.3761    3.3476    0.3056 C.ar    1  LIG1        0.0669
      4 C           1.1857    3.8634   -0.1588 C.ar    1  LIG1        0.1850
      5 O           0.3160    2.8290   -0.4456 O.2     1  LIG1       -0.4575
      6 H           0.3942    0.7620   -0.3021 H       1  LIG1        0.1041
      7 S           3.4032    0.6671    0.7219 S.3     1  LIG1       -0.1385
      8 H           3.4425    0.8801    2.0559 H       1  LIG1        0.1072
      9 S           3.8266    4.1455    0.9179 S.3     1  LIG1       -0.1378
     10 H           3.6497    5.3161    0.2633 H       1  LIG1        0.1072
     11 C           0.6581    5.1934   -0.3528 C.ar    1  LIG1        0.1860
     12 C           1.1516    6.3650   -0.8820 C.ar    1  LIG1        0.0677
     13 C           0.1011    7.3421   -0.7771 C.ar    1  LIG1        0.0677
     14 C          -0.9652    6.6936   -0.1949 C.ar    1  LIG1        0.1860
     15 O          -0.6328    5.3937    0.0664 O.2     1  LIG1       -0.4463
     16 S           2.7150    6.5838   -1.6822 S.3     1  LIG1       -0.1378
     17 H           2.7619    7.9189   -1.4818 H       1  LIG1        0.1072
     18 S           0.1980    8.9808   -1.4393 S.3     1  LIG1       -0.1378
     19 H          -0.3612    9.6146   -0.3785 H       1  LIG1        0.1072
     20 C          -2.3031    7.1040    0.1591 C.ar    1  LIG1        0.1860
     21 C          -2.8250    8.2061    0.7979 C.ar    1  LIG1        0.0677
     22 C          -4.2498    8.0151    0.8509 C.ar    1  LIG1        0.0677
     23 C          -4.4940    6.8033    0.2439 C.ar    1  LIG1        0.1860
     24 O          -3.3174    6.2476   -0.1781 O.2     1  LIG1       -0.4463
     25 S          -1.9002    9.4945    1.5832 S.3     1  LIG1       -0.1378
     26 H          -2.8493   10.4437    1.4341 H       1  LIG1        0.1072
     27 S          -5.3630    9.0958    1.7061 S.3     1  LIG1       -0.1378
     28 H          -6.3414    9.1197    0.7699 H       1  LIG1        0.1072
     29 C          -5.7023    6.0607   -0.0183 C.ar    1  LIG1        0.1850
     30 C          -6.9308    6.4020   -0.5302 C.ar    1  LIG1        0.0669
     31 C          -7.7282    5.1980   -0.5020 C.ar    1  LIG1        0.0565
     32 C          -6.9091    4.2199   -0.0164 C.ar    1  LIG1        0.1069
     33 O          -5.6900    4.7138    0.2838 O.2     1  LIG1       -0.4575
     34 H          -7.0634    3.1668    0.1604 H       1  LIG1        0.1041
     35 S          -7.3916    7.9638   -1.2106 S.3     1  LIG1       -0.1378
     36 H          -8.6847    7.6199   -1.3982 H       1  LIG1        0.1072
     37 S          -9.3907    4.9885   -1.0805 S.3     1  LIG1       -0.1385
     38 H         -10.0303    5.3308    0.0608 H       1  LIG1        0.1072
@<TRIPOS>BOND
     1    16    17    1
     2    16    12    1
     3    18    13    1
     4    18    19    1
     5    36    35    1
     6    35    30    1
     7    37    31    1
     8    37    38    1
     9    12    13   ar
    10    12    11   ar
    11    13    14   ar
    12    30    31   ar
    13    30    29   ar
    14    31    32   ar
    15     5     4   ar
    16     5     1   ar
    17    11     4    1
    18    11    15   ar
    19     6     1    1
    20    14    15   ar
    21    14    20    1
    22    24    20   ar
    23    24    23   ar
    24     4     3   ar
    25     1     2   ar
    26    29    23    1
    27    29    33   ar
    28    32    34    1
    29    32    33   ar
    30    20    21   ar
    31    23    22   ar
    32    10     9    1
    33     3     2   ar
    34     3     9    1
    35     2     7    1
    36     7     8    1
    37    28    27    1
    38    21    22   ar
    39    21    25    1
    40    22    27    1
    41    26    25    1
