@<TRIPOS>MOLECULE
mol_data/opt/b3lyp/geoms/mol2/12gg12gg-12gg.out
 29 31 0 0 0
SMALL
GASTEIGER

@<TRIPOS>ATOM
      1 C           0.5685    1.9290    1.1489 C.ar    1  LIG1        0.1069
      2 C           1.7098    1.8372    0.4075 C.ar    1  LIG1        0.0565
      3 C           1.9761    3.1671   -0.0871 C.ar    1  LIG1        0.0669
      4 C           0.9605    3.9622    0.3990 C.ar    1  LIG1        0.1850
      5 O           0.1077    3.1979    1.1713 O.2     1  LIG1       -0.4575
      6 H           0.0031    1.1974    1.7046 H       1  LIG1        0.1041
      7 S           2.6877    0.3706    0.2200 S.3     1  LIG1       -0.1385
      8 H           2.4733    0.1745   -1.0997 H       1  LIG1        0.1072
      9 S           3.3052    3.5327   -1.1887 S.3     1  LIG1       -0.1378
     10 H           3.4176    4.8401   -0.8530 H       1  LIG1        0.1072
     11 C           0.5690    5.3440    0.2397 C.ar    1  LIG1        0.1860
     12 C           1.2302    6.5527    0.2085 C.ar    1  LIG1        0.0677
     13 C           0.2294    7.5641    0.0061 C.ar    1  LIG1        0.0677
     14 C          -0.9800    6.9104   -0.0334 C.ar    1  LIG1        0.1860
     15 O          -0.7748    5.5607    0.1003 O.2     1  LIG1       -0.4463
     16 S           2.9524    6.8333    0.5151 S.3     1  LIG1       -0.1378
     17 H           3.1322    7.7381   -0.4726 H       1  LIG1        0.1072
     18 S           0.6003    9.2821   -0.1902 S.3     1  LIG1       -0.1378
     19 H          -0.4888    9.5793   -0.9270 H       1  LIG1        0.1072
     20 C          -2.3437    7.3439   -0.2046 C.ar    1  LIG1        0.1850
     21 C          -3.0943    8.3784    0.3074 C.ar    1  LIG1        0.0669
     22 C          -4.4123    8.2377   -0.2707 C.ar    1  LIG1        0.0565
     23 C          -4.3648    7.1212   -1.0536 C.ar    1  LIG1        0.1069
     24 O          -3.1327    6.5723   -1.0377 O.2     1  LIG1       -0.4575
     25 H          -5.1117    6.6229   -1.6519 H       1  LIG1        0.1041
     26 S          -2.5855    9.6025    1.4725 S.3     1  LIG1       -0.1378
     27 H          -3.8525    9.9792    1.7586 H       1  LIG1        0.1072
     28 S          -5.8618    9.1940    0.0795 S.3     1  LIG1       -0.1385
     29 H          -5.5595   10.2768   -0.6719 H       1  LIG1        0.1072
@<TRIPOS>BOND
     1    25    23    1
     2     9    10    1
     3     9     3    1
     4     8     7    1
     5    23    24   ar
     6    23    22   ar
     7    24    20   ar
     8    19    18    1
     9    29    28    1
    10    17    16    1
    11    22    28    1
    12    22    21   ar
    13    20    14    1
    14    20    21   ar
    15    18    13    1
    16     3     4   ar
    17     3     2   ar
    18    14    13   ar
    19    14    15   ar
    20    13    12   ar
    21    15    11   ar
    22    12    11   ar
    23    12    16    1
    24     7     2    1
    25    11     4    1
    26    21    26    1
    27     4     5   ar
    28     2     1   ar
    29     1     5   ar
    30     1     6    1
    31    26    27    1
