@<TRIPOS>MOLECULE
mol_data/opt/b3lyp/geoms/mol2/12gg12gg12gg12gg-.out
 38 41 0 0 0
SMALL
GASTEIGER

@<TRIPOS>ATOM
      1 C           0.9581    1.6815    0.1057 C.ar    1  LIG1        0.1069
      2 C           2.2233    1.9253   -0.3422 C.ar    1  LIG1        0.0565
      3 C           2.3848    3.3598   -0.3295 C.ar    1  LIG1        0.0669
      4 C           1.1904    3.8712    0.1295 C.ar    1  LIG1        0.1850
      5 O           0.3221    2.8336    0.4090 O.2     1  LIG1       -0.4575
      6 H           0.4073    0.7671    0.2613 H       1  LIG1        0.1041
      7 S           3.4223    0.6832   -0.7457 S.3     1  LIG1       -0.1385
      8 H           3.4681    0.8987   -2.0791 H       1  LIG1        0.1072
      9 S           3.8364    4.1634   -0.9318 S.3     1  LIG1       -0.1378
     10 H           3.6529    5.3316   -0.2746 H       1  LIG1        0.1072
     11 C           0.6578    5.1992    0.3233 C.ar    1  LIG1        0.1860
     12 C           1.1452    6.3711    0.8575 C.ar    1  LIG1        0.0677
     13 C           0.0927    7.3456    0.7486 C.ar    1  LIG1        0.0677
     14 C          -0.9686    6.6954    0.1590 C.ar    1  LIG1        0.1860
     15 O          -0.6312    5.3968   -0.1029 O.2     1  LIG1       -0.4463
     16 S           2.7032    6.5926    1.6675 S.3     1  LIG1       -0.1378
     17 H           2.7482    7.9280    1.4692 H       1  LIG1        0.1072
     18 S           0.1815    8.9833    1.4143 S.3     1  LIG1       -0.1378
     19 H          -0.3737    9.6175    0.3515 H       1  LIG1        0.1072
     20 C          -2.3056    7.1031   -0.2014 C.ar    1  LIG1        0.1860
     21 C          -2.8264    8.2050   -0.8414 C.ar    1  LIG1        0.0677
     22 C          -4.2505    8.0109   -0.9026 C.ar    1  LIG1        0.0677
     23 C          -4.4952    6.7976   -0.2988 C.ar    1  LIG1        0.1860
     24 O          -3.3198    6.2439    0.1287 O.2     1  LIG1       -0.4463
     25 S          -1.9001    9.4968   -1.6194 S.3     1  LIG1       -0.1378
     26 H          -2.8523   10.4435   -1.4744 H       1  LIG1        0.1072
     27 S          -5.3611    9.0904   -1.7626 S.3     1  LIG1       -0.1378
     28 H          -6.3453    9.1101   -0.8325 H       1  LIG1        0.1072
     29 C          -5.7034    6.0519   -0.0445 C.ar    1  LIG1        0.1850
     30 C          -6.9356    6.3901    0.4605 C.ar    1  LIG1        0.0669
     31 C          -7.7302    5.1844    0.4264 C.ar    1  LIG1        0.0565
     32 C          -6.9063    4.2086   -0.0556 C.ar    1  LIG1        0.1069
     33 O          -5.6865    4.7055   -0.3481 O.2     1  LIG1       -0.4575
     34 H          -7.0572    3.1554   -0.2344 H       1  LIG1        0.1041
     35 S          -7.4038    7.9500    1.1403 S.3     1  LIG1       -0.1378
     36 H          -8.6972    7.6028    1.3202 H       1  LIG1        0.1072
     37 S          -9.3954    4.9706    0.9953 S.3     1  LIG1       -0.1385
     38 H         -10.0294    5.3125   -0.1492 H       1  LIG1        0.1072
@<TRIPOS>BOND
     1     8     7    1
     2    27    22    1
     3    27    28    1
     4    25    26    1
     5    25    21    1
     6     9     3    1
     7     9    10    1
     8    22    21   ar
     9    22    23   ar
    10    21    20   ar
    11     7     2    1
    12    33    32   ar
    13    33    29   ar
    14     2     3   ar
    15     2     1   ar
    16     3     4   ar
    17    23    29    1
    18    23    24   ar
    19    34    32    1
    20    20    24   ar
    21    20    14    1
    22    38    37    1
    23    15    14   ar
    24    15    11   ar
    25    32    31   ar
    26    29    30   ar
    27     1     6    1
    28     1     5   ar
    29     4    11    1
    30     4     5   ar
    31    14    13   ar
    32    11    12   ar
    33    19    18    1
    34    31    30   ar
    35    31    37    1
    36    30    35    1
    37    13    12   ar
    38    13    18    1
    39    12    16    1
    40    35    36    1
    41    17    16    1
