@<TRIPOS>MOLECULE
mol_data/opt/b3lyp/geoms/mol2/12gg12gg12gg-.out
 29 31 0 0 0
SMALL
GASTEIGER

@<TRIPOS>ATOM
      1 C           0.6088    1.7056    0.4815 C.ar    1  LIG1        0.1069
      2 C           1.8022    1.8369   -0.1658 C.ar    1  LIG1        0.0565
      3 C           2.0221    3.2554   -0.3200 C.ar    1  LIG1        0.0669
      4 C           0.9312    3.8721    0.2528 C.ar    1  LIG1        0.1850
      5 O           0.0724    2.9141    0.7566 O.2     1  LIG1       -0.4575
      6 H           0.0501    0.8412    0.8048 H       1  LIG1        0.1041
      7 S           2.8763    0.4986   -0.6110 S.3     1  LIG1       -0.1385
      8 H           2.7355    0.5886   -1.9522 H       1  LIG1        0.1072
      9 S           3.4015    3.9157   -1.2016 S.3     1  LIG1       -0.1378
     10 H           3.3532    5.1559   -0.6646 H       1  LIG1        0.1072
     11 C           0.4891    5.2397    0.3907 C.ar    1  LIG1        0.1860
     12 C           1.0985    6.4254    0.7347 C.ar    1  LIG1        0.0677
     13 C           0.0799    7.4411    0.6891 C.ar    1  LIG1        0.0677
     14 C          -1.0831    6.8000    0.3263 C.ar    1  LIG1        0.1860
     15 O          -0.8412    5.4692    0.1383 O.2     1  LIG1       -0.4463
     16 S           2.7692    6.6329    1.2799 S.3     1  LIG1       -0.1378
     17 H           2.8129    7.9553    1.0077 H       1  LIG1        0.1072
     18 S           0.3199    9.1221    1.1964 S.3     1  LIG1       -0.1378
     19 H          -0.2635    9.7185    0.1298 H       1  LIG1        0.1072
     20 C          -2.4314    7.2652    0.1106 C.ar    1  LIG1        0.1850
     21 C          -2.9645    8.3224   -0.5863 C.ar    1  LIG1        0.0669
     22 C          -4.3929    8.2622   -0.3804 C.ar    1  LIG1        0.0565
     23 C          -4.6124    7.1548    0.3869 C.ar    1  LIG1        0.1069
     24 O          -3.4509    6.5418    0.6965 O.2     1  LIG1       -0.4575
     25 H          -5.5156    6.7064    0.7708 H       1  LIG1        0.1041
     26 S          -2.0890    9.4399   -1.6349 S.3     1  LIG1       -0.1378
     27 H          -3.1654   10.2178   -1.8835 H       1  LIG1        0.1072
     28 S          -5.6310    9.3282   -1.0682 S.3     1  LIG1       -0.1385
     29 H          -5.6186   10.2762   -0.1039 H       1  LIG1        0.1072
@<TRIPOS>BOND
     1     8     7    1
     2    27    26    1
     3    26    21    1
     4     9    10    1
     5     9     3    1
     6    28    22    1
     7    28    29    1
     8     7     2    1
     9    21    22   ar
    10    21    20   ar
    11    22    23   ar
    12     3     2   ar
    13     3     4   ar
    14     2     1   ar
    15    20    14    1
    16    20    24   ar
    17    19    18    1
    18    15    14   ar
    19    15    11   ar
    20     4    11    1
    21     4     5   ar
    22    14    13   ar
    23    23    24   ar
    24    23    25    1
    25    11    12   ar
    26     1     5   ar
    27     1     6    1
    28    13    12   ar
    29    13    18    1
    30    12    16    1
    31    17    16    1
