@<TRIPOS>MOLECULE
mol_data/opt/b3lyp/geoms/mol2/12gg12gg-12gg12gg-.out
 38 41 0 0 0
SMALL
GASTEIGER

@<TRIPOS>ATOM
      1 C           1.2398    2.3495   -2.1888 C.ar    1  LIG1        0.1069
      2 C           2.0722    2.0071   -1.1638 C.ar    1  LIG1        0.0565
      3 C           2.0231    3.1029   -0.2282 C.ar    1  LIG1        0.0669
      4 C           1.1683    4.0336   -0.7717 C.ar    1  LIG1        0.1850
      5 O           0.6868    3.5642   -1.9791 O.2     1  LIG1       -0.4575
      6 H           0.9620    1.8399   -3.0982 H       1  LIG1        0.1041
      7 S           3.0705    0.5445   -1.0826 S.3     1  LIG1       -0.1385
      8 H           2.4351   -0.0463   -0.0463 H       1  LIG1        0.1072
      9 S           2.8762    3.0859    1.3168 S.3     1  LIG1       -0.1378
     10 H           2.2362    4.1490    1.8425 H       1  LIG1        0.1072
     11 C           0.6912    5.3254   -0.3450 C.ar    1  LIG1        0.1860
     12 C           1.3059    6.4438    0.1748 C.ar    1  LIG1        0.0677
     13 C           0.2645    7.4125    0.3983 C.ar    1  LIG1        0.0677
     14 C          -0.9045    6.8291   -0.0379 C.ar    1  LIG1        0.1860
     15 O          -0.6547    5.5635   -0.4846 O.2     1  LIG1       -0.4463
     16 S           3.0365    6.6611    0.4648 S.3     1  LIG1       -0.1378
     17 H           2.9318    7.9957    0.6500 H       1  LIG1        0.1072
     18 S           0.5045    8.9799    1.1857 S.3     1  LIG1       -0.1378
     19 H          -0.1444    9.7247    0.2569 H       1  LIG1        0.1072
     20 C          -2.2783    7.2729   -0.0940 C.ar    1  LIG1        0.1860
     21 C          -2.8946    8.4339   -0.5033 C.ar    1  LIG1        0.0677
     22 C          -4.3030    8.2487   -0.2858 C.ar    1  LIG1        0.0677
     23 C          -4.4532    6.9707    0.2026 C.ar    1  LIG1        0.1860
     24 O          -3.2230    6.3778    0.3251 O.2     1  LIG1       -0.4463
     25 S          -2.1247    9.8115   -1.3073 S.3     1  LIG1       -0.1378
     26 H          -2.8009   10.7707   -0.6372 H       1  LIG1        0.1072
     27 S          -5.5125    9.5057   -0.5775 S.3     1  LIG1       -0.1378
     28 H          -6.3901    9.0789    0.3526 H       1  LIG1        0.1072
     29 C          -5.5907    6.1885    0.6167 C.ar    1  LIG1        0.1850
     30 C          -6.8530    5.9815    0.1068 C.ar    1  LIG1        0.0669
     31 C          -7.5018    5.0616    1.0145 C.ar    1  LIG1        0.0565
     32 C          -6.5791    4.7626    1.9742 C.ar    1  LIG1        0.1069
     33 O          -5.4276    5.4322    1.7623 O.2     1  LIG1       -0.4575
     34 H          -6.6104    4.1085    2.8317 H       1  LIG1        0.1041
     35 S          -7.5393    6.6470   -1.3762 S.3     1  LIG1       -0.1378
     36 H          -8.5634    5.7638   -1.3978 H       1  LIG1        0.1072
     37 S          -9.1024    4.3201    0.8513 S.3     1  LIG1       -0.1385
     38 H          -9.8408    5.3723    1.2713 H       1  LIG1        0.1072
@<TRIPOS>BOND
     1     6     1    1
     2     1     5   ar
     3     1     2   ar
     4     5     4   ar
     5    36    35    1
     6    35    30    1
     7    25    26    1
     8    25    21    1
     9     2     7    1
    10     2     3   ar
    11     7     8    1
    12     4    11    1
    13     4     3   ar
    14    27    22    1
    15    27    28    1
    16    21    22   ar
    17    21    20   ar
    18    15    11   ar
    19    15    14   ar
    20    11    12   ar
    21    22    23   ar
    22     3     9    1
    23    20    14    1
    24    20    24   ar
    25    14    13   ar
    26    30    29   ar
    27    30    31   ar
    28    12    13   ar
    29    12    16    1
    30    23    24   ar
    31    23    29    1
    32    19    18    1
    33    13    18    1
    34    16    17    1
    35    29    33   ar
    36    37    31    1
    37    37    38    1
    38    31    32   ar
    39     9    10    1
    40    33    32   ar
    41    32    34    1
