@<TRIPOS>MOLECULE
mol_data/opt/b3lyp/geoms/mol2/12gg.out
 11 11 0 0 0
SMALL
GASTEIGER

@<TRIPOS>ATOM
      1 C           0.0798    1.8994   -0.0000 C.ar    1  LIG1        0.1059
      2 C           1.4443    1.8923    0.0000 C.ar    1  LIG1        0.0557
      3 C           1.8439    3.2794   -0.0000 C.ar    1  LIG1        0.0557
      4 C           0.6879    4.0036   -0.0001 C.ar    1  LIG1        0.1059
      5 O          -0.3939    3.1767   -0.0001 O.2     1  LIG1       -0.4688
      6 H          -0.6591    1.1139   -0.0000 H       1  LIG1        0.1041
      7 H           0.4826    5.0621   -0.0001 H       1  LIG1        0.1041
      8 S           2.4613    0.4361    0.0001 S.3     1  LIG1       -0.1386
      9 H           3.6446    1.0785    0.0002 H       1  LIG1        0.1072
     10 S           3.5269    3.8381   -0.0000 S.3     1  LIG1       -0.1386
     11 H           3.2470    5.1551    0.0000 H       1  LIG1        0.1072
@<TRIPOS>BOND
     1     7     4    1
     2     5     4   ar
     3     5     1   ar
     4     4     3   ar
     5     1     6    1
     6     1     2   ar
     7     3    10    1
     8     3     2   ar
     9    10    11    1
    10     2     8    1
    11     8     9    1
