@<TRIPOS>MOLECULE
mol_data/opt/b3lyp/geoms/mol2/12gg12gg-12gg-12gg.out
 38 41 0 0 0
SMALL
GASTEIGER

@<TRIPOS>ATOM
      1 C           0.9325    1.6477   -0.0016 C.ar    1  LIG1        0.1069
      2 C           2.1778    1.9018    0.4925 C.ar    1  LIG1        0.0565
      3 C           2.3214    3.3377    0.5036 C.ar    1  LIG1        0.0669
      4 C           1.1432    3.8393   -0.0040 C.ar    1  LIG1        0.1850
      5 O           0.2907    2.7997   -0.3082 O.2     1  LIG1       -0.4575
      6 H           0.3934    0.7310   -0.1819 H       1  LIG1        0.1041
      7 S           3.2959    0.6828    1.1270 S.3     1  LIG1       -0.1385
      8 H           4.3630    1.0284    0.3750 H       1  LIG1        0.1072
      9 S           3.7377    4.1625    1.1646 S.3     1  LIG1       -0.1378
     10 H           3.6817    5.2425    0.3488 H       1  LIG1        0.1072
     11 C           0.6246    5.1676   -0.2314 C.ar    1  LIG1        0.1860
     12 C           1.1389    6.3255   -0.7700 C.ar    1  LIG1        0.0677
     13 C           0.0952    7.3130   -0.7044 C.ar    1  LIG1        0.0677
     14 C          -0.9883    6.6830   -0.1335 C.ar    1  LIG1        0.1860
     15 O          -0.6723    5.3840    0.1557 O.2     1  LIG1       -0.4463
     16 S           2.7147    6.5095   -1.5545 S.3     1  LIG1       -0.1378
     17 H           2.8163    7.8353   -1.3172 H       1  LIG1        0.1072
     18 S           0.2244    8.9394   -1.3904 S.3     1  LIG1       -0.1378
     19 H          -0.3769    9.5920   -0.3645 H       1  LIG1        0.1072
     20 C          -2.3306    7.1078    0.1850 C.ar    1  LIG1        0.1860
     21 C          -2.8601    8.2253    0.7898 C.ar    1  LIG1        0.0677
     22 C          -4.2866    8.0418    0.8175 C.ar    1  LIG1        0.0677
     23 C          -4.5242    6.8187    0.2309 C.ar    1  LIG1        0.1860
     24 O          -3.3420    6.2493   -0.1553 O.2     1  LIG1       -0.4463
     25 S          -1.9459    9.5266    1.5665 S.3     1  LIG1       -0.1378
     26 H          -2.8882   10.4756    1.3784 H       1  LIG1        0.1072
     27 S          -5.4118    9.1450    1.6270 S.3     1  LIG1       -0.1378
     28 H          -6.3705    9.1539    0.6704 H       1  LIG1        0.1072
     29 C          -5.7304    6.0759   -0.0403 C.ar    1  LIG1        0.1850
     30 C          -6.9468    6.4117   -0.5838 C.ar    1  LIG1        0.0669
     31 C          -7.7502    5.2121   -0.5468 C.ar    1  LIG1        0.0565
     32 C          -6.9457    4.2409   -0.0243 C.ar    1  LIG1        0.1069
     33 O          -5.7307    4.7357    0.2900 O.2     1  LIG1       -0.4575
     34 H          -7.1084    3.1924    0.1713 H       1  LIG1        0.1041
     35 S          -7.3865    7.9609   -1.3059 S.3     1  LIG1       -0.1378
     36 H          -8.6775    7.6191   -1.5113 H       1  LIG1        0.1072
     37 S          -9.4018    4.9978   -1.1541 S.3     1  LIG1       -0.1385
     38 H         -10.0625    5.3642   -0.0325 H       1  LIG1        0.1072
@<TRIPOS>BOND
     1    16    17    1
     2    16    12    1
     3    36    35    1
     4    18    13    1
     5    18    19    1
     6    35    30    1
     7    37    31    1
     8    37    38    1
     9    12    13   ar
    10    12    11   ar
    11    13    14   ar
    12    30    31   ar
    13    30    29   ar
    14    31    32   ar
    15     5     4   ar
    16     5     1   ar
    17    11     4    1
    18    11    15   ar
    19     6     1    1
    20    24    20   ar
    21    24    23   ar
    22    14    15   ar
    23    14    20    1
    24    29    23    1
    25    29    33   ar
    26    32    34    1
    27    32    33   ar
    28     4     3   ar
    29     1     2   ar
    30    20    21   ar
    31    23    22   ar
    32    10     9    1
    33     8     7    1
    34     2     3   ar
    35     2     7    1
    36     3     9    1
    37    28    27    1
    38    21    22   ar
    39    21    25    1
    40    22    27    1
    41    26    25    1
