@<TRIPOS>MOLECULE
mol_data/opt/b3lyp/geoms/mol2/12gg12gg-12gg-.out
 29 31 0 0 0
SMALL
GASTEIGER

@<TRIPOS>ATOM
      1 C           0.6102    1.9278    1.1730 C.ar    1  LIG1        0.1069
      2 C           1.6507    1.8131    0.2989 C.ar    1  LIG1        0.0565
      3 C           1.8130    3.1132   -0.3060 C.ar    1  LIG1        0.0669
      4 C           0.8569    3.9204    0.2689 C.ar    1  LIG1        0.1850
      5 O           0.1166    3.1881    1.1735 O.2     1  LIG1       -0.4575
      6 H           0.1325    1.2207    1.8327 H       1  LIG1        0.1041
      7 S           2.4969    0.3072   -0.0949 S.3     1  LIG1       -0.1385
      8 H           3.7475    0.7452    0.1661 H       1  LIG1        0.1072
      9 S           2.9785    3.4392   -1.5939 S.3     1  LIG1       -0.1378
     10 H           3.1688    4.7481   -1.3048 H       1  LIG1        0.1072
     11 C           0.4666    5.2998    0.0997 C.ar    1  LIG1        0.1860
     12 C           1.1461    6.4901   -0.0007 C.ar    1  LIG1        0.0677
     13 C           0.1530    7.5172   -0.1869 C.ar    1  LIG1        0.0677
     14 C          -1.0685    6.8812   -0.1548 C.ar    1  LIG1        0.1860
     15 O          -0.8859    5.5425    0.0193 O.2     1  LIG1       -0.4463
     16 S           2.8867    6.7346    0.1809 S.3     1  LIG1       -0.1378
     17 H           2.8993    7.9107   -0.4856 H       1  LIG1        0.1072
     18 S           0.4629    9.2080   -0.6104 S.3     1  LIG1       -0.1378
     19 H           0.6844    9.6865    0.6342 H       1  LIG1        0.1072
     20 C          -2.4368    7.3261   -0.2648 C.ar    1  LIG1        0.1850
     21 C          -3.1412    8.4083    0.2100 C.ar    1  LIG1        0.0669
     22 C          -4.5009    8.2270   -0.2430 C.ar    1  LIG1        0.0565
     23 C          -4.5167    7.0479   -0.9293 C.ar    1  LIG1        0.1069
     24 O          -3.2866    6.4916   -0.9598 O.2     1  LIG1       -0.4575
     25 H          -5.3064    6.5069   -1.4268 H       1  LIG1        0.1041
     26 S          -2.5346    9.7434    1.1909 S.3     1  LIG1       -0.1378
     27 H          -3.7123    9.9518    1.8210 H       1  LIG1        0.1072
     28 S          -5.9215    9.2120    0.1429 S.3     1  LIG1       -0.1385
     29 H          -5.5985   10.2939   -0.6001 H       1  LIG1        0.1072
@<TRIPOS>BOND
     1     9    10    1
     2     9     3    1
     3    25    23    1
     4    24    23   ar
     5    24    20   ar
     6    23    22   ar
     7    18    13    1
     8    18    19    1
     9    29    28    1
    10    17    16    1
    11     3     4   ar
    12     3     2   ar
    13    20    14    1
    14    20    21   ar
    15    22    28    1
    16    22    21   ar
    17    13    14   ar
    18    13    12   ar
    19    14    15   ar
    20     7     8    1
    21     7     2    1
    22    12    11   ar
    23    12    16    1
    24    15    11   ar
    25    11     4    1
    26    21    26    1
    27     4     5   ar
    28     2     1   ar
    29     1     5   ar
    30     1     6    1
    31    26    27    1
