@<TRIPOS>MOLECULE
mol_data/opt/b3lyp/geoms/mol2/12gh12gh12gh-12gh-.out
 42 45 0 0 0
SMALL
GASTEIGER

@<TRIPOS>ATOM
      1 C           0.2942    1.9475   -0.9416 C.ar    1  LIG1        0.1077
      2 C           1.5967    1.8604   -0.5424 C.ar    1  LIG1        0.0640
      3 C           2.0161    3.2005   -0.2119 C.ar    1  LIG1        0.0874
      4 C           0.9097    4.0073   -0.4385 C.ar    1  LIG1        0.1924
      5 O          -0.1410    3.2159   -0.8899 O.2     1  LIG1       -0.4568
      6 H          -0.4095    1.2047   -1.2844 H       1  LIG1        0.1041
      7 S           2.6162    0.4117   -0.5440 S.3     1  LIG1       -0.1378
      8 H           2.6055    0.1635    0.7857 H       1  LIG1        0.1073
      9 N           3.2563    3.5060    0.3001 N.pl3   1  LIG1       -0.3541
     10 H           3.9608    2.8126    0.0783 H       1  LIG1        0.1425
     11 H           3.5635    4.4614    0.1567 H       1  LIG1        0.1425
     12 C           0.5917    5.4002   -0.2872 C.ar    1  LIG1        0.1875
     13 C           1.3111    6.5733   -0.1066 C.ar    1  LIG1        0.0752
     14 C           0.3592    7.6484   -0.0471 C.ar    1  LIG1        0.0882
     15 C          -0.8898    7.0674   -0.2019 C.ar    1  LIG1        0.1935
     16 O          -0.7269    5.6960   -0.3448 O.2     1  LIG1       -0.4455
     17 S           3.0628    6.8299   -0.1005 S.3     1  LIG1       -0.1371
     18 H           3.2422    7.0552    1.2237 H       1  LIG1        0.1073
     19 N           0.7040    8.9598    0.1957 N.pl3   1  LIG1       -0.3541
     20 H           1.6570    9.1774   -0.0711 H       1  LIG1        0.1425
     21 H           0.0299    9.6468   -0.1242 H       1  LIG1        0.1425
     22 C          -2.2519    7.5163   -0.2089 C.ar    1  LIG1        0.1875
     23 C          -2.9025    8.7403   -0.3091 C.ar    1  LIG1        0.0752
     24 C          -4.3140    8.4743   -0.2601 C.ar    1  LIG1        0.0882
     25 C          -4.4447    7.1023   -0.1426 C.ar    1  LIG1        0.1934
     26 O          -3.1791    6.5338   -0.1117 O.2     1  LIG1       -0.4455
     27 S          -2.2330   10.3525   -0.6009 S.3     1  LIG1       -0.1371
     28 H          -2.3840   10.8803    0.6385 H       1  LIG1        0.1073
     29 N          -5.2830    9.4582   -0.2552 N.pl3   1  LIG1       -0.3541
     30 H          -4.9680   10.3194   -0.6873 H       1  LIG1        0.1425
     31 H          -6.1878    9.1560   -0.6012 H       1  LIG1        0.1425
     32 C          -5.5335    6.1752    0.0001 C.ar    1  LIG1        0.1865
     33 C          -6.8988    6.1962   -0.2460 C.ar    1  LIG1        0.0745
     34 C          -7.4087    4.8973    0.1196 C.ar    1  LIG1        0.0769
     35 C          -6.3331    4.1819    0.5547 C.ar    1  LIG1        0.1144
     36 O          -5.1941    4.9519    0.4875 O.2     1  LIG1       -0.4567
     37 H          -6.2041    3.1793    0.9276 H       1  LIG1        0.1049
     38 S          -7.8745    7.4445   -1.0358 S.3     1  LIG1       -0.1371
     39 H          -8.6001    7.8575    0.0318 H       1  LIG1        0.1073
     40 N          -8.7575    4.5398    0.0751 N.pl3   1  LIG1       -0.3547
     41 H          -9.2470    4.9999   -0.6856 H       1  LIG1        0.1424
     42 H          -8.9078    3.5394    0.0366 H       1  LIG1        0.1424
@<TRIPOS>BOND
     1     6     1    1
     2    38    33    1
     3    38    39    1
     4     1     5   ar
     5     1     2   ar
     6     5     4   ar
     7    30    29    1
     8    41    40    1
     9    31    29    1
    10    27    23    1
    11    27    28    1
    12     7     2    1
    13     7     8    1
    14     2     3   ar
    15     4    12    1
    16     4     3   ar
    17    16    12   ar
    18    16    15   ar
    19    23    24   ar
    20    23    22   ar
    21    12    13   ar
    22    24    29    1
    23    24    25   ar
    24    33    32   ar
    25    33    34   ar
    26     3     9    1
    27    22    15    1
    28    22    26   ar
    29    15    14   ar
    30    25    26   ar
    31    25    32    1
    32    21    19    1
    33    13    17    1
    34    13    14   ar
    35    17    18    1
    36    20    19    1
    37    14    19    1
    38    32    36   ar
    39    42    40    1
    40    40    34    1
    41    10     9    1
    42    34    35   ar
    43    11     9    1
    44    36    35   ar
    45    35    37    1
