@<TRIPOS>MOLECULE
mol_data/opt/b3lyp/geoms/mol2/12gh12gh.out
 22 23 0 0 0
SMALL
GASTEIGER

@<TRIPOS>ATOM
      1 C           0.2388    1.8530   -0.3423 C.ar    1  LIG1        0.1077
      2 C           1.5963    1.8655   -0.2011 C.ar    1  LIG1        0.0640
      3 C           1.9859    3.2504   -0.0865 C.ar    1  LIG1        0.0874
      4 C           0.8116    3.9784   -0.1680 C.ar    1  LIG1        0.1924
      5 O          -0.2562    3.1028   -0.3284 O.2     1  LIG1       -0.4568
      6 H          -0.4699    1.0489   -0.4663 H       1  LIG1        0.1041
      7 S           2.6842    0.4686   -0.2642 S.3     1  LIG1       -0.1378
      8 H           2.9481    0.3652    1.0585 H       1  LIG1        0.1073
      9 N           3.2798    3.6709    0.1482 N.pl3   1  LIG1       -0.3541
     10 H           3.9696    2.9867   -0.1408 H       1  LIG1        0.1425
     11 H           3.4877    4.6048   -0.1890 H       1  LIG1        0.1425
     12 C           0.4544    5.3709   -0.0796 C.ar    1  LIG1        0.1865
     13 C           1.1135    6.5745   -0.2625 C.ar    1  LIG1        0.0745
     14 C           0.1489    7.6200   -0.0208 C.ar    1  LIG1        0.0769
     15 C          -1.0187    6.9865    0.2855 C.ar    1  LIG1        0.1144
     16 O          -0.8395    5.6220    0.2547 O.2     1  LIG1       -0.4567
     17 H          -2.0091    7.3274    0.5386 H       1  LIG1        0.1049
     18 S           2.7536    6.8646   -0.8647 S.3     1  LIG1       -0.1371
     19 H           3.2962    7.3875    0.2611 H       1  LIG1        0.1073
     20 N           0.4447    8.9835   -0.0454 N.pl3   1  LIG1       -0.3547
     21 H           1.1493    9.2086   -0.7401 H       1  LIG1        0.1424
     22 H          -0.3703    9.5717   -0.1660 H       1  LIG1        0.1424
@<TRIPOS>BOND
     1    18    13    1
     2    18    19    1
     3    21    20    1
     4     6     1    1
     5     1     5   ar
     6     1     2   ar
     7     5     4   ar
     8     7     2    1
     9     7     8    1
    10    13    12   ar
    11    13    14   ar
    12     2     3   ar
    13    11     9    1
    14     4     3   ar
    15     4    12    1
    16    22    20    1
    17    10     9    1
    18     3     9    1
    19    12    16   ar
    20    20    14    1
    21    14    15   ar
    22    16    15   ar
    23    15    17    1
