@<TRIPOS>MOLECULE
mol_data/opt/b3lyp/geoms/mol2/12gh.out
 12 12 0 0 0
SMALL
GASTEIGER

@<TRIPOS>ATOM
      1 C           0.1873    1.9046    0.0231 C.ar    1  LIG1        0.1067
      2 C           1.5437    1.9521   -0.1247 C.ar    1  LIG1        0.0633
      3 C           1.9049    3.3525   -0.1230 C.ar    1  LIG1        0.0762
      4 C           0.7308    4.0326    0.0342 C.ar    1  LIG1        0.1134
      5 O          -0.3249    3.1494    0.1215 O.2     1  LIG1       -0.4680
      6 H          -0.5113    1.0834    0.0634 H       1  LIG1        0.1041
      7 H           0.4800    5.0781    0.1083 H       1  LIG1        0.1049
      8 S           2.6286    0.5799   -0.4082 S.3     1  LIG1       -0.1378
      9 H           3.2262    0.5489    0.8047 H       1  LIG1        0.1073
     10 N           3.2136    3.8301   -0.1899 N.pl3   1  LIG1       -0.3547
     11 H           3.8180    3.2090   -0.7171 H       1  LIG1        0.1424
     12 H           3.2871    4.7785   -0.5352 H       1  LIG1        0.1424
@<TRIPOS>BOND
     1    11    10    1
     2    12    10    1
     3     8     2    1
     4     8     9    1
     5    10     3    1
     6     2     3   ar
     7     2     1   ar
     8     3     4   ar
     9     1     6    1
    10     1     5   ar
    11     4     7    1
    12     4     5   ar
