@<TRIPOS>MOLECULE
mol_data/opt/b3lyp/geoms/mol2/12gh12gh-12gh12gh.out
 42 45 0 0 0
SMALL
GASTEIGER

@<TRIPOS>ATOM
      1 C           0.2751    1.9469   -0.9458 C.ar    1  LIG1        0.1077
      2 C           1.5817    1.8542   -0.5614 C.ar    1  LIG1        0.0640
      3 C           2.0078    3.1913   -0.2270 C.ar    1  LIG1        0.0874
      4 C           0.9008    4.0021   -0.4362 C.ar    1  LIG1        0.1924
      5 O          -0.1565    3.2159   -0.8812 O.2     1  LIG1       -0.4568
      6 H          -0.4341    1.2079   -1.2856 H       1  LIG1        0.1041
      7 S           2.5976    0.4033   -0.5833 S.3     1  LIG1       -0.1378
      8 H           2.6008    0.1466    0.7449 H       1  LIG1        0.1073
      9 N           3.2542    3.4907    0.2734 N.pl3   1  LIG1       -0.3541
     10 H           3.9546    2.7971    0.0395 H       1  LIG1        0.1425
     11 H           3.5620    4.4463    0.1331 H       1  LIG1        0.1425
     12 C           0.5878    5.3946   -0.2727 C.ar    1  LIG1        0.1875
     13 C           1.3118    6.5649   -0.0920 C.ar    1  LIG1        0.0752
     14 C           0.3631    7.6418   -0.0157 C.ar    1  LIG1        0.0882
     15 C          -0.8888    7.0647   -0.1612 C.ar    1  LIG1        0.1935
     16 O          -0.7306    5.6938   -0.3146 O.2     1  LIG1       -0.4455
     17 S           3.0640    6.8175   -0.1025 S.3     1  LIG1       -0.1371
     18 H           3.2577    7.0338    1.2212 H       1  LIG1        0.1073
     19 N           0.7135    8.9508    0.2320 N.pl3   1  LIG1       -0.3541
     20 H           1.6641    9.1679   -0.0437 H       1  LIG1        0.1425
     21 H           0.0377    9.6413   -0.0763 H       1  LIG1        0.1425
     22 C          -2.2499    7.5167   -0.1508 C.ar    1  LIG1        0.1875
     23 C          -2.8986    8.7427   -0.2362 C.ar    1  LIG1        0.0752
     24 C          -4.3102    8.4797   -0.1737 C.ar    1  LIG1        0.0882
     25 C          -4.4428    7.1072   -0.0635 C.ar    1  LIG1        0.1934
     26 O          -3.1783    6.5357   -0.0499 O.2     1  LIG1       -0.4455
     27 S          -2.2285   10.3552   -0.5250 S.3     1  LIG1       -0.1371
     28 H          -2.3650   10.8756    0.7192 H       1  LIG1        0.1073
     29 N          -5.2768    9.4657   -0.1521 N.pl3   1  LIG1       -0.3541
     30 H          -4.9644   10.3291   -0.5818 H       1  LIG1        0.1425
     31 H          -6.1859    9.1679   -0.4904 H       1  LIG1        0.1425
     32 C          -5.5322    6.1818    0.0849 C.ar    1  LIG1        0.1865
     33 C          -6.9000    6.2075   -0.1467 C.ar    1  LIG1        0.0745
     34 C          -7.4091    4.9076    0.2163 C.ar    1  LIG1        0.0769
     35 C          -6.3307    4.1870    0.6355 C.ar    1  LIG1        0.1144
     36 O          -5.1906    4.9547    0.5610 O.2     1  LIG1       -0.4567
     37 H          -6.2001    3.1817    1.0007 H       1  LIG1        0.1049
     38 S          -7.8810    7.4630   -0.9181 S.3     1  LIG1       -0.1371
     39 H          -8.5940    7.8711    0.1596 H       1  LIG1        0.1073
     40 N          -8.7592    4.5535    0.1839 N.pl3   1  LIG1       -0.3547
     41 H          -9.2557    5.0196   -0.5685 H       1  LIG1        0.1424
     42 H          -8.9123    3.5538    0.1406 H       1  LIG1        0.1424
@<TRIPOS>BOND
     1     6     1    1
     2     1     5   ar
     3     1     2   ar
     4    38    33    1
     5    38    39    1
     6     5     4   ar
     7     7     2    1
     8     7     8    1
     9    30    29    1
    10    41    40    1
    11     2     3   ar
    12    27    23    1
    13    27    28    1
    14    31    29    1
    15     4    12    1
    16     4     3   ar
    17    16    12   ar
    18    16    15   ar
    19    12    13   ar
    20    23    24   ar
    21    23    22   ar
    22     3     9    1
    23    24    29    1
    24    24    25   ar
    25    15    22    1
    26    15    14   ar
    27    22    26   ar
    28    33    32   ar
    29    33    34   ar
    30    17    13    1
    31    17    18    1
    32    13    14   ar
    33    21    19    1
    34    25    26   ar
    35    25    32    1
    36    20    19    1
    37    14    19    1
    38    10     9    1
    39    32    36   ar
    40    11     9    1
    41    42    40    1
    42    40    34    1
    43    34    35   ar
    44    36    35   ar
    45    35    37    1
