@<TRIPOS>MOLECULE
mol_data/opt/b3lyp/geoms/mol2/12gh12gh-12gh.out
 32 34 0 0 0
SMALL
GASTEIGER

@<TRIPOS>ATOM
      1 C           0.2690    1.8732   -0.6170 C.ar    1  LIG1        0.1077
      2 C           1.6004    1.8326   -0.3192 C.ar    1  LIG1        0.0640
      3 C           2.0183    3.1983   -0.1146 C.ar    1  LIG1        0.0874
      4 C           0.8827    3.9717   -0.3058 C.ar    1  LIG1        0.1924
      5 O          -0.1853    3.1367   -0.6167 O.2     1  LIG1       -0.4568
      6 H          -0.4451    1.0986   -0.8504 H       1  LIG1        0.1041
      7 S           2.6443    0.4015   -0.3059 S.3     1  LIG1       -0.1378
      8 H           2.7570    0.2540    1.0340 H       1  LIG1        0.1073
      9 N           3.2893    3.5568    0.2757 N.pl3   1  LIG1       -0.3541
     10 H           3.9878    2.8621    0.0389 H       1  LIG1        0.1425
     11 H           3.5632    4.5042    0.0403 H       1  LIG1        0.1425
     12 C           0.5519    5.3683   -0.2243 C.ar    1  LIG1        0.1875
     13 C           1.2602    6.5605   -0.1916 C.ar    1  LIG1        0.0752
     14 C           0.2951    7.6241   -0.1158 C.ar    1  LIG1        0.0882
     15 C          -0.9476    7.0172   -0.1168 C.ar    1  LIG1        0.1934
     16 O          -0.7734    5.6419   -0.1821 O.2     1  LIG1       -0.4455
     17 S           3.0000    6.8391   -0.3641 S.3     1  LIG1       -0.1371
     18 H           3.2906    7.1764    0.9158 H       1  LIG1        0.1073
     19 N           0.6293    8.9576    0.0114 N.pl3   1  LIG1       -0.3541
     20 H           1.5494    9.1682   -0.3581 H       1  LIG1        0.1425
     21 H          -0.0818    9.6016   -0.3195 H       1  LIG1        0.1425
     22 C          -2.3141    7.4538   -0.0220 C.ar    1  LIG1        0.1865
     23 C          -2.9944    8.6474   -0.2132 C.ar    1  LIG1        0.0745
     24 C          -4.3880    8.3796    0.0461 C.ar    1  LIG1        0.0769
     25 C          -4.4609    7.0575    0.3699 C.ar    1  LIG1        0.1144
     26 O          -3.2067    6.4914    0.3333 O.2     1  LIG1       -0.4567
     27 H          -5.2690    6.3981    0.6406 H       1  LIG1        0.1049
     28 S          -2.3930   10.1911   -0.8383 S.3     1  LIG1       -0.1371
     29 H          -2.4929   10.9316    0.2922 H       1  LIG1        0.1073
     30 N          -5.3934    9.3473    0.0204 N.pl3   1  LIG1       -0.3547
     31 H          -5.2153   10.0632   -0.6764 H       1  LIG1        0.1424
     32 H          -6.3217    8.9616   -0.0989 H       1  LIG1        0.1424
@<TRIPOS>BOND
     1     6     1    1
     2    28    23    1
     3    28    29    1
     4    31    30    1
     5     1     5   ar
     6     1     2   ar
     7     5     4   ar
     8    17    13    1
     9    17    18    1
    10    20    19    1
    11    21    19    1
    12     2     7    1
    13     2     3   ar
    14     7     8    1
    15     4    12    1
    16     4     3   ar
    17    12    13   ar
    18    12    16   ar
    19    23    22   ar
    20    23    24   ar
    21    13    14   ar
    22    16    15   ar
    23    15    14   ar
    24    15    22    1
    25    14    19    1
    26     3     9    1
    27    32    30    1
    28    22    26   ar
    29    30    24    1
    30    10     9    1
    31    11     9    1
    32    24    25   ar
    33    26    25   ar
    34    25    27    1
