@<TRIPOS>MOLECULE
mol_data/opt/b3lyp/geoms/mol2/12gh12gh-12gh12gh-.out
 42 45 0 0 0
SMALL
GASTEIGER

@<TRIPOS>ATOM
      1 C           0.2707    1.9346   -0.9024 C.ar    1  LIG1        0.1077
      2 C           1.5769    1.8445   -0.5159 C.ar    1  LIG1        0.0640
      3 C           2.0044    3.1846   -0.1958 C.ar    1  LIG1        0.0874
      4 C           0.8987    3.9944   -0.4149 C.ar    1  LIG1        0.1924
      5 O          -0.1593    3.2048   -0.8521 O.2     1  LIG1       -0.4568
      6 H          -0.4391    1.1928   -1.2347 H       1  LIG1        0.1041
      7 S           2.5909    0.3921   -0.5209 S.3     1  LIG1       -0.1378
      8 H           2.5926    0.1500    0.8099 H       1  LIG1        0.1073
      9 N           3.2508    3.4878    0.3023 N.pl3   1  LIG1       -0.3541
     10 H           3.9505    2.7908    0.0767 H       1  LIG1        0.1425
     11 H           3.5600    4.4414    0.1517 H       1  LIG1        0.1425
     12 C           0.5874    5.3891   -0.2669 C.ar    1  LIG1        0.1875
     13 C           1.3129    6.5604   -0.0991 C.ar    1  LIG1        0.0752
     14 C           0.3656    7.6393   -0.0352 C.ar    1  LIG1        0.0882
     15 C          -0.8871    7.0622   -0.1747 C.ar    1  LIG1        0.1935
     16 O          -0.7306    5.6896   -0.3127 O.2     1  LIG1       -0.4455
     17 S           3.0655    6.8105   -0.1115 S.3     1  LIG1       -0.1371
     18 H           3.2587    7.0414    1.2098 H       1  LIG1        0.1073
     19 N           0.7177    8.9505    0.1982 N.pl3   1  LIG1       -0.3541
     20 H           1.6685    9.1633   -0.0799 H       1  LIG1        0.1425
     21 H           0.0428    9.6385   -0.1179 H       1  LIG1        0.1425
     22 C          -2.2475    7.5161   -0.1702 C.ar    1  LIG1        0.1875
     23 C          -2.8946    8.7420   -0.2692 C.ar    1  LIG1        0.0752
     24 C          -4.3066    8.4814   -0.2050 C.ar    1  LIG1        0.0882
     25 C          -4.4411    7.1104   -0.0802 C.ar    1  LIG1        0.1934
     26 O          -3.1773    6.5375   -0.0594 O.2     1  LIG1       -0.4455
     27 S          -2.2223   10.3505   -0.5747 S.3     1  LIG1       -0.1371
     28 H          -2.3589   10.8842    0.6638 H       1  LIG1        0.1073
     29 N          -5.2720    9.4688   -0.1947 N.pl3   1  LIG1       -0.3541
     30 H          -4.9581   10.3271   -0.6333 H       1  LIG1        0.1425
     31 H          -6.1812    9.1685   -0.5306 H       1  LIG1        0.1425
     32 C          -5.5318    6.1881    0.0775 C.ar    1  LIG1        0.1865
     33 C          -6.8993    6.2131   -0.1554 C.ar    1  LIG1        0.0745
     34 C          -7.4105    4.9180    0.2216 C.ar    1  LIG1        0.0769
     35 C          -6.3335    4.2006    0.6496 C.ar    1  LIG1        0.1144
     36 O          -5.1922    4.9659    0.5675 O.2     1  LIG1       -0.4567
     37 H          -6.2045    3.1993    1.0262 H       1  LIG1        0.1049
     38 S          -7.8779    7.4611   -0.9418 S.3     1  LIG1       -0.1371
     39 H          -8.5915    7.8822    0.1306 H       1  LIG1        0.1073
     40 N          -8.7610    4.5654    0.1920 N.pl3   1  LIG1       -0.3547
     41 H          -9.2563    5.0239   -0.5658 H       1  LIG1        0.1424
     42 H          -8.9155    3.5654    0.1596 H       1  LIG1        0.1424
@<TRIPOS>BOND
     1     6     1    1
     2    38    33    1
     3    38    39    1
     4     1     5   ar
     5     1     2   ar
     6     5     4   ar
     7    30    29    1
     8    27    23    1
     9    27    28    1
    10    41    40    1
    11    31    29    1
    12     7     2    1
    13     7     8    1
    14     2     3   ar
    15     4    12    1
    16     4     3   ar
    17    16    12   ar
    18    16    15   ar
    19    23    24   ar
    20    23    22   ar
    21    12    13   ar
    22    24    29    1
    23    24    25   ar
    24     3     9    1
    25    15    22    1
    26    15    14   ar
    27    22    26   ar
    28    33    32   ar
    29    33    34   ar
    30    21    19    1
    31    17    13    1
    32    17    18    1
    33    13    14   ar
    34    25    26   ar
    35    25    32    1
    36    20    19    1
    37    14    19    1
    38    10     9    1
    39    32    36   ar
    40    11     9    1
    41    42    40    1
    42    40    34    1
    43    34    35   ar
    44    36    35   ar
    45    35    37    1
