@<TRIPOS>MOLECULE
mol_data/opt/b3lyp/geoms/mol2/12gh12gh12gh12gh.out
 42 45 0 0 0
SMALL
GASTEIGER

@<TRIPOS>ATOM
      1 C           0.2823    1.9420   -0.9342 C.ar    1  LIG1        0.1077
      2 C           1.5882    1.8547   -0.5463 C.ar    1  LIG1        0.0640
      3 C           2.0120    3.1956   -0.2243 C.ar    1  LIG1        0.0874
      4 C           0.9044    4.0029   -0.4438 C.ar    1  LIG1        0.1924
      5 O          -0.1511    3.2110   -0.8830 O.2     1  LIG1       -0.4568
      6 H          -0.4253    1.1987   -1.2681 H       1  LIG1        0.1041
      7 S           2.6060    0.4050   -0.5519 S.3     1  LIG1       -0.1378
      8 H           2.6067    0.1614    0.7787 H       1  LIG1        0.1073
      9 N           3.2570    3.5015    0.2754 N.pl3   1  LIG1       -0.3541
     10 H           3.9587    2.8065    0.0499 H       1  LIG1        0.1425
     11 H           3.5639    4.4560    0.1262 H       1  LIG1        0.1425
     12 C           0.5893    5.3965   -0.2945 C.ar    1  LIG1        0.1875
     13 C           1.3116    6.5695   -0.1242 C.ar    1  LIG1        0.0752
     14 C           0.3613    7.6458   -0.0603 C.ar    1  LIG1        0.0882
     15 C          -0.8896    7.0657   -0.2022 C.ar    1  LIG1        0.1935
     16 O          -0.7294    5.6936   -0.3417 O.2     1  LIG1       -0.4455
     17 S           3.0634    6.8242   -0.1343 S.3     1  LIG1       -0.1371
     18 H           3.2546    7.0538    1.1876 H       1  LIG1        0.1073
     19 N           0.7097    8.9577    0.1751 N.pl3   1  LIG1       -0.3541
     20 H           1.6603    9.1734   -0.1015 H       1  LIG1        0.1425
     21 H           0.0334    9.6443   -0.1408 H       1  LIG1        0.1425
     22 C          -2.2513    7.5160   -0.1989 C.ar    1  LIG1        0.1875
     23 C          -2.9015    8.7404   -0.2970 C.ar    1  LIG1        0.0752
     24 C          -4.3128    8.4760   -0.2350 C.ar    1  LIG1        0.0882
     25 C          -4.4439    7.1044   -0.1123 C.ar    1  LIG1        0.1934
     26 O          -3.1786    6.5348   -0.0907 O.2     1  LIG1       -0.4455
     27 S          -2.2330   10.3512   -0.5991 S.3     1  LIG1       -0.1371
     28 H          -2.3730   10.8827    0.6399 H       1  LIG1        0.1073
     29 N          -5.2808    9.4609   -0.2246 N.pl3   1  LIG1       -0.3541
     30 H          -4.9686   10.3206   -0.6617 H       1  LIG1        0.1425
     31 H          -6.1888    9.1586   -0.5622 H       1  LIG1        0.1425
     32 C          -5.5323    6.1790    0.0424 C.ar    1  LIG1        0.1865
     33 C          -6.8997    6.2007   -0.1920 C.ar    1  LIG1        0.0745
     34 C          -7.4078    4.9034    0.1819 C.ar    1  LIG1        0.0769
     35 C          -6.3292    4.1882    0.6098 C.ar    1  LIG1        0.1144
     36 O          -5.1900    4.9567    0.5305 O.2     1  LIG1       -0.4567
     37 H          -6.1980    3.1865    0.9845 H       1  LIG1        0.1049
     38 S          -7.8807    7.4475   -0.9770 S.3     1  LIG1       -0.1371
     39 H          -8.5963    7.8650    0.0955 H       1  LIG1        0.1073
     40 N          -8.7573    4.5472    0.1501 N.pl3   1  LIG1       -0.3547
     41 H          -9.2529    5.0058   -0.6075 H       1  LIG1        0.1424
     42 H          -8.9089    3.5469    0.1155 H       1  LIG1        0.1424
@<TRIPOS>BOND
     1     6     1    1
     2    38    33    1
     3    38    39    1
     4     1     5   ar
     5     1     2   ar
     6     5     4   ar
     7    30    29    1
     8    41    40    1
     9    27    23    1
    10    27    28    1
    11    31    29    1
    12     7     2    1
    13     7     8    1
    14     2     3   ar
    15     4    12    1
    16     4     3   ar
    17    16    12   ar
    18    16    15   ar
    19    23    24   ar
    20    23    22   ar
    21    12    13   ar
    22    24    29    1
    23    24    25   ar
    24     3     9    1
    25    15    22    1
    26    15    14   ar
    27    22    26   ar
    28    33    32   ar
    29    33    34   ar
    30    21    19    1
    31    17    13    1
    32    17    18    1
    33    13    14   ar
    34    25    26   ar
    35    25    32    1
    36    20    19    1
    37    14    19    1
    38    32    36   ar
    39    10     9    1
    40    42    40    1
    41    11     9    1
    42    40    34    1
    43    34    35   ar
    44    36    35   ar
    45    35    37    1
