@<TRIPOS>MOLECULE
mol_data/opt/b3lyp/geoms/mol2/12gh12gh12gh12gh-.out
 42 45 0 0 0
SMALL
GASTEIGER

@<TRIPOS>ATOM
      1 C           0.2804    1.9425   -0.9446 C.ar    1  LIG1        0.1077
      2 C           1.5848    1.8520   -0.5524 C.ar    1  LIG1        0.0640
      3 C           2.0091    3.1909   -0.2231 C.ar    1  LIG1        0.0874
      4 C           0.9033    4.0005   -0.4430 C.ar    1  LIG1        0.1924
      5 O          -0.1516    3.2119   -0.8894 O.2     1  LIG1       -0.4568
      6 H          -0.4269    1.2016   -1.2841 H       1  LIG1        0.1041
      7 S           2.6008    0.4009   -0.5607 S.3     1  LIG1       -0.1378
      8 H           2.5969    0.1518    0.7689 H       1  LIG1        0.1073
      9 N           3.2527    3.4931    0.2823 N.pl3   1  LIG1       -0.3541
     10 H           3.9544    2.7982    0.0562 H       1  LIG1        0.1425
     11 H           3.5614    4.4478    0.1383 H       1  LIG1        0.1425
     12 C           0.5894    5.3939   -0.2889 C.ar    1  LIG1        0.1875
     13 C           1.3125    6.5652   -0.1110 C.ar    1  LIG1        0.0752
     14 C           0.3634    7.6425   -0.0457 C.ar    1  LIG1        0.0882
     15 C          -0.8878    7.0645   -0.1945 C.ar    1  LIG1        0.1935
     16 O          -0.7287    5.6929   -0.3393 O.2     1  LIG1       -0.4455
     17 S           3.0648    6.8177   -0.1139 S.3     1  LIG1       -0.1371
     18 H           3.2516    7.0414    1.2095 H       1  LIG1        0.1073
     19 N           0.7126    8.9528    0.1964 N.pl3   1  LIG1       -0.3541
     20 H           1.6646    9.1685   -0.0756 H       1  LIG1        0.1425
     21 H           0.0384    9.6417   -0.1192 H       1  LIG1        0.1425
     22 C          -2.2488    7.5165   -0.1939 C.ar    1  LIG1        0.1875
     23 C          -2.8972    8.7421   -0.2890 C.ar    1  LIG1        0.0752
     24 C          -4.3091    8.4792   -0.2330 C.ar    1  LIG1        0.0882
     25 C          -4.4422    7.1073   -0.1167 C.ar    1  LIG1        0.1934
     26 O          -3.1777    6.5360   -0.0931 O.2     1  LIG1       -0.4455
     27 S          -2.2256   10.3532   -0.5820 S.3     1  LIG1       -0.1371
     28 H          -2.3686   10.8796    0.6590 H       1  LIG1        0.1073
     29 N          -5.2758    9.4653   -0.2217 N.pl3   1  LIG1       -0.3541
     30 H          -4.9611   10.3264   -0.6542 H       1  LIG1        0.1425
     31 H          -6.1831    9.1656   -0.5635 H       1  LIG1        0.1425
     32 C          -5.5324    6.1826    0.0304 C.ar    1  LIG1        0.1865
     33 C          -6.8988    6.2070   -0.2090 C.ar    1  LIG1        0.0745
     34 C          -7.4100    4.9090    0.1579 C.ar    1  LIG1        0.0769
     35 C          -6.3339    4.1907    0.5870 C.ar    1  LIG1        0.1144
     36 O          -5.1935    4.9581    0.5150 O.2     1  LIG1       -0.4567
     37 H          -6.2054    3.1874    0.9583 H       1  LIG1        0.1049
     38 S          -7.8754    7.4583   -0.9927 S.3     1  LIG1       -0.1371
     39 H          -8.5948    7.8720    0.0787 H       1  LIG1        0.1073
     40 N          -8.7598    4.5547    0.1197 N.pl3   1  LIG1       -0.3547
     41 H          -9.2520    5.0166   -0.6381 H       1  LIG1        0.1424
     42 H          -8.9126    3.5547    0.0812 H       1  LIG1        0.1424
@<TRIPOS>BOND
     1     6     1    1
     2    38    33    1
     3    38    39    1
     4     1     5   ar
     5     1     2   ar
     6     5     4   ar
     7    30    29    1
     8    41    40    1
     9    27    23    1
    10    27    28    1
    11    31    29    1
    12     7     2    1
    13     7     8    1
    14     2     3   ar
    15     4    12    1
    16     4     3   ar
    17    16    12   ar
    18    16    15   ar
    19    23    24   ar
    20    23    22   ar
    21    12    13   ar
    22    24    29    1
    23    24    25   ar
    24     3     9    1
    25    33    32   ar
    26    33    34   ar
    27    15    22    1
    28    15    14   ar
    29    22    26   ar
    30    21    19    1
    31    25    26   ar
    32    25    32    1
    33    17    13    1
    34    17    18    1
    35    13    14   ar
    36    20    19    1
    37    14    19    1
    38    32    36   ar
    39    10     9    1
    40    42    40    1
    41    40    34    1
    42    11     9    1
    43    34    35   ar
    44    36    35   ar
    45    35    37    1
