@<TRIPOS>MOLECULE
mol_data/opt/b3lyp/geoms/mol2/12gh12gh-12gh-12gh.out
 42 45 0 0 0
SMALL
GASTEIGER

@<TRIPOS>ATOM
      1 C           0.2778    1.9392   -0.9111 C.ar    1  LIG1        0.1077
      2 C           1.5834    1.8507   -0.5224 C.ar    1  LIG1        0.0640
      3 C           2.0086    3.1912   -0.2011 C.ar    1  LIG1        0.0874
      4 C           0.9022    3.9997   -0.4217 C.ar    1  LIG1        0.1924
      5 O          -0.1540    3.2088   -0.8610 O.2     1  LIG1       -0.4568
      6 H          -0.4304    1.1966   -1.2449 H       1  LIG1        0.1041
      7 S           2.5995    0.3997   -0.5266 S.3     1  LIG1       -0.1378
      8 H           2.5991    0.1568    0.8041 H       1  LIG1        0.1073
      9 N           3.2538    3.4960    0.2991 N.pl3   1  LIG1       -0.3541
     10 H           3.9548    2.7999    0.0745 H       1  LIG1        0.1425
     11 H           3.5620    4.4500    0.1494 H       1  LIG1        0.1425
     12 C           0.5885    5.3938   -0.2732 C.ar    1  LIG1        0.1875
     13 C           1.3120    6.5660   -0.1031 C.ar    1  LIG1        0.0752
     14 C           0.3629    7.6434   -0.0401 C.ar    1  LIG1        0.0882
     15 C          -0.8886    7.0646   -0.1824 C.ar    1  LIG1        0.1935
     16 O          -0.7298    5.6923   -0.3211 O.2     1  LIG1       -0.4455
     17 S           3.0641    6.8187   -0.1124 S.3     1  LIG1       -0.1371
     18 H           3.2550    7.0483    1.2095 H       1  LIG1        0.1073
     19 N           0.7126    8.9550    0.1947 N.pl3   1  LIG1       -0.3541
     20 H           1.6637    9.1695   -0.0815 H       1  LIG1        0.1425
     21 H           0.0373    9.6422   -0.1222 H       1  LIG1        0.1425
     22 C          -2.2498    7.5164   -0.1800 C.ar    1  LIG1        0.1875
     23 C          -2.8986    8.7414   -0.2788 C.ar    1  LIG1        0.0752
     24 C          -4.3103    8.4785   -0.2175 C.ar    1  LIG1        0.0882
     25 C          -4.4428    7.1072   -0.0944 C.ar    1  LIG1        0.1934
     26 O          -3.1782    6.5362   -0.0719 O.2     1  LIG1       -0.4455
     27 S          -2.2282   10.3512   -0.5815 S.3     1  LIG1       -0.1371
     28 H          -2.3675   10.8835    0.6573 H       1  LIG1        0.1073
     29 N          -5.2771    9.4644   -0.2081 N.pl3   1  LIG1       -0.3541
     30 H          -4.9640   10.3237   -0.6453 H       1  LIG1        0.1425
     31 H          -6.1855    9.1630   -0.5453 H       1  LIG1        0.1425
     32 C          -5.5324    6.1829    0.0599 C.ar    1  LIG1        0.1865
     33 C          -6.8995    6.2060   -0.1757 C.ar    1  LIG1        0.0745
     34 C          -7.4094    4.9095    0.1985 C.ar    1  LIG1        0.0769
     35 C          -6.3320    4.1934    0.6279 C.ar    1  LIG1        0.1144
     36 O          -5.1919    4.9606    0.5490 O.2     1  LIG1       -0.4567
     37 H          -6.2023    3.1918    1.0031 H       1  LIG1        0.1049
     38 S          -7.8784    7.4538   -0.9625 S.3     1  LIG1       -0.1371
     39 H          -8.5955    7.8715    0.1090 H       1  LIG1        0.1073
     40 N          -8.7593    4.5548    0.1657 N.pl3   1  LIG1       -0.3547
     41 H          -9.2537    5.0136   -0.5925 H       1  LIG1        0.1424
     42 H          -8.9119    3.5546    0.1310 H       1  LIG1        0.1424
@<TRIPOS>BOND
     1     6     1    1
     2    38    33    1
     3    38    39    1
     4     1     5   ar
     5     1     2   ar
     6     5     4   ar
     7    30    29    1
     8    41    40    1
     9    27    23    1
    10    27    28    1
    11    31    29    1
    12     7     2    1
    13     7     8    1
    14     2     3   ar
    15     4    12    1
    16     4     3   ar
    17    16    12   ar
    18    16    15   ar
    19    23    24   ar
    20    23    22   ar
    21    12    13   ar
    22    24    29    1
    23    24    25   ar
    24     3     9    1
    25    15    22    1
    26    15    14   ar
    27    22    26   ar
    28    33    32   ar
    29    33    34   ar
    30    21    19    1
    31    17    13    1
    32    17    18    1
    33    13    14   ar
    34    25    26   ar
    35    25    32    1
    36    20    19    1
    37    14    19    1
    38    32    36   ar
    39    10     9    1
    40    42    40    1
    41    11     9    1
    42    40    34    1
    43    34    35   ar
    44    36    35   ar
    45    35    37    1
