@<TRIPOS>MOLECULE
mol_data/opt/b3lyp/geoms/mol2/12gh12gh-.out
 22 23 0 0 0
SMALL
GASTEIGER

@<TRIPOS>ATOM
      1 C           0.2149    1.8540   -0.2583 C.ar    1  LIG1        0.1077
      2 C           1.5751    1.8605   -0.1466 C.ar    1  LIG1        0.0640
      3 C           1.9756    3.2450   -0.0704 C.ar    1  LIG1        0.0874
      4 C           0.8043    3.9788   -0.1425 C.ar    1  LIG1        0.1924
      5 O          -0.2721    3.1070   -0.2610 O.2     1  LIG1       -0.4568
      6 H          -0.5013    1.0521   -0.3495 H       1  LIG1        0.1041
      7 S           2.6530    0.4559   -0.2026 S.3     1  LIG1       -0.1378
      8 H           2.9450    0.3795    1.1160 H       1  LIG1        0.1073
      9 N           3.2768    3.6617    0.1272 N.pl3   1  LIG1       -0.3541
     10 H           3.9558    2.9670   -0.1623 H       1  LIG1        0.1425
     11 H           3.4831    4.5869   -0.2341 H       1  LIG1        0.1425
     12 C           0.4573    5.3752   -0.0770 C.ar    1  LIG1        0.1865
     13 C           1.1194    6.5704   -0.3000 C.ar    1  LIG1        0.0745
     14 C           0.1663    7.6269   -0.0609 C.ar    1  LIG1        0.0769
     15 C          -0.9982    7.0076    0.2839 C.ar    1  LIG1        0.1144
     16 O          -0.8276    5.6415    0.2792 O.2     1  LIG1       -0.4567
     17 H          -1.9810    7.3601    0.5503 H       1  LIG1        0.1049
     18 S           2.7483    6.8370   -0.9426 S.3     1  LIG1       -0.1371
     19 H           3.3174    7.3807    0.1599 H       1  LIG1        0.1073
     20 N           0.4696    8.9877   -0.1216 N.pl3   1  LIG1       -0.3547
     21 H           1.1606    9.1928   -0.8359 H       1  LIG1        0.1424
     22 H          -0.3442    9.5783   -0.2383 H       1  LIG1        0.1424
@<TRIPOS>BOND
     1    18    13    1
     2    18    19    1
     3    21    20    1
     4     6     1    1
     5    13    12   ar
     6    13    14   ar
     7     5     1   ar
     8     5     4   ar
     9     1     2   ar
    10    22    20    1
    11    11     9    1
    12     7     2    1
    13     7     8    1
    14    10     9    1
    15     2     3   ar
    16     4    12    1
    17     4     3   ar
    18    20    14    1
    19    12    16   ar
    20     3     9    1
    21    14    15   ar
    22    16    15   ar
    23    15    17    1
