@<TRIPOS>MOLECULE
mol_data/opt/b3lyp/geoms/mol2/12gh12gh12gh-.out
 32 34 0 0 0
SMALL
GASTEIGER

@<TRIPOS>ATOM
      1 C           0.2614    1.8591   -0.5170 C.ar    1  LIG1        0.1077
      2 C           1.5956    1.8259   -0.2310 C.ar    1  LIG1        0.0640
      3 C           2.0163    3.1965   -0.0699 C.ar    1  LIG1        0.0874
      4 C           0.8793    3.9651   -0.2722 C.ar    1  LIG1        0.1924
      5 O          -0.1921    3.1225   -0.5487 O.2     1  LIG1       -0.4568
      6 H          -0.4554    1.0786   -0.7211 H       1  LIG1        0.1041
      7 S           2.6387    0.3948   -0.1866 S.3     1  LIG1       -0.1378
      8 H           2.7643    0.2859    1.1559 H       1  LIG1        0.1073
      9 N           3.2912    3.5650    0.2977 N.pl3   1  LIG1       -0.3541
     10 H           3.9869    2.8631    0.0744 H       1  LIG1        0.1425
     11 H           3.5634    4.5050    0.0325 H       1  LIG1        0.1425
     12 C           0.5502    5.3638   -0.2278 C.ar    1  LIG1        0.1875
     13 C           1.2596    6.5557   -0.2367 C.ar    1  LIG1        0.0752
     14 C           0.2960    7.6220   -0.1824 C.ar    1  LIG1        0.0882
     15 C          -0.9470    7.0165   -0.1539 C.ar    1  LIG1        0.1934
     16 O          -0.7744    5.6398   -0.1809 O.2     1  LIG1       -0.4455
     17 S           2.9981    6.8276   -0.4340 S.3     1  LIG1       -0.1371
     18 H           3.3010    7.2016    0.8329 H       1  LIG1        0.1073
     19 N           0.6324    8.9584   -0.0972 N.pl3   1  LIG1       -0.3541
     20 H           1.5489    9.1572   -0.4820 H       1  LIG1        0.1425
     21 H          -0.0814    9.5931   -0.4399 H       1  LIG1        0.1425
     22 C          -2.3123    7.4570   -0.0586 C.ar    1  LIG1        0.1865
     23 C          -2.9936    8.6452   -0.2775 C.ar    1  LIG1        0.0745
     24 C          -4.3848    8.3863    0.0027 C.ar    1  LIG1        0.0769
     25 C          -4.4555    7.0741    0.3651 C.ar    1  LIG1        0.1144
     26 O          -3.2021    6.5061    0.3327 O.2     1  LIG1       -0.4567
     27 H          -5.2613    6.4235    0.6623 H       1  LIG1        0.1049
     28 S          -2.3974   10.1693   -0.9527 S.3     1  LIG1       -0.1371
     29 H          -2.4854   10.9425    0.1567 H       1  LIG1        0.1073
     30 N          -5.3899    9.3537   -0.0413 N.pl3   1  LIG1       -0.3547
     31 H          -5.2174   10.0497   -0.7593 H       1  LIG1        0.1424
     32 H          -6.3194    8.9657   -0.1417 H       1  LIG1        0.1424
@<TRIPOS>BOND
     1    28    23    1
     2    28    29    1
     3    31    30    1
     4     6     1    1
     5     5     1   ar
     6     5     4   ar
     7     1     2   ar
     8    20    19    1
     9    21    19    1
    10    17    13    1
    11    17    18    1
    12    23    22   ar
    13    23    24   ar
    14     4    12    1
    15     4     3   ar
    16    13    12   ar
    17    13    14   ar
    18     2     7    1
    19     2     3   ar
    20    12    16   ar
    21     7     8    1
    22    14    15   ar
    23    14    19    1
    24    16    15   ar
    25    15    22    1
    26    32    30    1
    27     3     9    1
    28    22    26   ar
    29    30    24    1
    30    24    25   ar
    31    11     9    1
    32    10     9    1
    33    26    25   ar
    34    25    27    1
