@<TRIPOS>MOLECULE
mol_data/opt/b3lyp/geoms/mol2/12gh12gh-12gh-12gh-.out
 42 45 0 0 0
SMALL
GASTEIGER

@<TRIPOS>ATOM
      1 C           0.2798    1.9488   -0.9550 C.ar    1  LIG1        0.1077
      2 C           1.5847    1.8558   -0.5650 C.ar    1  LIG1        0.0640
      3 C           2.0091    3.1924   -0.2268 C.ar    1  LIG1        0.0874
      4 C           0.9029    4.0033   -0.4397 C.ar    1  LIG1        0.1924
      5 O          -0.1523    3.2177   -0.8904 O.2     1  LIG1       -0.4568
      6 H          -0.4278    1.2102   -1.2989 H       1  LIG1        0.1041
      7 S           2.6009    0.4050   -0.5847 S.3     1  LIG1       -0.1378
      8 H           2.5988    0.1467    0.7431 H       1  LIG1        0.1073
      9 N           3.2533    3.4913    0.2793 N.pl3   1  LIG1       -0.3541
     10 H           3.9548    2.7981    0.0475 H       1  LIG1        0.1425
     11 H           3.5616    4.4471    0.1416 H       1  LIG1        0.1425
     12 C           0.5890    5.3956   -0.2755 C.ar    1  LIG1        0.1875
     13 C           1.3121    6.5658   -0.0902 C.ar    1  LIG1        0.0752
     14 C           0.3629    7.6424   -0.0164 C.ar    1  LIG1        0.0882
     15 C          -0.8884    7.0653   -0.1680 C.ar    1  LIG1        0.1935
     16 O          -0.7293    5.6947   -0.3225 O.2     1  LIG1       -0.4455
     17 S           3.0643    6.8186   -0.0928 S.3     1  LIG1       -0.1371
     18 H           3.2523    7.0328    1.2321 H       1  LIG1        0.1073
     19 N           0.7120    8.9510    0.2346 N.pl3   1  LIG1       -0.3541
     20 H           1.6637    9.1687   -0.0368 H       1  LIG1        0.1425
     21 H           0.0374    9.6420   -0.0755 H       1  LIG1        0.1425
     22 C          -2.2495    7.5171   -0.1629 C.ar    1  LIG1        0.1875
     23 C          -2.8981    8.7431   -0.2491 C.ar    1  LIG1        0.0752
     24 C          -4.3099    8.4797   -0.1933 C.ar    1  LIG1        0.0882
     25 C          -4.4428    7.1071   -0.0860 C.ar    1  LIG1        0.1934
     26 O          -3.1782    6.5358   -0.0678 O.2     1  LIG1       -0.4455
     27 S          -2.2271   10.3563   -0.5321 S.3     1  LIG1       -0.1371
     28 H          -2.3692   10.8745    0.7124 H       1  LIG1        0.1073
     29 N          -5.2768    9.4655   -0.1742 N.pl3   1  LIG1       -0.3541
     30 H          -4.9625   10.3297   -0.6008 H       1  LIG1        0.1425
     31 H          -6.1842    9.1681   -0.5175 H       1  LIG1        0.1425
     32 C          -5.5327    6.1813    0.0558 C.ar    1  LIG1        0.1865
     33 C          -6.8993    6.2072   -0.1822 C.ar    1  LIG1        0.0745
     34 C          -7.4101    4.9067    0.1764 C.ar    1  LIG1        0.0769
     35 C          -6.3337    4.1856    0.5997 C.ar    1  LIG1        0.1144
     36 O          -5.1933    4.9535    0.5318 O.2     1  LIG1       -0.4567
     37 H          -6.2047    3.1798    0.9642 H       1  LIG1        0.1049
     38 S          -7.8765    7.4636   -0.9571 S.3     1  LIG1       -0.1371
     39 H          -8.5951    7.8702    0.1175 H       1  LIG1        0.1073
     40 N          -8.7599    4.5527    0.1371 N.pl3   1  LIG1       -0.3547
     41 H          -9.2528    5.0192   -0.6175 H       1  LIG1        0.1424
     42 H          -8.9128    3.5530    0.0926 H       1  LIG1        0.1424
@<TRIPOS>BOND
     1     6     1    1
     2    38    33    1
     3    38    39    1
     4     1     5   ar
     5     1     2   ar
     6     5     4   ar
     7    41    40    1
     8    30    29    1
     9     7     2    1
    10     7     8    1
    11     2     3   ar
    12    27    23    1
    13    27    28    1
    14    31    29    1
    15     4    12    1
    16     4     3   ar
    17    16    12   ar
    18    16    15   ar
    19    12    13   ar
    20    23    24   ar
    21    23    22   ar
    22     3     9    1
    23    24    29    1
    24    24    25   ar
    25    33    32   ar
    26    33    34   ar
    27    15    22    1
    28    15    14   ar
    29    22    26   ar
    30    17    13    1
    31    17    18    1
    32    13    14   ar
    33    25    26   ar
    34    25    32    1
    35    21    19    1
    36    20    19    1
    37    14    19    1
    38    10     9    1
    39    32    36   ar
    40    42    40    1
    41    40    34    1
    42    11     9    1
    43    34    35   ar
    44    36    35   ar
    45    35    37    1
