@<TRIPOS>MOLECULE
mol_data/opt/b3lyp/geoms/mol2/12gh12gh12gh.out
 32 34 0 0 0
SMALL
GASTEIGER

@<TRIPOS>ATOM
      1 C           0.2600    1.8575   -0.5074 C.ar    1  LIG1        0.1077
      2 C           1.5943    1.8247   -0.2219 C.ar    1  LIG1        0.0640
      3 C           2.0156    3.1957   -0.0651 C.ar    1  LIG1        0.0874
      4 C           0.8788    3.9640   -0.2693 C.ar    1  LIG1        0.1924
      5 O          -0.1931    3.1210   -0.5428 O.2     1  LIG1       -0.4568
      6 H          -0.4572    1.0767   -0.7089 H       1  LIG1        0.1041
      7 S           2.6369    0.3934   -0.1737 S.3     1  LIG1       -0.1378
      8 H           2.7628    0.2882    1.1691 H       1  LIG1        0.1073
      9 N           3.2908    3.5648    0.3009 N.pl3   1  LIG1       -0.3541
     10 H           3.9861    2.8619    0.0795 H       1  LIG1        0.1425
     11 H           3.5632    4.5038    0.0325 H       1  LIG1        0.1425
     12 C           0.5501    5.3629   -0.2289 C.ar    1  LIG1        0.1875
     13 C           1.2599    6.5547   -0.2416 C.ar    1  LIG1        0.0752
     14 C           0.2966    7.6214   -0.1897 C.ar    1  LIG1        0.0882
     15 C          -0.9466    7.0163   -0.1587 C.ar    1  LIG1        0.1934
     16 O          -0.7744    5.6394   -0.1819 O.2     1  LIG1       -0.4455
     17 S           2.9983    6.8255   -0.4406 S.3     1  LIG1       -0.1371
     18 H           3.3022    7.2028    0.8250 H       1  LIG1        0.1073
     19 N           0.6334    8.9579   -0.1086 N.pl3   1  LIG1       -0.3541
     20 H           1.5496    9.1555   -0.4946 H       1  LIG1        0.1425
     21 H          -0.0806    9.5918   -0.4523 H       1  LIG1        0.1425
     22 C          -2.3116    7.4576   -0.0636 C.ar    1  LIG1        0.1865
     23 C          -2.9927    8.6453   -0.2859 C.ar    1  LIG1        0.0745
     24 C          -4.3837    8.3878   -0.0034 C.ar    1  LIG1        0.0769
     25 C          -4.4545    7.0769    0.3634 C.ar    1  LIG1        0.1144
     26 O          -3.2013    6.5083    0.3317 O.2     1  LIG1       -0.4567
     27 H          -5.2604    6.4276    0.6635 H       1  LIG1        0.1049
     28 S          -2.3963   10.1670   -0.9664 S.3     1  LIG1       -0.1371
     29 H          -2.4839   10.9438    0.1404 H       1  LIG1        0.1073
     30 N          -5.3884    9.3555   -0.0497 N.pl3   1  LIG1       -0.3547
     31 H          -5.2164   10.0489   -0.7703 H       1  LIG1        0.1424
     32 H          -6.3182    8.9675   -0.1479 H       1  LIG1        0.1424
@<TRIPOS>BOND
     1    28    23    1
     2    28    29    1
     3    31    30    1
     4     6     1    1
     5     5     1   ar
     6     5     4   ar
     7     1     2   ar
     8    20    19    1
     9    21    19    1
    10    17    13    1
    11    17    18    1
    12    23    22   ar
    13    23    24   ar
    14     4    12    1
    15     4     3   ar
    16    13    12   ar
    17    13    14   ar
    18    12    16   ar
    19     2     7    1
    20     2     3   ar
    21    14    15   ar
    22    14    19    1
    23    16    15   ar
    24     7     8    1
    25    15    22    1
    26    32    30    1
    27     3     9    1
    28    22    26   ar
    29    30    24    1
    30    24    25   ar
    31    11     9    1
    32    10     9    1
    33    26    25   ar
    34    25    27    1
