@<TRIPOS>MOLECULE
mol_data/opt/b3lyp/geoms/mol2/12gh12gh-12gh-.out
 32 34 0 0 0
SMALL
GASTEIGER

@<TRIPOS>ATOM
      1 C           0.2747    1.8804   -0.6611 C.ar    1  LIG1        0.1077
      2 C           1.6054    1.8379   -0.3606 C.ar    1  LIG1        0.0640
      3 C           2.0214    3.2016   -0.1396 C.ar    1  LIG1        0.0874
      4 C           0.8853    3.9759   -0.3249 C.ar    1  LIG1        0.1924
      5 O          -0.1810    3.1433   -0.6477 O.2     1  LIG1       -0.4568
      6 H          -0.4380    1.1077   -0.9050 H       1  LIG1        0.1041
      7 S           2.6509    0.4078   -0.3606 S.3     1  LIG1       -0.1378
      8 H           2.7601    0.2454    0.9779 H       1  LIG1        0.1073
      9 N           3.2910    3.5570    0.2578 N.pl3   1  LIG1       -0.3541
     10 H           3.9908    2.8658    0.0148 H       1  LIG1        0.1425
     11 H           3.5644    4.5073    0.0342 H       1  LIG1        0.1425
     12 C           0.5528    5.3711   -0.2280 C.ar    1  LIG1        0.1875
     13 C           1.2598    6.5635   -0.1803 C.ar    1  LIG1        0.0752
     14 C           0.2933    7.6252   -0.0944 C.ar    1  LIG1        0.0882
     15 C          -0.9487    7.0171   -0.1051 C.ar    1  LIG1        0.1934
     16 O          -0.7729    5.6428   -0.1857 O.2     1  LIG1       -0.4455
     17 S           2.9998    6.8461   -0.3452 S.3     1  LIG1       -0.1371
     18 H           3.2866    7.1693    0.9392 H       1  LIG1        0.1073
     19 N           0.6258    8.9577    0.0487 N.pl3   1  LIG1       -0.3541
     20 H           1.5467    9.1731   -0.3164 H       1  LIG1        0.1425
     21 H          -0.0849    9.6045   -0.2774 H       1  LIG1        0.1425
     22 C          -2.3160    7.4511   -0.0086 C.ar    1  LIG1        0.1865
     23 C          -2.9970    8.6462   -0.1871 C.ar    1  LIG1        0.0745
     24 C          -4.3910    8.3738    0.0654 C.ar    1  LIG1        0.0769
     25 C          -4.4634    7.0478    0.3731 C.ar    1  LIG1        0.1144
     26 O          -3.2084    6.4836    0.3328 O.2     1  LIG1       -0.4567
     27 H          -5.2714    6.3842    0.6333 H       1  LIG1        0.1049
     28 S          -2.3960   10.1975   -0.7928 S.3     1  LIG1       -0.1371
     29 H          -2.4981   10.9248    0.3460 H       1  LIG1        0.1073
     30 N          -5.3973    9.3408    0.0488 N.pl3   1  LIG1       -0.3547
     31 H          -5.2184   10.0650   -0.6391 H       1  LIG1        0.1424
     32 H          -6.3250    8.9558   -0.0768 H       1  LIG1        0.1424
@<TRIPOS>BOND
     1     6     1    1
     2    28    23    1
     3    28    29    1
     4     1     5   ar
     5     1     2   ar
     6     5     4   ar
     7    31    30    1
     8     7     2    1
     9     7     8    1
    10     2     3   ar
    11    17    13    1
    12    17    18    1
    13     4    12    1
    14     4     3   ar
    15    20    19    1
    16    21    19    1
    17    12    16   ar
    18    12    13   ar
    19    23    22   ar
    20    23    24   ar
    21    16    15   ar
    22    13    14   ar
    23     3     9    1
    24    15    14   ar
    25    15    22    1
    26    14    19    1
    27    32    30    1
    28    22    26   ar
    29    10     9    1
    30    11     9    1
    31    30    24    1
    32    24    25   ar
    33    26    25   ar
    34    25    27    1
