@<TRIPOS>MOLECULE
mol_data/opt/b3lyp/geoms/mol2/12gh12gh12gh-12gh.out
 42 45 0 0 0
SMALL
GASTEIGER

@<TRIPOS>ATOM
      1 C           0.2933    1.9566   -0.9840 C.ar    1  LIG1        0.1077
      2 C           1.5976    1.8668   -0.5913 C.ar    1  LIG1        0.0640
      3 C           2.0175    3.2044   -0.2510 C.ar    1  LIG1        0.0874
      4 C           0.9095    4.0123   -0.4655 C.ar    1  LIG1        0.1924
      5 O          -0.1426    3.2241   -0.9192 O.2     1  LIG1       -0.4568
      6 H          -0.4115    1.2162   -1.3302 H       1  LIG1        0.1041
      7 S           2.6180    0.4189   -0.6100 S.3     1  LIG1       -0.1378
      8 H           2.6132    0.1592    0.7175 H       1  LIG1        0.1073
      9 N           3.2597    3.5062    0.2581 N.pl3   1  LIG1       -0.3541
     10 H           3.9637    2.8153    0.0271 H       1  LIG1        0.1425
     11 H           3.5656    4.4631    0.1222 H       1  LIG1        0.1425
     12 C           0.5912    5.4035   -0.3006 C.ar    1  LIG1        0.1875
     13 C           1.3106    6.5756   -0.1125 C.ar    1  LIG1        0.0752
     14 C           0.3582    7.6494   -0.0397 C.ar    1  LIG1        0.0882
     15 C          -0.8911    7.0689   -0.1947 C.ar    1  LIG1        0.1935
     16 O          -0.7277    5.6989   -0.3504 O.2     1  LIG1       -0.4455
     17 S           3.0621    6.8334   -0.1110 S.3     1  LIG1       -0.1371
     18 H           3.2466    7.0470    1.2144 H       1  LIG1        0.1073
     19 N           0.7031    8.9588    0.2134 N.pl3   1  LIG1       -0.3541
     20 H           1.6547    9.1795   -0.0557 H       1  LIG1        0.1425
     21 H           0.0272    9.6481   -0.0978 H       1  LIG1        0.1425
     22 C          -2.2535    7.5168   -0.1923 C.ar    1  LIG1        0.1875
     23 C          -2.9054    8.7411   -0.2788 C.ar    1  LIG1        0.0752
     24 C          -4.3165    8.4736   -0.2265 C.ar    1  LIG1        0.0882
     25 C          -4.4457    7.1005   -0.1208 C.ar    1  LIG1        0.1934
     26 O          -3.1796    6.5328   -0.1001 O.2     1  LIG1       -0.4455
     27 S          -2.2383   10.3563   -0.5587 S.3     1  LIG1       -0.1371
     28 H          -2.3843   10.8729    0.6860 H       1  LIG1        0.1073
     29 N          -5.2862    9.4567   -0.2089 N.pl3   1  LIG1       -0.3541
     30 H          -4.9736   10.3220   -0.6343 H       1  LIG1        0.1425
     31 H          -6.1922    9.1569   -0.5541 H       1  LIG1        0.1425
     32 C          -5.5333    6.1714    0.0178 C.ar    1  LIG1        0.1865
     33 C          -6.8995    6.1935   -0.2231 C.ar    1  LIG1        0.0745
     34 C          -7.4071    4.8910    0.1331 C.ar    1  LIG1        0.0769
     35 C          -6.3294    4.1727    0.5578 C.ar    1  LIG1        0.1144
     36 O          -5.1912    4.9441    0.4931 O.2     1  LIG1       -0.4567
     37 H          -6.1981    3.1669    0.9213 H       1  LIG1        0.1049
     38 S          -7.8791    7.4480   -0.9978 S.3     1  LIG1       -0.1371
     39 H          -8.6007    7.8510    0.0762 H       1  LIG1        0.1073
     40 N          -8.7558    4.5329    0.0905 N.pl3   1  LIG1       -0.3547
     41 H          -9.2485    4.9992   -0.6643 H       1  LIG1        0.1424
     42 H          -8.9055    3.5328    0.0440 H       1  LIG1        0.1424
@<TRIPOS>BOND
     1     6     1    1
     2    38    33    1
     3    38    39    1
     4     1     5   ar
     5     1     2   ar
     6     5     4   ar
     7    41    40    1
     8    30    29    1
     9     7     2    1
    10     7     8    1
    11     2     3   ar
    12    27    23    1
    13    27    28    1
    14    31    29    1
    15     4    12    1
    16     4     3   ar
    17    16    12   ar
    18    16    15   ar
    19    12    13   ar
    20    23    24   ar
    21    23    22   ar
    22     3     9    1
    23    24    29    1
    24    24    25   ar
    25    33    32   ar
    26    33    34   ar
    27    15    22    1
    28    15    14   ar
    29    22    26   ar
    30    25    26   ar
    31    25    32    1
    32    13    17    1
    33    13    14   ar
    34    17    18    1
    35    21    19    1
    36    20    19    1
    37    14    19    1
    38    32    36   ar
    39    10     9    1
    40    42    40    1
    41    40    34    1
    42    11     9    1
    43    34    35   ar
    44    36    35   ar
    45    35    37    1
