@<TRIPOS>MOLECULE
mol_data/opt/b3lyp/geoms/mol2/12gi12gi12gi12gi.out
 46 49 0 0 0
SMALL
GASTEIGER

@<TRIPOS>ATOM
      1 C           1.0577    2.3012   -2.1708 C.ar    1  LIG1        0.1061
      2 C           1.9530    1.9943   -1.1875 C.ar    1  LIG1        0.0462
      3 C           1.9732    3.1145   -0.2784 C.ar    1  LIG1        0.0116
      4 C           1.0957    4.0265   -0.8118 C.ar    1  LIG1        0.1748
      5 O           0.5224    3.5251   -1.9621 O.2     1  LIG1       -0.4584
      6 H           0.7120    1.7615   -3.0386 H       1  LIG1        0.1041
      7 S           2.7819    0.4338   -1.0176 S.3     1  LIG1       -0.1393
      8 H           4.0414    0.8624   -1.2554 H       1  LIG1        0.1072
      9 C           2.7441    3.2012    1.0002 C.3     1  LIG1       -0.0350
     10 H           2.3046    3.9388    1.6765 H       1  LIG1        0.0279
     11 H           3.7873    3.4893    0.8296 H       1  LIG1        0.0279
     12 H           2.7492    2.2291    1.5028 H       1  LIG1        0.0279
     13 C           0.6593    5.3433   -0.4073 C.ar    1  LIG1        0.1843
     14 C           1.3062    6.4544    0.0880 C.ar    1  LIG1        0.0573
     15 C           0.3046    7.4571    0.3315 C.ar    1  LIG1        0.0123
     16 C          -0.8801    6.8950   -0.0784 C.ar    1  LIG1        0.1758
     17 O          -0.6767    5.6059   -0.5070 O.2     1  LIG1       -0.4472
     18 S           3.0470    6.6045    0.3999 S.3     1  LIG1       -0.1386
     19 H           3.2569    7.6937   -0.3706 H       1  LIG1        0.1072
     20 C           0.5324    8.7998    0.9498 C.3     1  LIG1       -0.0349
     21 H          -0.3985    9.2120    1.3472 H       1  LIG1        0.0279
     22 H           0.9309    9.5223    0.2288 H       1  LIG1        0.0279
     23 H           1.2536    8.7202    1.7694 H       1  LIG1        0.0279
     24 C          -2.2434    7.3709   -0.1174 C.ar    1  LIG1        0.1843
     25 C          -2.8313    8.5625   -0.4820 C.ar    1  LIG1        0.0573
     26 C          -4.2457    8.4240   -0.2630 C.ar    1  LIG1        0.0123
     27 C          -4.4210    7.1357    0.1800 C.ar    1  LIG1        0.1758
     28 O          -3.2106    6.4971    0.2906 O.2     1  LIG1       -0.4472
     29 S          -1.9934   10.0080   -1.0811 S.3     1  LIG1       -0.1386
     30 H          -2.6911   10.1339   -2.2306 H       1  LIG1        0.1072
     31 C          -5.2770    9.4918   -0.4462 C.3     1  LIG1       -0.0349
     32 H          -6.1850    9.2598    0.1161 H       1  LIG1        0.0279
     33 H          -5.5636    9.6098   -1.4972 H       1  LIG1        0.0279
     34 H          -4.8904   10.4550   -0.0987 H       1  LIG1        0.0279
     35 C          -5.5833    6.3657    0.5617 C.ar    1  LIG1        0.1833
     36 C          -6.8459    6.2098    0.0352 C.ar    1  LIG1        0.0566
     37 C          -7.5584    5.3062    0.9055 C.ar    1  LIG1        0.0012
     38 C          -6.6636    4.9708    1.8754 C.ar    1  LIG1        0.0967
     39 O          -5.4718    5.6057    1.6958 O.2     1  LIG1       -0.4584
     40 H          -6.7231    4.3179    2.7329 H       1  LIG1        0.1032
     41 S          -7.4805    6.9856   -1.4302 S.3     1  LIG1       -0.1386
     42 H          -7.7739    5.8523   -2.1045 H       1  LIG1        0.1072
     43 C          -8.9685    4.8290    0.7523 C.3     1  LIG1       -0.0357
     44 H          -9.2707    4.2190    1.6077 H       1  LIG1        0.0279
     45 H          -9.0938    4.2200   -0.1507 H       1  LIG1        0.0279
     46 H          -9.6623    5.6722    0.6695 H       1  LIG1        0.0279
@<TRIPOS>BOND
     1     6     1    1
     2    30    29    1
     3     1     5   ar
     4     1     2   ar
     5    42    41    1
     6     5     4   ar
     7    33    31    1
     8    41    36    1
     9     8     7    1
    10     2     7    1
    11     2     3   ar
    12    29    25    1
    13     4    13    1
    14     4     3   ar
    15    17    13   ar
    16    17    16   ar
    17    25    26   ar
    18    25    24   ar
    19    31    26    1
    20    31    34    1
    21    31    32    1
    22    13    14   ar
    23    19    18    1
    24     3     9    1
    25    26    27   ar
    26    45    43    1
    27    24    16    1
    28    24    28   ar
    29    16    15   ar
    30    36    35   ar
    31    36    37   ar
    32    14    15   ar
    33    14    18    1
    34    27    28   ar
    35    27    35    1
    36    22    20    1
    37    15    20    1
    38    35    39   ar
    39    46    43    1
    40    43    37    1
    41    43    44    1
    42    11     9    1
    43    37    38   ar
    44    20    21    1
    45    20    23    1
    46     9    12    1
    47     9    10    1
    48    39    38   ar
    49    38    40    1
