@<TRIPOS>MOLECULE
mol_data/opt/b3lyp/geoms/mol2/12gi12gi12gi-12gi.out
 46 49 0 0 0
SMALL
GASTEIGER

@<TRIPOS>ATOM
      1 C           1.0712    2.3142   -2.1860 C.ar    1  LIG1        0.1061
      2 C           1.9606    2.0017   -1.1991 C.ar    1  LIG1        0.0462
      3 C           1.9752    3.1165   -0.2834 C.ar    1  LIG1        0.0116
      4 C           1.1008    4.0315   -0.8167 C.ar    1  LIG1        0.1748
      5 O           0.5345    3.5368   -1.9734 O.2     1  LIG1       -0.4584
      6 H           0.7308    1.7796   -3.0591 H       1  LIG1        0.1041
      7 S           2.7887    0.4402   -1.0335 S.3     1  LIG1       -0.1393
      8 H           4.0496    0.8703   -1.2612 H       1  LIG1        0.1072
      9 C           2.7385    3.1958    1.0002 C.3     1  LIG1       -0.0350
     10 H           2.2947    3.9292    1.6782 H       1  LIG1        0.0279
     11 H           3.7825    3.4851    0.8376 H       1  LIG1        0.0279
     12 H           2.7407    2.2207    1.4972 H       1  LIG1        0.0279
     13 C           0.6618    5.3459   -0.4071 C.ar    1  LIG1        0.1843
     14 C           1.3055    6.4541    0.0986 C.ar    1  LIG1        0.0573
     15 C           0.3023    7.4552    0.3420 C.ar    1  LIG1        0.0123
     16 C          -0.8798    6.8955   -0.0783 C.ar    1  LIG1        0.1758
     17 O          -0.6737    5.6089   -0.5133 O.2     1  LIG1       -0.4472
     18 S           3.0444    6.6026    0.4219 S.3     1  LIG1       -0.1386
     19 H           3.2588    7.6963   -0.3409 H       1  LIG1        0.1072
     20 C           0.5262    8.7943    0.9697 C.3     1  LIG1       -0.0349
     21 H          -0.4071    9.2040    1.3638 H       1  LIG1        0.0279
     22 H           0.9289    9.5211    0.2553 H       1  LIG1        0.0279
     23 H           1.2424    8.7099    1.7931 H       1  LIG1        0.0279
     24 C          -2.2430    7.3714   -0.1227 C.ar    1  LIG1        0.1843
     25 C          -2.8288    8.5650   -0.4839 C.ar    1  LIG1        0.0573
     26 C          -4.2445    8.4251   -0.2742 C.ar    1  LIG1        0.0123
     27 C          -4.4223    7.1342    0.1602 C.ar    1  LIG1        0.1758
     28 O          -3.2125    6.4951    0.2743 O.2     1  LIG1       -0.4472
     29 S          -1.9876   10.0141   -1.0695 S.3     1  LIG1       -0.1386
     30 H          -2.6781   10.1465   -2.2225 H       1  LIG1        0.1072
     31 C          -5.2749    9.4937   -0.4574 C.3     1  LIG1       -0.0349
     32 H          -6.1862    9.2584    0.0981 H       1  LIG1        0.0279
     33 H          -5.5551    9.6178   -1.5094 H       1  LIG1        0.0279
     34 H          -4.8905   10.4550   -0.1021 H       1  LIG1        0.0279
     35 C          -5.5867    6.3618    0.5304 C.ar    1  LIG1        0.1833
     36 C          -6.8461    6.2088   -0.0046 C.ar    1  LIG1        0.0566
     37 C          -7.5637    5.3001    0.8561 C.ar    1  LIG1        0.0012
     38 C          -6.6748    4.9592    1.8295 C.ar    1  LIG1        0.0967
     39 O          -5.4819    5.5953    1.6607 O.2     1  LIG1       -0.4584
     40 H          -6.7393    4.3014    2.6828 H       1  LIG1        0.1032
     41 S          -7.4719    6.9930   -1.4694 S.3     1  LIG1       -0.1386
     42 H          -7.7610    5.8636   -2.1520 H       1  LIG1        0.1072
     43 C          -8.9727    4.8236    0.6917 C.3     1  LIG1       -0.0357
     44 H          -9.2800    4.2087    1.5416 H       1  LIG1        0.0279
     45 H          -9.0925    4.2198   -0.2156 H       1  LIG1        0.0279
     46 H          -9.6662    5.6672    0.6095 H       1  LIG1        0.0279
@<TRIPOS>BOND
     1     6     1    1
     2    30    29    1
     3     1     5   ar
     4     1     2   ar
     5    42    41    1
     6     5     4   ar
     7    33    31    1
     8    41    36    1
     9     8     7    1
    10     2     7    1
    11     2     3   ar
    12    29    25    1
    13     4    13    1
    14     4     3   ar
    15    17    13   ar
    16    17    16   ar
    17    25    26   ar
    18    25    24   ar
    19    31    26    1
    20    31    34    1
    21    31    32    1
    22    13    14   ar
    23    19    18    1
    24     3     9    1
    25    26    27   ar
    26    45    43    1
    27    24    16    1
    28    24    28   ar
    29    16    15   ar
    30    36    35   ar
    31    36    37   ar
    32    14    15   ar
    33    14    18    1
    34    27    28   ar
    35    27    35    1
    36    22    20    1
    37    15    20    1
    38    35    39   ar
    39    46    43    1
    40    43    37    1
    41    43    44    1
    42    11     9    1
    43    37    38   ar
    44    20    21    1
    45    20    23    1
    46     9    12    1
    47     9    10    1
    48    39    38   ar
    49    38    40    1
