@<TRIPOS>MOLECULE
mol_data/opt/b3lyp/geoms/mol2/12gi12gi-12gi-.out
 35 37 0 0 0
SMALL
GASTEIGER

@<TRIPOS>ATOM
      1 C           0.5301    1.9236   -1.2367 C.ar    1  LIG1        0.1061
      2 C           1.6596    1.8247   -0.4773 C.ar    1  LIG1        0.0462
      3 C           1.8922    3.1287    0.0947 C.ar    1  LIG1        0.0116
      4 C           0.8842    3.9219   -0.3957 C.ar    1  LIG1        0.1748
      5 O           0.0402    3.1833   -1.1994 O.2     1  LIG1       -0.4584
      6 H          -0.0192    1.2064   -1.8264 H       1  LIG1        0.1041
      7 S           2.5407    0.3167   -0.1557 S.3     1  LIG1       -0.1393
      8 H           3.6824    0.6223   -0.8111 H       1  LIG1        0.1072
      9 C           2.9714    3.4875    1.0657 C.3     1  LIG1       -0.0350
     10 H           2.7149    4.3911    1.6245 H       1  LIG1        0.0279
     11 H           3.9278    3.6700    0.5634 H       1  LIG1        0.0279
     12 H           3.1245    2.6704    1.7775 H       1  LIG1        0.0279
     13 C           0.5364    5.3137   -0.2219 C.ar    1  LIG1        0.1843
     14 C           1.2608    6.4851   -0.1931 C.ar    1  LIG1        0.0573
     15 C           0.3316    7.5548    0.0547 C.ar    1  LIG1        0.0123
     16 C          -0.9037    6.9575    0.1135 C.ar    1  LIG1        0.1758
     17 O          -0.7861    5.5966   -0.0319 O.2     1  LIG1       -0.4472
     18 S           3.0179    6.6389   -0.3902 S.3     1  LIG1       -0.1386
     19 H           2.9903    7.4977   -1.4325 H       1  LIG1        0.1072
     20 C           0.6767    8.9972    0.2478 C.3     1  LIG1       -0.0349
     21 H          -0.1250    9.5254    0.7701 H       1  LIG1        0.0279
     22 H           0.8420    9.5115   -0.7056 H       1  LIG1        0.0279
     23 H           1.5945    9.0905    0.8369 H       1  LIG1        0.0279
     24 C          -2.2434    7.4617    0.3135 C.ar    1  LIG1        0.1833
     25 C          -2.9409    8.5488   -0.1639 C.ar    1  LIG1        0.0566
     26 C          -4.2520    8.5070    0.4370 C.ar    1  LIG1        0.0012
     27 C          -4.2505    7.3870    1.2110 C.ar    1  LIG1        0.0967
     28 O          -3.0484    6.7485    1.1624 O.2     1  LIG1       -0.4584
     29 H          -5.0010    6.9285    1.8370 H       1  LIG1        0.1032
     30 S          -2.3356    9.7759   -1.2945 S.3     1  LIG1       -0.1386
     31 H          -3.2892    9.6152   -2.2376 H       1  LIG1        0.1072
     32 C          -5.3721    9.4772    0.2288 C.3     1  LIG1       -0.0357
     33 H          -6.2232    9.2364    0.8713 H       1  LIG1        0.0279
     34 H          -5.7271    9.4697   -0.8085 H       1  LIG1        0.0279
     35 H          -5.0532   10.5010    0.4516 H       1  LIG1        0.0279
@<TRIPOS>BOND
     1    31    30    1
     2     6     1    1
     3    19    18    1
     4    30    25    1
     5     1     5   ar
     6     1     2   ar
     7     5     4   ar
     8     8     7    1
     9    34    32    1
    10    22    20    1
    11     2     7    1
    12     2     3   ar
    13     4    13    1
    14     4     3   ar
    15    18    14    1
    16    13    14   ar
    17    13    17   ar
    18    14    15   ar
    19    25    24   ar
    20    25    26   ar
    21    17    16   ar
    22    15    16   ar
    23    15    20    1
    24     3     9    1
    25    16    24    1
    26    32    26    1
    27    32    35    1
    28    32    33    1
    29    20    21    1
    30    20    23    1
    31    24    28   ar
    32    26    27   ar
    33    11     9    1
    34     9    10    1
    35     9    12    1
    36    28    27   ar
    37    27    29    1
