@<TRIPOS>MOLECULE
mol_data/opt/b3lyp/geoms/mol2/12gi12gi-12gi-12gi-.out
 46 49 0 0 0
SMALL
GASTEIGER

@<TRIPOS>ATOM
      1 C           1.0528    2.3103   -2.1756 C.ar    1  LIG1        0.1061
      2 C           1.9503    1.9996   -1.1955 C.ar    1  LIG1        0.0462
      3 C           1.9725    3.1161   -0.2820 C.ar    1  LIG1        0.0116
      4 C           1.0938    4.0301   -0.8098 C.ar    1  LIG1        0.1748
      5 O           0.5180    3.5334   -1.9609 O.2     1  LIG1       -0.4584
      6 H           0.7052    1.7741   -3.0448 H       1  LIG1        0.1041
      7 S           2.7795    0.4382   -1.0337 S.3     1  LIG1       -0.1393
      8 H           4.0385    0.8676   -1.2727 H       1  LIG1        0.1072
      9 C           2.7463    3.1978    0.9951 C.3     1  LIG1       -0.0350
     10 H           2.3080    3.9324    1.6755 H       1  LIG1        0.0279
     11 H           3.7889    3.4871    0.8234 H       1  LIG1        0.0279
     12 H           2.7529    2.2236    1.4938 H       1  LIG1        0.0279
     13 C           0.6583    5.3453   -0.3990 C.ar    1  LIG1        0.1843
     14 C           1.3063    6.4545    0.0990 C.ar    1  LIG1        0.0573
     15 C           0.3054    7.4561    0.3492 C.ar    1  LIG1        0.0123
     16 C          -0.8804    6.8956   -0.0597 C.ar    1  LIG1        0.1758
     17 O          -0.6780    5.6082   -0.4940 O.2     1  LIG1       -0.4472
     18 S           3.0480    6.6034    0.4070 S.3     1  LIG1       -0.1386
     19 H           3.2559    7.6957   -0.3597 H       1  LIG1        0.1072
     20 C           0.5347    8.7964    0.9724 C.3     1  LIG1       -0.0349
     21 H          -0.3951    9.2069    1.3738 H       1  LIG1        0.0279
     22 H           0.9314    9.5218    0.2533 H       1  LIG1        0.0279
     23 H           1.2580    8.7134    1.7898 H       1  LIG1        0.0279
     24 C          -2.2439    7.3714   -0.0934 C.ar    1  LIG1        0.1843
     25 C          -2.8329    8.5645   -0.4515 C.ar    1  LIG1        0.0573
     26 C          -4.2467    8.4248   -0.2295 C.ar    1  LIG1        0.0123
     27 C          -4.4207    7.1345    0.2084 C.ar    1  LIG1        0.1758
     28 O          -3.2099    6.4957    0.3132 O.2     1  LIG1       -0.4472
     29 S          -1.9968   10.0127   -1.0466 S.3     1  LIG1       -0.1386
     30 H          -2.6974   10.1432   -2.1938 H       1  LIG1        0.1072
     31 C          -5.2787    9.4931   -0.4056 C.3     1  LIG1       -0.0349
     32 H          -6.1852    9.2585    0.1580 H       1  LIG1        0.0279
     33 H          -5.5679    9.6155   -1.4554 H       1  LIG1        0.0279
     34 H          -4.8914   10.4549   -0.0549 H       1  LIG1        0.0279
     35 C          -5.5819    6.3627    0.5897 C.ar    1  LIG1        0.1833
     36 C          -6.8459    6.2090    0.0657 C.ar    1  LIG1        0.0566
     37 C          -7.5561    5.3016    0.9339 C.ar    1  LIG1        0.0012
     38 C          -6.6589    4.9622    1.9002 C.ar    1  LIG1        0.0967
     39 O          -5.4676    5.5980    1.7203 O.2     1  LIG1       -0.4584
     40 H          -6.7162    4.3057    2.7551 H       1  LIG1        0.1032
     41 S          -7.4841    6.9909   -1.3949 S.3     1  LIG1       -0.1386
     42 H          -7.7794    5.8604   -2.0731 H       1  LIG1        0.1072
     43 C          -8.9665    4.8248    0.7822 C.3     1  LIG1       -0.0357
     44 H          -9.2665    4.2112    1.6357 H       1  LIG1        0.0279
     45 H          -9.0939    4.2196   -0.1231 H       1  LIG1        0.0279
     46 H          -9.6606    5.6683    0.7047 H       1  LIG1        0.0279
@<TRIPOS>BOND
     1     6     1    1
     2    30    29    1
     3     1     5   ar
     4     1     2   ar
     5    42    41    1
     6     5     4   ar
     7    33    31    1
     8    41    36    1
     9     8     7    1
    10     2     7    1
    11     2     3   ar
    12    29    25    1
    13     4    13    1
    14     4     3   ar
    15    17    13   ar
    16    17    16   ar
    17    25    26   ar
    18    25    24   ar
    19    31    26    1
    20    31    34    1
    21    31    32    1
    22    13    14   ar
    23    19    18    1
    24     3     9    1
    25    26    27   ar
    26    45    43    1
    27    24    16    1
    28    24    28   ar
    29    16    15   ar
    30    36    35   ar
    31    36    37   ar
    32    14    15   ar
    33    14    18    1
    34    27    28   ar
    35    27    35    1
    36    22    20    1
    37    15    20    1
    38    35    39   ar
    39    46    43    1
    40    43    37    1
    41    43    44    1
    42    11     9    1
    43    37    38   ar
    44    20    21    1
    45    20    23    1
    46     9    12    1
    47     9    10    1
    48    39    38   ar
    49    38    40    1
