@<TRIPOS>MOLECULE
mol_data/opt/b3lyp/geoms/mol2/12gi12gi.out
 24 25 0 0 0
SMALL
GASTEIGER

@<TRIPOS>ATOM
      1 C           0.2756    1.8568   -0.6075 C.ar    1  LIG1        0.1061
      2 C           1.5663    1.8333   -0.1654 C.ar    1  LIG1        0.0462
      3 C           1.9042    3.1864    0.2053 C.ar    1  LIG1        0.0116
      4 C           0.7823    3.9268   -0.0727 C.ar    1  LIG1        0.1747
      5 O          -0.2217    3.1138   -0.5574 O.2     1  LIG1       -0.4584
      6 H          -0.3890    1.0854   -0.9641 H       1  LIG1        0.1041
      7 S           2.5414    0.3649    0.0483 S.3     1  LIG1       -0.1393
      8 H           3.4594    0.6063   -0.9138 H       1  LIG1        0.1072
      9 C           3.1901    3.6414    0.8186 C.3     1  LIG1       -0.0350
     10 H           3.0621    4.5928    1.3414 H       1  LIG1        0.0279
     11 H           3.9743    3.7811    0.0663 H       1  LIG1        0.0279
     12 H           3.5507    2.8966    1.5349 H       1  LIG1        0.0279
     13 C           0.4573    5.3298    0.0570 C.ar    1  LIG1        0.1833
     14 C           1.1263    6.4978   -0.2305 C.ar    1  LIG1        0.0566
     15 C           0.2626    7.5870    0.1575 C.ar    1  LIG1        0.0012
     16 C          -0.8681    6.9914    0.6264 C.ar    1  LIG1        0.0967
     17 O          -0.7691    5.6327    0.5877 O.2     1  LIG1       -0.4584
     18 H          -1.7968    7.3839    1.0120 H       1  LIG1        0.1032
     19 S           2.7533    6.6327   -0.9274 S.3     1  LIG1       -0.1386
     20 H           2.4097    7.3626   -2.0113 H       1  LIG1        0.1072
     21 C           0.5488    9.0513    0.0431 C.3     1  LIG1       -0.0357
     22 H          -0.2513    9.6434    0.4953 H       1  LIG1        0.0279
     23 H           0.6430    9.3653   -1.0032 H       1  LIG1        0.0279
     24 H           1.4895    9.3085    0.5412 H       1  LIG1        0.0279
@<TRIPOS>BOND
     1    20    19    1
     2    23    21    1
     3     6     1    1
     4    19    14    1
     5     8     7    1
     6     1     5   ar
     7     1     2   ar
     8     5     4   ar
     9    14    13   ar
    10    14    15   ar
    11     2     7    1
    12     2     3   ar
    13     4    13    1
    14     4     3   ar
    15    21    15    1
    16    21    22    1
    17    21    24    1
    18    13    17   ar
    19    11     9    1
    20    15    16   ar
    21     3     9    1
    22    17    16   ar
    23    16    18    1
    24     9    10    1
    25     9    12    1
