@<TRIPOS>MOLECULE
mol_data/opt/b3lyp/geoms/mol2/12gi12gi12gi.out
 35 37 0 0 0
SMALL
GASTEIGER

@<TRIPOS>ATOM
      1 C           0.5434    1.9226   -1.2403 C.ar    1  LIG1        0.1061
      2 C           1.6658    1.8249   -0.4703 C.ar    1  LIG1        0.0462
      3 C           1.8926    3.1295    0.1026 C.ar    1  LIG1        0.0116
      4 C           0.8889    3.9219   -0.3980 C.ar    1  LIG1        0.1748
      5 O           0.0527    3.1822   -1.2088 O.2     1  LIG1       -0.4584
      6 H          -0.0001    1.2046   -1.8344 H       1  LIG1        0.1041
      7 S           2.5442    0.3177   -0.1389 S.3     1  LIG1       -0.1393
      8 H           3.6920    0.6230   -0.7838 H       1  LIG1        0.1072
      9 C           2.9622    3.4894    1.0838 C.3     1  LIG1       -0.0350
     10 H           2.7002    4.3935    1.6392 H       1  LIG1        0.0279
     11 H           3.9235    3.6712    0.5909 H       1  LIG1        0.0279
     12 H           3.1081    2.6730    1.7980 H       1  LIG1        0.0279
     13 C           0.5390    5.3138   -0.2292 C.ar    1  LIG1        0.1843
     14 C           1.2628    6.4854   -0.1932 C.ar    1  LIG1        0.0573
     15 C           0.3306    7.5550    0.0435 C.ar    1  LIG1        0.0123
     16 C          -0.9051    6.9575    0.0891 C.ar    1  LIG1        0.1758
     17 O          -0.7855    5.5965   -0.0540 O.2     1  LIG1       -0.4472
     18 S           3.0219    6.6398   -0.3720 S.3     1  LIG1       -0.1386
     19 H           3.0048    7.4976   -1.4154 H       1  LIG1        0.1072
     20 C           0.6731    8.9977    0.2387 C.3     1  LIG1       -0.0349
     21 H          -0.1343    9.5262    0.7518 H       1  LIG1        0.0279
     22 H           0.8483    9.5110   -0.7135 H       1  LIG1        0.0279
     23 H           1.5845    9.0921    0.8373 H       1  LIG1        0.0279
     24 C          -2.2469    7.4617    0.2742 C.ar    1  LIG1        0.1833
     25 C          -2.9397    8.5475   -0.2126 C.ar    1  LIG1        0.0566
     26 C          -4.2569    8.5067    0.3746 C.ar    1  LIG1        0.0012
     27 C          -4.2632    7.3883    1.1511 C.ar    1  LIG1        0.0967
     28 O          -3.0604    6.7501    1.1163 O.2     1  LIG1       -0.4584
     29 H          -5.0200    6.9311    1.7702 H       1  LIG1        0.1032
     30 S          -2.3225    9.7727   -1.3391 S.3     1  LIG1       -0.1386
     31 H          -3.2659    9.6101   -2.2921 H       1  LIG1        0.1072
     32 C          -5.3750    9.4762    0.1528 C.3     1  LIG1       -0.0357
     33 H          -6.2327    9.2366    0.7868 H       1  LIG1        0.0279
     34 H          -5.7191    9.4664   -0.8882 H       1  LIG1        0.0279
     35 H          -5.0586   10.5005    0.3767 H       1  LIG1        0.0279
@<TRIPOS>BOND
     1    31    30    1
     2     6     1    1
     3    19    18    1
     4    30    25    1
     5     1     5   ar
     6     1     2   ar
     7     5     4   ar
     8    34    32    1
     9     8     7    1
    10    22    20    1
    11     2     7    1
    12     2     3   ar
    13     4    13    1
    14     4     3   ar
    15    18    14    1
    16    13    14   ar
    17    13    17   ar
    18    25    24   ar
    19    25    26   ar
    20    14    15   ar
    21    17    16   ar
    22    15    16   ar
    23    15    20    1
    24    16    24    1
    25     3     9    1
    26    32    26    1
    27    32    35    1
    28    32    33    1
    29    20    21    1
    30    20    23    1
    31    24    28   ar
    32    26    27   ar
    33    11     9    1
    34     9    10    1
    35     9    12    1
    36    28    27   ar
    37    27    29    1
