@<TRIPOS>MOLECULE
mol_data/opt/b3lyp/geoms/mol2/12gi.out
 13 13 0 0 0
SMALL
GASTEIGER

@<TRIPOS>ATOM
      1 C           0.1516    1.8798    0.0002 C.ar    1  LIG1        0.1051
      2 C           1.5133    1.9142    0.0691 C.ar    1  LIG1        0.0454
      3 C           1.8924    3.3108    0.0752 C.ar    1  LIG1        0.0004
      4 C           0.7172    3.9931    0.0001 C.ar    1  LIG1        0.0957
      5 O          -0.3525    3.1393   -0.0398 O.2     1  LIG1       -0.4696
      6 H          -0.5608    1.0701   -0.0201 H       1  LIG1        0.1041
      7 H           0.4784    5.0452   -0.0284 H       1  LIG1        0.1032
      8 S           2.5625    0.4936    0.2582 S.3     1  LIG1       -0.1393
      9 H           3.1458    0.5228   -0.9609 H       1  LIG1        0.1072
     10 C           3.2782    3.8713    0.1474 C.3     1  LIG1       -0.0357
     11 H           3.2583    4.9622    0.2167 H       1  LIG1        0.0279
     12 H           3.8676    3.6032   -0.7370 H       1  LIG1        0.0279
     13 H           3.8145    3.4819    1.0191 H       1  LIG1        0.0279
@<TRIPOS>BOND
     1     9     8    1
     2    12    10    1
     3     5     4   ar
     4     5     1   ar
     5     7     4    1
     6     6     1    1
     7     4     3   ar
     8     1     2   ar
     9     2     3   ar
    10     2     8    1
    11     3    10    1
    12    10    11    1
    13    10    13    1
