@<TRIPOS>MOLECULE
mol_data/opt/b3lyp/geoms/mol2/12gi12gi12gi-12gi-.out
 46 49 0 0 0
SMALL
GASTEIGER

@<TRIPOS>ATOM
      1 C           1.0741    2.3127   -2.1812 C.ar    1  LIG1        0.1061
      2 C           1.9622    2.0010   -1.1929 C.ar    1  LIG1        0.0462
      3 C           1.9755    3.1167   -0.2781 C.ar    1  LIG1        0.0116
      4 C           1.1019    4.0311   -0.8133 C.ar    1  LIG1        0.1748
      5 O           0.5371    3.5355   -1.9704 O.2     1  LIG1       -0.4584
      6 H           0.7350    1.7774   -3.0543 H       1  LIG1        0.1041
      7 S           2.7900    0.4397   -1.0248 S.3     1  LIG1       -0.1393
      8 H           4.0512    0.8696   -1.2512 H       1  LIG1        0.1072
      9 C           2.7370    3.1971    1.0065 C.3     1  LIG1       -0.0350
     10 H           2.2924    3.9311    1.6833 H       1  LIG1        0.0279
     11 H           3.7813    3.4863    0.8450 H       1  LIG1        0.0279
     12 H           2.7387    2.2224    1.5043 H       1  LIG1        0.0279
     13 C           0.6623    5.3459   -0.4054 C.ar    1  LIG1        0.1843
     14 C           1.3053    6.4545    0.1000 C.ar    1  LIG1        0.0573
     15 C           0.3019    7.4558    0.3415 C.ar    1  LIG1        0.0123
     16 C          -0.8798    6.8956   -0.0795 C.ar    1  LIG1        0.1758
     17 O          -0.6731    5.6087   -0.5131 O.2     1  LIG1       -0.4472
     18 S           3.0439    6.6033    0.4250 S.3     1  LIG1       -0.1386
     19 H           3.2591    7.6965   -0.3384 H       1  LIG1        0.1072
     20 C           0.5251    8.7955    0.9683 C.3     1  LIG1       -0.0349
     21 H          -0.4087    9.2054    1.3612 H       1  LIG1        0.0279
     22 H           0.9284    9.5217    0.2538 H       1  LIG1        0.0279
     23 H           1.2405    8.7118    1.7925 H       1  LIG1        0.0279
     24 C          -2.2429    7.3714   -0.1258 C.ar    1  LIG1        0.1843
     25 C          -2.8285    8.5648   -0.4884 C.ar    1  LIG1        0.0573
     26 C          -4.2444    8.4249   -0.2802 C.ar    1  LIG1        0.0123
     27 C          -4.4225    7.1341    0.1548 C.ar    1  LIG1        0.1758
     28 O          -3.2128    6.4953    0.2707 O.2     1  LIG1       -0.4472
     29 S          -1.9868   10.0136   -1.0740 S.3     1  LIG1       -0.1386
     30 H          -2.6762   10.1452   -2.2278 H       1  LIG1        0.1072
     31 C          -5.2746    9.4933   -0.4651 C.3     1  LIG1       -0.0349
     32 H          -6.1865    9.2582    0.0895 H       1  LIG1        0.0279
     33 H          -5.5538    9.6167   -1.5175 H       1  LIG1        0.0279
     34 H          -4.8908   10.4548   -0.1099 H       1  LIG1        0.0279
     35 C          -5.5872    6.3619    0.5242 C.ar    1  LIG1        0.1833
     36 C          -6.8461    6.2086   -0.0120 C.ar    1  LIG1        0.0566
     37 C          -7.5646    5.3003    0.8486 C.ar    1  LIG1        0.0012
     38 C          -6.6766    4.9600    1.8230 C.ar    1  LIG1        0.0967
     39 O          -5.4836    5.5960    1.6551 O.2     1  LIG1       -0.4584
     40 H          -6.7420    4.3026    2.6766 H       1  LIG1        0.1032
     41 S          -7.4705    6.9919   -1.4778 S.3     1  LIG1       -0.1386
     42 H          -7.7589    5.8621   -2.1600 H       1  LIG1        0.1072
     43 C          -8.9734    4.8237    0.6829 C.3     1  LIG1       -0.0357
     44 H          -9.2815    4.2092    1.5329 H       1  LIG1        0.0279
     45 H          -9.0922    4.2194   -0.2241 H       1  LIG1        0.0279
     46 H          -9.6668    5.6672    0.5996 H       1  LIG1        0.0279
@<TRIPOS>BOND
     1     6     1    1
     2    30    29    1
     3     1     5   ar
     4     1     2   ar
     5    42    41    1
     6     5     4   ar
     7    33    31    1
     8    41    36    1
     9     8     7    1
    10     2     7    1
    11     2     3   ar
    12    29    25    1
    13     4    13    1
    14     4     3   ar
    15    17    13   ar
    16    17    16   ar
    17    25    26   ar
    18    25    24   ar
    19    31    26    1
    20    31    34    1
    21    31    32    1
    22    13    14   ar
    23    19    18    1
    24    26    27   ar
    25     3     9    1
    26    45    43    1
    27    24    16    1
    28    24    28   ar
    29    16    15   ar
    30    36    35   ar
    31    36    37   ar
    32    14    15   ar
    33    14    18    1
    34    27    28   ar
    35    27    35    1
    36    22    20    1
    37    15    20    1
    38    35    39   ar
    39    46    43    1
    40    43    37    1
    41    43    44    1
    42    11     9    1
    43    37    38   ar
    44    20    21    1
    45    20    23    1
    46     9    12    1
    47     9    10    1
    48    39    38   ar
    49    38    40    1
