@<TRIPOS>MOLECULE
mol_data/opt/b3lyp/geoms/mol2/12gi12gi-12gi.out
 35 37 0 0 0
SMALL
GASTEIGER

@<TRIPOS>ATOM
      1 C           0.5293    1.9193   -1.2248 C.ar    1  LIG1        0.1061
      2 C           1.6596    1.8231   -0.4662 C.ar    1  LIG1        0.0462
      3 C           1.8924    3.1289    0.1015 C.ar    1  LIG1        0.0116
      4 C           0.8839    3.9204   -0.3905 C.ar    1  LIG1        0.1748
      5 O           0.0392    3.1791   -1.1910 O.2     1  LIG1       -0.4584
      6 H          -0.0205    1.2001   -1.8116 H       1  LIG1        0.1041
      7 S           2.5407    0.3163   -0.1403 S.3     1  LIG1       -0.1393
      8 H           3.6817    0.6192   -0.7983 H       1  LIG1        0.1072
      9 C           2.9727    3.4911    1.0701 C.3     1  LIG1       -0.0350
     10 H           2.7167    4.3965    1.6262 H       1  LIG1        0.0279
     11 H           3.9285    3.6717    0.5663 H       1  LIG1        0.0279
     12 H           3.1264    2.6764    1.7846 H       1  LIG1        0.0279
     13 C           0.5362    5.3129   -0.2214 C.ar    1  LIG1        0.1843
     14 C           1.2606    6.4844   -0.1974 C.ar    1  LIG1        0.0573
     15 C           0.3314    7.5549    0.0473 C.ar    1  LIG1        0.0123
     16 C          -0.9038    6.9577    0.1093 C.ar    1  LIG1        0.1758
     17 O          -0.7862    5.5964   -0.0313 O.2     1  LIG1       -0.4472
     18 S           3.0175    6.6378   -0.3963 S.3     1  LIG1       -0.1386
     19 H           2.9889    7.4957   -1.4393 H       1  LIG1        0.1072
     20 C           0.6767    8.9980    0.2351 C.3     1  LIG1       -0.0349
     21 H          -0.1245    9.5279    0.7564 H       1  LIG1        0.0279
     22 H           0.8410    9.5091   -0.7201 H       1  LIG1        0.0279
     23 H           1.5950    9.0933    0.8231 H       1  LIG1        0.0279
     24 C          -2.2433    7.4628    0.3081 C.ar    1  LIG1        0.1833
     25 C          -2.9411    8.5479   -0.1730 C.ar    1  LIG1        0.0566
     26 C          -4.2518    8.5087    0.4289 C.ar    1  LIG1        0.0012
     27 C          -4.2498    7.3917    1.2075 C.ar    1  LIG1        0.0967
     28 O          -3.0477    6.7530    1.1605 O.2     1  LIG1       -0.4584
     29 H          -4.9998    6.9358    1.8358 H       1  LIG1        0.1032
     30 S          -2.3365    9.7706   -1.3089 S.3     1  LIG1       -0.1386
     31 H          -3.2903    9.6056   -2.2512 H       1  LIG1        0.1072
     32 C          -5.3720    9.4782    0.2178 C.3     1  LIG1       -0.0357
     33 H          -6.2227    9.2397    0.8617 H       1  LIG1        0.0279
     34 H          -5.7275    9.4668   -0.8193 H       1  LIG1        0.0279
     35 H          -5.0529   10.5027    0.4367 H       1  LIG1        0.0279
@<TRIPOS>BOND
     1    31    30    1
     2     6     1    1
     3    19    18    1
     4    30    25    1
     5     1     5   ar
     6     1     2   ar
     7     5     4   ar
     8    34    32    1
     9     8     7    1
    10    22    20    1
    11     2     7    1
    12     2     3   ar
    13    18    14    1
    14     4    13    1
    15     4     3   ar
    16    13    14   ar
    17    13    17   ar
    18    14    15   ar
    19    25    24   ar
    20    25    26   ar
    21    17    16   ar
    22    15    16   ar
    23    15    20    1
    24     3     9    1
    25    16    24    1
    26    32    26    1
    27    32    35    1
    28    32    33    1
    29    20    21    1
    30    20    23    1
    31    24    28   ar
    32    26    27   ar
    33    11     9    1
    34     9    10    1
    35     9    12    1
    36    28    27   ar
    37    27    29    1
