@<TRIPOS>MOLECULE
mol_data/opt/b3lyp/geoms/mol2/12gi12gi-.out
 24 25 0 0 0
SMALL
GASTEIGER

@<TRIPOS>ATOM
      1 C           0.2720    1.8552   -0.5965 C.ar    1  LIG1        0.1061
      2 C           1.5651    1.8328   -0.1617 C.ar    1  LIG1        0.0462
      3 C           1.9052    3.1869    0.2033 C.ar    1  LIG1        0.0116
      4 C           0.7818    3.9267   -0.0705 C.ar    1  LIG1        0.1747
      5 O          -0.2249    3.1123   -0.5473 O.2     1  LIG1       -0.4584
      6 H          -0.3946    1.0829   -0.9473 H       1  LIG1        0.1041
      7 S           2.5414    0.3650    0.0507 S.3     1  LIG1       -0.1393
      8 H           3.4540    0.6036   -0.9172 H       1  LIG1        0.1072
      9 C           3.1946    3.6436    0.8081 C.3     1  LIG1       -0.0350
     10 H           3.0696    4.5965    1.3288 H       1  LIG1        0.0279
     11 H           3.9745    3.7809    0.0510 H       1  LIG1        0.0279
     12 H           3.5591    2.9008    1.5245 H       1  LIG1        0.0279
     13 C           0.4576    5.3300    0.0571 C.ar    1  LIG1        0.1833
     14 C           1.1251    6.4971   -0.2374 C.ar    1  LIG1        0.0566
     15 C           0.2637    7.5875    0.1526 C.ar    1  LIG1        0.0012
     16 C          -0.8644    6.9933    0.6296 C.ar    1  LIG1        0.0967
     17 O          -0.7657    5.6345    0.5940 O.2     1  LIG1       -0.4584
     18 H          -1.7908    7.3870    1.0193 H       1  LIG1        0.1032
     19 S           2.7481    6.6300   -0.9440 S.3     1  LIG1       -0.1386
     20 H           2.3983    7.3564   -2.0281 H       1  LIG1        0.1072
     21 C           0.5494    9.0515    0.0325 C.3     1  LIG1       -0.0357
     22 H          -0.2480    9.6448    0.4876 H       1  LIG1        0.0279
     23 H           0.6376    9.3625   -1.0152 H       1  LIG1        0.0279
     24 H           1.4929    9.3099    0.5246 H       1  LIG1        0.0279
@<TRIPOS>BOND
     1    20    19    1
     2    23    21    1
     3     6     1    1
     4    19    14    1
     5     8     7    1
     6     1     5   ar
     7     1     2   ar
     8     5     4   ar
     9    14    13   ar
    10    14    15   ar
    11     2     7    1
    12     2     3   ar
    13     4    13    1
    14     4     3   ar
    15    21    15    1
    16    21    22    1
    17    21    24    1
    18    11     9    1
    19    13    17   ar
    20    15    16   ar
    21     3     9    1
    22    17    16   ar
    23    16    18    1
    24     9    10    1
    25     9    12    1
