@<TRIPOS>MOLECULE
mol_data/opt/b3lyp/geoms/mol2/12gi12gi12gi-.out
 35 37 0 0 0
SMALL
GASTEIGER

@<TRIPOS>ATOM
      1 C           0.5452    1.9256   -1.2496 C.ar    1  LIG1        0.1061
      2 C           1.6660    1.8258   -0.4773 C.ar    1  LIG1        0.0462
      3 C           1.8916    3.1289    0.0994 C.ar    1  LIG1        0.0116
      4 C           0.8891    3.9227   -0.4014 C.ar    1  LIG1        0.1748
      5 O           0.0546    3.1852   -1.2159 O.2     1  LIG1       -0.4584
      6 H           0.0030    1.2092   -1.8467 H       1  LIG1        0.1041
      7 S           2.5431    0.3177   -0.1478 S.3     1  LIG1       -0.1393
      8 H           3.6924    0.6241   -0.7895 H       1  LIG1        0.1072
      9 C           2.9595    3.4865    1.0833 C.3     1  LIG1       -0.0350
     10 H           2.6965    4.3894    1.6402 H       1  LIG1        0.0279
     11 H           3.9216    3.6694    0.5924 H       1  LIG1        0.0279
     12 H           3.1041    2.6686    1.7959 H       1  LIG1        0.0279
     13 C           0.5391    5.3143   -0.2295 C.ar    1  LIG1        0.1843
     14 C           1.2629    6.4857   -0.1908 C.ar    1  LIG1        0.0573
     15 C           0.3308    7.5548    0.0481 C.ar    1  LIG1        0.0123
     16 C          -0.9050    6.9573    0.0923 C.ar    1  LIG1        0.1758
     17 O          -0.7855    5.5967   -0.0539 O.2     1  LIG1       -0.4472
     18 S           3.0222    6.6402   -0.3682 S.3     1  LIG1       -0.1386
     19 H           3.0059    7.5017   -1.4085 H       1  LIG1        0.1072
     20 C           0.6735    8.9970    0.2472 C.3     1  LIG1       -0.0349
     21 H          -0.1338    9.5243    0.7616 H       1  LIG1        0.0279
     22 H           0.8492    9.5129   -0.7034 H       1  LIG1        0.0279
     23 H           1.5848    9.0895    0.8465 H       1  LIG1        0.0279
     24 C          -2.2469    7.4610    0.2780 C.ar    1  LIG1        0.1833
     25 C          -2.9392    8.5487   -0.2051 C.ar    1  LIG1        0.0566
     26 C          -4.2570    8.5057    0.3810 C.ar    1  LIG1        0.0012
     27 C          -4.2639    7.3843    1.1530 C.ar    1  LIG1        0.0967
     28 O          -3.0611    6.7461    1.1166 O.2     1  LIG1       -0.4584
     29 H          -5.0212    6.9246    1.7697 H       1  LIG1        0.1032
     30 S          -2.3216    9.7781   -1.3268 S.3     1  LIG1       -0.1386
     31 H          -3.2637    9.6176   -2.2816 H       1  LIG1        0.1072
     32 C          -5.3749    9.4761    0.1621 C.3     1  LIG1       -0.0357
     33 H          -6.2331    9.2338    0.7944 H       1  LIG1        0.0279
     34 H          -5.7180    9.4707   -0.8792 H       1  LIG1        0.0279
     35 H          -5.0587   10.4994    0.3907 H       1  LIG1        0.0279
@<TRIPOS>BOND
     1    31    30    1
     2     6     1    1
     3    19    18    1
     4    30    25    1
     5     1     5   ar
     6     1     2   ar
     7     5     4   ar
     8    34    32    1
     9     8     7    1
    10    22    20    1
    11     2     7    1
    12     2     3   ar
    13     4    13    1
    14     4     3   ar
    15    18    14    1
    16    13    14   ar
    17    13    17   ar
    18    25    24   ar
    19    25    26   ar
    20    14    15   ar
    21    17    16   ar
    22    15    16   ar
    23    15    20    1
    24    16    24    1
    25     3     9    1
    26    32    26    1
    27    32    35    1
    28    32    33    1
    29    20    21    1
    30    20    23    1
    31    24    28   ar
    32    26    27   ar
    33    11     9    1
    34     9    10    1
    35     9    12    1
    36    28    27   ar
    37    27    29    1
