@<TRIPOS>MOLECULE
mol_data/opt/b3lyp/geoms/mol2/12gi12gi-12gi12gi.out
 46 49 0 0 0
SMALL
GASTEIGER

@<TRIPOS>ATOM
      1 C           1.0367    2.2987   -2.1648 C.ar    1  LIG1        0.1061
      2 C           1.9413    1.9928   -1.1898 C.ar    1  LIG1        0.0462
      3 C           1.9703    3.1140   -0.2822 C.ar    1  LIG1        0.0116
      4 C           1.0879    4.0254   -0.8081 C.ar    1  LIG1        0.1748
      5 O           0.5035    3.5228   -1.9524 O.2     1  LIG1       -0.4584
      6 H           0.6827    1.7581   -3.0287 H       1  LIG1        0.1041
      7 S           2.7717    0.4323   -1.0262 S.3     1  LIG1       -0.1393
      8 H           4.0289    0.8605   -1.2764 H       1  LIG1        0.1072
      9 C           2.7535    3.2020    0.9889 C.3     1  LIG1       -0.0350
     10 H           2.3204    3.9402    1.6686 H       1  LIG1        0.0279
     11 H           3.7949    3.4901    0.8080 H       1  LIG1        0.0279
     12 H           2.7635    2.2304    1.4924 H       1  LIG1        0.0279
     13 C           0.6554    5.3427   -0.4009 C.ar    1  LIG1        0.1843
     14 C           1.3070    6.4542    0.0870 C.ar    1  LIG1        0.0573
     15 C           0.3078    7.4573    0.3391 C.ar    1  LIG1        0.0123
     16 C          -0.8808    6.8948   -0.0588 C.ar    1  LIG1        0.1758
     17 O          -0.6815    5.6052   -0.4880 O.2     1  LIG1       -0.4472
     18 S           3.0507    6.6046    0.3821 S.3     1  LIG1       -0.1386
     19 H           3.2533    7.6929   -0.3916 H       1  LIG1        0.1072
     20 C           0.5416    8.8007    0.9538 C.3     1  LIG1       -0.0349
     21 H          -0.3854    9.2133    1.3595 H       1  LIG1        0.0279
     22 H           0.9333    9.5224    0.2283 H       1  LIG1        0.0279
     23 H           1.2706    8.7219    1.7665 H       1  LIG1        0.0279
     24 C          -2.2444    7.3707   -0.0853 C.ar    1  LIG1        0.1843
     25 C          -2.8357    8.5619   -0.4455 C.ar    1  LIG1        0.0573
     26 C          -4.2479    8.4238   -0.2127 C.ar    1  LIG1        0.0123
     27 C          -4.4190    7.1359    0.2334 C.ar    1  LIG1        0.1758
     28 O          -3.2077    6.4974    0.3329 O.2     1  LIG1       -0.4472
     29 S          -2.0035   10.0067   -1.0543 S.3     1  LIG1       -0.1386
     30 H          -2.7123   10.1314   -2.1971 H       1  LIG1        0.1072
     31 C          -5.2809    9.4914   -0.3871 C.3     1  LIG1       -0.0349
     32 H          -6.1834    9.2601    0.1841 H       1  LIG1        0.0279
     33 H          -5.5775    9.6083   -1.4355 H       1  LIG1        0.0279
     34 H          -4.8909   10.4550   -0.0444 H       1  LIG1        0.0279
     35 C          -5.5776    6.3664    0.6271 C.ar    1  LIG1        0.1833
     36 C          -6.8453    6.2101    0.1130 C.ar    1  LIG1        0.0566
     37 C          -7.5494    5.3075    0.9911 C.ar    1  LIG1        0.0012
     38 C          -6.6453    4.9730    1.9527 C.ar    1  LIG1        0.0967
     39 O          -5.4552    5.6076    1.7608 O.2     1  LIG1       -0.4584
     40 H          -6.6965    4.3210    2.8114 H       1  LIG1        0.1032
     41 S          -7.4939    6.9845   -1.3470 S.3     1  LIG1       -0.1386
     42 H          -7.7943    5.8505   -2.0171 H       1  LIG1        0.1072
     43 C          -8.9609    4.8302    0.8521 C.3     1  LIG1       -0.0357
     44 H          -9.2549    4.2212    1.7109 H       1  LIG1        0.0279
     45 H          -9.0950    4.2203   -0.0490 H       1  LIG1        0.0279
     46 H          -9.6554    5.6734    0.7751 H       1  LIG1        0.0279
@<TRIPOS>BOND
     1     6     1    1
     2    30    29    1
     3     1     5   ar
     4     1     2   ar
     5    42    41    1
     6     5     4   ar
     7    33    31    1
     8    41    36    1
     9     8     7    1
    10     2     7    1
    11     2     3   ar
    12    29    25    1
    13     4    13    1
    14     4     3   ar
    15    17    13   ar
    16    17    16   ar
    17    25    26   ar
    18    25    24   ar
    19    13    14   ar
    20    19    18    1
    21    31    26    1
    22    31    34    1
    23    31    32    1
    24     3     9    1
    25    26    27   ar
    26    24    16    1
    27    24    28   ar
    28    16    15   ar
    29    45    43    1
    30    14    15   ar
    31    14    18    1
    32    36    35   ar
    33    36    37   ar
    34    22    20    1
    35    27    28   ar
    36    27    35    1
    37    15    20    1
    38    35    39   ar
    39    46    43    1
    40    11     9    1
    41    43    37    1
    42    43    44    1
    43    20    21    1
    44    20    23    1
    45     9    12    1
    46     9    10    1
    47    37    38   ar
    48    39    38   ar
    49    38    40    1
