@<TRIPOS>MOLECULE
mol_data/opt/b3lyp/geoms/mol2/12gi12gi-12gi-12gi.out
 46 49 0 0 0
SMALL
GASTEIGER

@<TRIPOS>ATOM
      1 C           1.0501    2.3118   -2.1802 C.ar    1  LIG1        0.1061
      2 C           1.9488    2.0002   -1.2015 C.ar    1  LIG1        0.0462
      3 C           1.9721    3.1160   -0.2872 C.ar    1  LIG1        0.0116
      4 C           1.0929    4.0305   -0.8131 C.ar    1  LIG1        0.1748
      5 O           0.5156    3.5346   -1.9638 O.2     1  LIG1       -0.4584
      6 H           0.7015    1.7763   -3.0495 H       1  LIG1        0.1041
      7 S           2.7783    0.4388   -1.0421 S.3     1  LIG1       -0.1393
      8 H           4.0370    0.8686   -1.2821 H       1  LIG1        0.1072
      9 C           2.7475    3.1965    0.9891 C.3     1  LIG1       -0.0350
     10 H           2.3103    3.9307    1.6706 H       1  LIG1        0.0279
     11 H           3.7900    3.4857    0.8163 H       1  LIG1        0.0279
     12 H           2.7545    2.2220    1.4870 H       1  LIG1        0.0279
     13 C           0.6578    5.3453   -0.4007 C.ar    1  LIG1        0.1843
     14 C           1.3064    6.4540    0.0976 C.ar    1  LIG1        0.0573
     15 C           0.3057    7.4555    0.3496 C.ar    1  LIG1        0.0123
     16 C          -0.8805    6.8954   -0.0587 C.ar    1  LIG1        0.1758
     17 O          -0.6786    5.6083   -0.4943 O.2     1  LIG1       -0.4472
     18 S           3.0483    6.6027    0.4040 S.3     1  LIG1       -0.1386
     19 H           3.2555    7.6956   -0.3620 H       1  LIG1        0.1072
     20 C           0.5357    8.7952    0.9736 C.3     1  LIG1       -0.0349
     21 H          -0.3938    9.2055    1.3762 H       1  LIG1        0.0279
     22 H           0.9317    9.5212    0.2547 H       1  LIG1        0.0279
     23 H           1.2597    8.7116    1.7903 H       1  LIG1        0.0279
     24 C          -2.2439    7.3713   -0.0906 C.ar    1  LIG1        0.1843
     25 C          -2.8332    8.5646   -0.4473 C.ar    1  LIG1        0.0573
     26 C          -4.2468    8.4250   -0.2239 C.ar    1  LIG1        0.0123
     27 C          -4.4204    7.1345    0.2135 C.ar    1  LIG1        0.1758
     28 O          -3.2096    6.4955    0.3166 O.2     1  LIG1       -0.4472
     29 S          -1.9975   10.0131   -1.0424 S.3     1  LIG1       -0.1386
     30 H          -2.6993   10.1444   -2.1888 H       1  LIG1        0.1072
     31 C          -5.2788    9.4935   -0.3982 C.3     1  LIG1       -0.0349
     32 H          -6.1848    9.2588    0.1662 H       1  LIG1        0.0279
     33 H          -5.5691    9.6167   -1.4476 H       1  LIG1        0.0279
     34 H          -4.8910   10.4551   -0.0473 H       1  LIG1        0.0279
     35 C          -5.5813    6.3626    0.5957 C.ar    1  LIG1        0.1833
     36 C          -6.8459    6.2093    0.0731 C.ar    1  LIG1        0.0566
     37 C          -7.5552    5.3014    0.9416 C.ar    1  LIG1        0.0012
     38 C          -6.6568    4.9614    1.9066 C.ar    1  LIG1        0.0967
     39 O          -5.4657    5.5971    1.7257 O.2     1  LIG1       -0.4584
     40 H          -6.7132    4.3043    2.7611 H       1  LIG1        0.1032
     41 S          -7.4857    6.9922   -1.3863 S.3     1  LIG1       -0.1386
     42 H          -7.7819    5.8621   -2.0648 H       1  LIG1        0.1072
     43 C          -8.9658    4.8250    0.7912 C.3     1  LIG1       -0.0357
     44 H          -9.2648    4.2108    1.6446 H       1  LIG1        0.0279
     45 H          -9.0944    4.2204   -0.1143 H       1  LIG1        0.0279
     46 H          -9.6599    5.6685    0.7151 H       1  LIG1        0.0279
@<TRIPOS>BOND
     1     6     1    1
     2    30    29    1
     3     1     5   ar
     4     1     2   ar
     5    42    41    1
     6     5     4   ar
     7    33    31    1
     8    41    36    1
     9     8     7    1
    10     2     7    1
    11     2     3   ar
    12    29    25    1
    13     4    13    1
    14     4     3   ar
    15    17    13   ar
    16    17    16   ar
    17    25    26   ar
    18    25    24   ar
    19    13    14   ar
    20    31    26    1
    21    31    34    1
    22    31    32    1
    23    19    18    1
    24     3     9    1
    25    26    27   ar
    26    45    43    1
    27    24    16    1
    28    24    28   ar
    29    16    15   ar
    30    36    35   ar
    31    36    37   ar
    32    14    15   ar
    33    14    18    1
    34    27    28   ar
    35    27    35    1
    36    22    20    1
    37    15    20    1
    38    35    39   ar
    39    46    43    1
    40    43    37    1
    41    43    44    1
    42    11     9    1
    43    37    38   ar
    44    20    21    1
    45    20    23    1
    46     9    12    1
    47     9    10    1
    48    39    38   ar
    49    38    40    1
