@<TRIPOS>MOLECULE
mol_data/opt/b3lyp/geoms/mol2/12gi12gi12gi12gi-.out
 46 49 0 0 0
SMALL
GASTEIGER

@<TRIPOS>ATOM
      1 C           1.0604    2.2997   -2.1659 C.ar    1  LIG1        0.1061
      2 C           1.9546    1.9938   -1.1813 C.ar    1  LIG1        0.0462
      3 C           1.9736    3.1148   -0.2732 C.ar    1  LIG1        0.0116
      4 C           1.0968    4.0262   -0.8084 C.ar    1  LIG1        0.1748
      5 O           0.5249    3.5238   -1.9590 O.2     1  LIG1       -0.4584
      6 H           0.7158    1.7593   -3.0337 H       1  LIG1        0.1041
      7 S           2.7833    0.4333   -1.0091 S.3     1  LIG1       -0.1393
      8 H           4.0431    0.8617   -1.2459 H       1  LIG1        0.1072
      9 C           2.7431    3.2026    1.0062 C.3     1  LIG1       -0.0350
     10 H           2.3027    3.9406    1.6814 H       1  LIG1        0.0279
     11 H           3.7864    3.4908    0.8366 H       1  LIG1        0.0279
     12 H           2.7478    2.2309    1.5097 H       1  LIG1        0.0279
     13 C           0.6598    5.3433   -0.4056 C.ar    1  LIG1        0.1843
     14 C           1.3060    6.4549    0.0895 C.ar    1  LIG1        0.0573
     15 C           0.3041    7.4577    0.3311 C.ar    1  LIG1        0.0123
     16 C          -0.8801    6.8952   -0.0795 C.ar    1  LIG1        0.1758
     17 O          -0.6762    5.6057   -0.5069 O.2     1  LIG1       -0.4472
     18 S           3.0465    6.6054    0.4031 S.3     1  LIG1       -0.1386
     19 H           3.2572    7.6940   -0.3681 H       1  LIG1        0.1072
     20 C           0.5312    8.8010    0.9485 C.3     1  LIG1       -0.0349
     21 H          -0.4002    9.2134    1.3446 H       1  LIG1        0.0279
     22 H           0.9303    9.5229    0.2274 H       1  LIG1        0.0279
     23 H           1.2515    8.7221    1.7689 H       1  LIG1        0.0279
     24 C          -2.2434    7.3709   -0.1205 C.ar    1  LIG1        0.1843
     25 C          -2.8310    8.5621   -0.4867 C.ar    1  LIG1        0.0573
     26 C          -4.2457    8.4237   -0.2691 C.ar    1  LIG1        0.0123
     27 C          -4.4213    7.1356    0.1747 C.ar    1  LIG1        0.1758
     28 O          -3.2110    6.4973    0.2871 O.2     1  LIG1       -0.4472
     29 S          -1.9927   10.0073   -1.0860 S.3     1  LIG1       -0.1386
     30 H          -2.6890   10.1321   -2.2364 H       1  LIG1        0.1072
     31 C          -5.2769    9.4911   -0.4542 C.3     1  LIG1       -0.0349
     32 H          -6.1855    9.2595    0.1072 H       1  LIG1        0.0279
     33 H          -5.5624    9.6082   -1.5057 H       1  LIG1        0.0279
     34 H          -4.8908   10.4547   -0.1071 H       1  LIG1        0.0279
     35 C          -5.5839    6.3658    0.5557 C.ar    1  LIG1        0.1833
     36 C          -6.8460    6.2094    0.0280 C.ar    1  LIG1        0.0566
     37 C          -7.5594    5.3064    0.8983 C.ar    1  LIG1        0.0012
     38 C          -6.6656    4.9719    1.8694 C.ar    1  LIG1        0.0967
     39 O          -5.4736    5.6067    1.6906 O.2     1  LIG1       -0.4584
     40 H          -6.7260    4.3196    2.7274 H       1  LIG1        0.1032
     41 S          -7.4790    6.9840   -1.4387 S.3     1  LIG1       -0.1386
     42 H          -7.7717    5.8502   -2.1124 H       1  LIG1        0.1072
     43 C          -8.9692    4.8290    0.7439 C.3     1  LIG1       -0.0357
     44 H          -9.2723    4.2196    1.5994 H       1  LIG1        0.0279
     45 H          -9.0935    4.2192   -0.1587 H       1  LIG1        0.0279
     46 H          -9.6630    5.6720    0.6597 H       1  LIG1        0.0279
@<TRIPOS>BOND
     1     6     1    1
     2    30    29    1
     3     1     5   ar
     4     1     2   ar
     5    42    41    1
     6     5     4   ar
     7    33    31    1
     8    41    36    1
     9     8     7    1
    10     2     7    1
    11     2     3   ar
    12    29    25    1
    13     4    13    1
    14     4     3   ar
    15    17    13   ar
    16    17    16   ar
    17    25    26   ar
    18    25    24   ar
    19    31    26    1
    20    31    34    1
    21    31    32    1
    22    13    14   ar
    23    19    18    1
    24     3     9    1
    25    26    27   ar
    26    45    43    1
    27    24    16    1
    28    24    28   ar
    29    16    15   ar
    30    36    35   ar
    31    36    37   ar
    32    14    15   ar
    33    14    18    1
    34    27    28   ar
    35    27    35    1
    36    22    20    1
    37    15    20    1
    38    35    39   ar
    39    46    43    1
    40    43    37    1
    41    43    44    1
    42    11     9    1
    43    37    38   ar
    44    20    21    1
    45    20    23    1
    46     9    12    1
    47     9    10    1
    48    39    38   ar
    49    38    40    1
