@<TRIPOS>MOLECULE
mol_data/opt/b3lyp/geoms/mol2/12gi12gi-12gi12gi-.out
 46 49 0 0 0
SMALL
GASTEIGER

@<TRIPOS>ATOM
      1 C           1.0393    2.2974   -2.1605 C.ar    1  LIG1        0.1061
      2 C           1.9430    1.9924   -1.1843 C.ar    1  LIG1        0.0462
      3 C           1.9709    3.1143   -0.2775 C.ar    1  LIG1        0.0116
      4 C           1.0889    4.0252   -0.8051 C.ar    1  LIG1        0.1748
      5 O           0.5058    3.5217   -1.9495 O.2     1  LIG1       -0.4584
      6 H           0.6863    1.7562   -3.0244 H       1  LIG1        0.1041
      7 S           2.7732    0.4321   -1.0186 S.3     1  LIG1       -0.1393
      8 H           4.0307    0.8600   -1.2678 H       1  LIG1        0.1072
      9 C           2.7528    3.2034    0.9942 C.3     1  LIG1       -0.0350
     10 H           2.3187    3.9418    1.6731 H       1  LIG1        0.0279
     11 H           3.7943    3.4919    0.8143 H       1  LIG1        0.0279
     12 H           2.7627    2.2321    1.4984 H       1  LIG1        0.0279
     13 C           0.6559    5.3428   -0.3992 C.ar    1  LIG1        0.1843
     14 C           1.3069    6.4547    0.0884 C.ar    1  LIG1        0.0573
     15 C           0.3074    7.4578    0.3388 C.ar    1  LIG1        0.0123
     16 C          -0.8808    6.8950   -0.0597 C.ar    1  LIG1        0.1758
     17 O          -0.6810    5.6051   -0.4878 O.2     1  LIG1       -0.4472
     18 S           3.0504    6.6056    0.3850 S.3     1  LIG1       -0.1386
     19 H           3.2536    7.6931   -0.3895 H       1  LIG1        0.1072
     20 C           0.5404    8.8017    0.9529 C.3     1  LIG1       -0.0349
     21 H          -0.3870    9.2145    1.3575 H       1  LIG1        0.0279
     22 H           0.9327    9.5229    0.2272 H       1  LIG1        0.0279
     23 H           1.2686    8.7235    1.7664 H       1  LIG1        0.0279
     24 C          -2.2444    7.3707   -0.0879 C.ar    1  LIG1        0.1843
     25 C          -2.8355    8.5616   -0.4495 C.ar    1  LIG1        0.0573
     26 C          -4.2480    8.4235   -0.2182 C.ar    1  LIG1        0.0123
     27 C          -4.4194    7.1358    0.2284 C.ar    1  LIG1        0.1758
     28 O          -3.2081    6.4975    0.3298 O.2     1  LIG1       -0.4472
     29 S          -2.0029   10.0062   -1.0582 S.3     1  LIG1       -0.1386
     30 H          -2.7101   10.1298   -2.2022 H       1  LIG1        0.1072
     31 C          -5.2809    9.4907   -0.3944 C.3     1  LIG1       -0.0349
     32 H          -6.1841    9.2597    0.1760 H       1  LIG1        0.0279
     33 H          -5.5765    9.6069   -1.4432 H       1  LIG1        0.0279
     34 H          -4.8915   10.4547   -0.0519 H       1  LIG1        0.0279
     35 C          -5.5783    6.3664    0.6213 C.ar    1  LIG1        0.1833
     36 C          -6.8454    6.2097    0.1058 C.ar    1  LIG1        0.0566
     37 C          -7.5505    5.3076    0.9837 C.ar    1  LIG1        0.0012
     38 C          -6.6475    4.9739    1.9466 C.ar    1  LIG1        0.0967
     39 O          -5.4573    5.6084    1.7558 O.2     1  LIG1       -0.4584
     40 H          -6.6997    4.3225    2.8057 H       1  LIG1        0.1032
     41 S          -7.4924    6.9829   -1.3555 S.3     1  LIG1       -0.1386
     42 H          -7.7920    5.8484   -2.0250 H       1  LIG1        0.1072
     43 C          -8.9618    4.8301    0.8433 C.3     1  LIG1       -0.0357
     44 H          -9.2567    4.2217    1.7023 H       1  LIG1        0.0279
     45 H          -9.0947    4.2194   -0.0574 H       1  LIG1        0.0279
     46 H          -9.6563    5.6731    0.7648 H       1  LIG1        0.0279
@<TRIPOS>BOND
     1     6     1    1
     2    30    29    1
     3     1     5   ar
     4     1     2   ar
     5    42    41    1
     6     5     4   ar
     7    33    31    1
     8    41    36    1
     9     8     7    1
    10     2     7    1
    11     2     3   ar
    12    29    25    1
    13     4    13    1
    14     4     3   ar
    15    17    13   ar
    16    17    16   ar
    17    25    26   ar
    18    25    24   ar
    19    13    14   ar
    20    31    26    1
    21    31    34    1
    22    31    32    1
    23    19    18    1
    24     3     9    1
    25    26    27   ar
    26    24    16    1
    27    24    28   ar
    28    16    15   ar
    29    45    43    1
    30    14    15   ar
    31    14    18    1
    32    36    35   ar
    33    36    37   ar
    34    22    20    1
    35    27    28   ar
    36    27    35    1
    37    15    20    1
    38    35    39   ar
    39    46    43    1
    40    11     9    1
    41    43    37    1
    42    43    44    1
    43    20    21    1
    44    20    23    1
    45    37    38   ar
    46     9    12    1
    47     9    10    1
    48    39    38   ar
    49    38    40    1
