@<TRIPOS>MOLECULE
mol_data/opt/b3lyp/geoms/mol2/12gl12gl12gl-12gl-.out
 50 53 0 0 0
SMALL
GASTEIGER

@<TRIPOS>ATOM
      1 C           0.5893    1.4590    0.8206 C.ar    1  LIG1        0.1096
      2 C           1.8470    1.4238    0.2888 C.ar    1  LIG1        0.0852
      3 C           2.1749    2.7955   -0.0194 C.ar    1  LIG1        0.1819
      4 C           1.0933    3.5552    0.3725 C.ar    1  LIG1        0.2133
      5 O           0.1195    2.7249    0.8796 O.2     1  LIG1       -0.4549
      6 H          -0.0694    0.6816    1.1749 H       1  LIG1        0.1042
      7 S           2.7338   -0.0627   -0.1087 S.3     1  LIG1       -0.1361
      8 H           3.5477   -0.1013    0.9703 H       1  LIG1        0.1073
      9 O           3.2546    3.2866   -0.6787 O.3     1  LIG1       -0.4902
     10 C           4.5389    3.0364   -0.0899 C.3     1  LIG1        0.0790
     11 H           5.2605    3.5540   -0.7230 H       1  LIG1        0.0660
     12 H           4.5857    3.4470    0.9247 H       1  LIG1        0.0660
     13 H           4.7679    1.9676   -0.0770 H       1  LIG1        0.0660
     14 C           0.7864    4.9578    0.3182 C.ar    1  LIG1        0.1912
     15 C           1.5415    6.1069    0.2138 C.ar    1  LIG1        0.0964
     16 C           0.6058    7.1895    0.1969 C.ar    1  LIG1        0.1827
     17 C          -0.6536    6.6481    0.3218 C.ar    1  LIG1        0.2144
     18 O          -0.5461    5.2857    0.3787 O.2     1  LIG1       -0.4435
     19 S           3.2969    6.2950    0.1397 S.3     1  LIG1       -0.1353
     20 H           3.2718    7.5502    0.6364 H       1  LIG1        0.1073
     21 O           0.9252    8.5131    0.1153 O.3     1  LIG1       -0.4902
     22 C           1.0772    8.9982   -1.2308 C.3     1  LIG1        0.0790
     23 H           1.3364   10.0543   -1.1444 H       1  LIG1        0.0660
     24 H           1.8748    8.4596   -1.7538 H       1  LIG1        0.0660
     25 H           0.1393    8.8936   -1.7866 H       1  LIG1        0.0660
     26 C          -1.9615    7.2290    0.4070 C.ar    1  LIG1        0.1912
     27 C          -2.4260    8.4701    0.7916 C.ar    1  LIG1        0.0964
     28 C          -3.8458    8.4243    0.6133 C.ar    1  LIG1        0.1827
     29 C          -4.1664    7.1623    0.1680 C.ar    1  LIG1        0.2143
     30 O          -3.0177    6.4356    0.0257 O.2     1  LIG1       -0.4435
     31 S          -1.5346    9.8559    1.4311 S.3     1  LIG1       -0.1353
     32 H          -2.6446   10.4209    1.9537 H       1  LIG1        0.1073
     33 O          -4.7110    9.4441    0.8864 O.3     1  LIG1       -0.4902
     34 C          -4.9288   10.3407   -0.2165 C.3     1  LIG1        0.0790
     35 H          -5.6335   11.0935    0.1394 H       1  LIG1        0.0660
     36 H          -3.9927   10.8215   -0.5219 H       1  LIG1        0.0660
     37 H          -5.3608    9.8072   -1.0698 H       1  LIG1        0.0660
     38 C          -5.4152    6.5246   -0.1419 C.ar    1  LIG1        0.1902
     39 C          -6.7162    6.7408    0.2566 C.ar    1  LIG1        0.0956
     40 C          -7.5039    5.7606   -0.4444 C.ar    1  LIG1        0.1715
     41 C          -6.6414    5.0183   -1.1951 C.ar    1  LIG1        0.1354
     42 O          -5.3717    5.4763   -1.0319 O.2     1  LIG1       -0.4548
     43 H          -6.7735    4.1683   -1.8447 H       1  LIG1        0.1068
     44 S          -7.3546    7.8979    1.4301 S.3     1  LIG1       -0.1354
     45 H          -8.5044    7.2083    1.5952 H       1  LIG1        0.1073
     46 O          -8.8499    5.5809   -0.3014 O.3     1  LIG1       -0.4908
     47 C          -9.6452    6.3742   -1.1934 C.3     1  LIG1        0.0790
     48 H         -10.6872    6.1530   -0.9556 H       1  LIG1        0.0660
     49 H          -9.4554    7.4445   -1.0517 H       1  LIG1        0.0660
     50 H          -9.4423    6.1087   -2.2375 H       1  LIG1        0.0660
@<TRIPOS>BOND
     1    50    47    1
     2    43    41    1
     3    25    22    1
     4    24    22    1
     5    22    23    1
     6    22    21    1
     7    41    42   ar
     8    41    40   ar
     9    47    49    1
    10    47    48    1
    11    47    46    1
    12    37    34    1
    13    42    38   ar
    14    11    10    1
    15     9    10    1
    16     9     3    1
    17    36    34    1
    18    40    46    1
    19    40    39   ar
    20    34    35    1
    21    34    33    1
    22    38    29    1
    23    38    39   ar
    24     7     2    1
    25     7     8    1
    26    10    13    1
    27    10    12    1
    28     3     2   ar
    29     3     4   ar
    30    30    29   ar
    31    30    26   ar
    32    21    16    1
    33    19    15    1
    34    19    20    1
    35    29    28   ar
    36    16    15   ar
    37    16    17   ar
    38    15    14   ar
    39    39    44    1
    40     2     1   ar
    41    14     4    1
    42    14    18   ar
    43    17    18   ar
    44    17    26    1
    45     4     5   ar
    46    26    27   ar
    47    28    27   ar
    48    28    33    1
    49    27    31    1
    50     1     5   ar
    51     1     6    1
    52    44    45    1
    53    31    32    1
