@<TRIPOS>MOLECULE
mol_data/opt/b3lyp/geoms/mol2/12gl12gl12gl12gl-.out
 50 53 0 0 0
SMALL
GASTEIGER

@<TRIPOS>ATOM
      1 C           0.6012    1.4632    0.8201 C.ar    1  LIG1        0.1096
      2 C           1.8524    1.4270    0.2732 C.ar    1  LIG1        0.0852
      3 C           2.1760    2.7980   -0.0427 C.ar    1  LIG1        0.1819
      4 C           1.0988    3.5584    0.3601 C.ar    1  LIG1        0.2133
      5 O           0.1316    2.7290    0.8814 O.2     1  LIG1       -0.4549
      6 H          -0.0529    0.6865    1.1845 H       1  LIG1        0.1042
      7 S           2.7350   -0.0603   -0.1310 S.3     1  LIG1       -0.1361
      8 H           3.5602   -0.0970    0.9396 H       1  LIG1        0.1073
      9 O           3.2473    3.2877   -0.7165 O.3     1  LIG1       -0.4902
     10 C           4.5388    3.0392   -0.1430 C.3     1  LIG1        0.0790
     11 H           5.2526    3.5540   -0.7872 H       1  LIG1        0.0660
     12 H           4.5986    3.4537    0.8693 H       1  LIG1        0.0660
     13 H           4.7676    1.9703   -0.1288 H       1  LIG1        0.0660
     14 C           0.7906    4.9606    0.3055 C.ar    1  LIG1        0.1912
     15 C           1.5440    6.1098    0.1902 C.ar    1  LIG1        0.0964
     16 C           0.6076    7.1919    0.1803 C.ar    1  LIG1        0.1827
     17 C          -0.6502    6.6502    0.3199 C.ar    1  LIG1        0.2144
     18 O          -0.5413    5.2880    0.3792 O.2     1  LIG1       -0.4435
     19 S           3.2985    6.2981    0.0968 S.3     1  LIG1       -0.1353
     20 H           3.2790    7.5536    0.5930 H       1  LIG1        0.1073
     21 O           0.9254    8.5154    0.0919 O.3     1  LIG1       -0.4902
     22 C           1.0632    8.9972   -1.2569 C.3     1  LIG1        0.0790
     23 H           1.3220   10.0538   -1.1758 H       1  LIG1        0.0660
     24 H           1.8562    8.4582   -1.7864 H       1  LIG1        0.0660
     25 H           0.1199    8.8900   -1.8030 H       1  LIG1        0.0660
     26 C          -1.9573    7.2306    0.4175 C.ar    1  LIG1        0.1912
     27 C          -2.4187    8.4724    0.8039 C.ar    1  LIG1        0.0964
     28 C          -3.8402    8.4252    0.6411 C.ar    1  LIG1        0.1827
     29 C          -4.1647    7.1618    0.2026 C.ar    1  LIG1        0.2143
     30 O          -3.0171    6.4354    0.0497 O.2     1  LIG1       -0.4435
     31 S          -1.5212    9.8603    1.4302 S.3     1  LIG1       -0.1353
     32 H          -2.6260   10.4263    1.9629 H       1  LIG1        0.1073
     33 O          -4.7031    9.4451    0.9207 O.3     1  LIG1       -0.4902
     34 C          -4.9329   10.3389   -0.1821 C.3     1  LIG1        0.0790
     35 H          -5.6344   11.0921    0.1792 H       1  LIG1        0.0660
     36 H          -4.0004   10.8195   -0.4984 H       1  LIG1        0.0660
     37 H          -5.3735    9.8029   -1.0295 H       1  LIG1        0.0660
     38 C          -5.4162    6.5223   -0.0922 C.ar    1  LIG1        0.1902
     39 C          -6.7130    6.7385    0.3199 C.ar    1  LIG1        0.0956
     40 C          -7.5075    5.7560   -0.3702 C.ar    1  LIG1        0.1715
     41 C          -6.6526    5.0126   -1.1284 C.ar    1  LIG1        0.1354
     42 O          -5.3815    5.4719   -0.9801 O.2     1  LIG1       -0.4548
     43 H          -6.7911    4.1609   -1.7745 H       1  LIG1        0.1068
     44 S          -7.3392    7.8980    1.4975 S.3     1  LIG1       -0.1354
     45 H          -8.4862    7.2076    1.6779 H       1  LIG1        0.1073
     46 O          -8.8517    5.5753   -0.2123 O.3     1  LIG1       -0.4908
     47 C          -9.6575    6.3667   -1.0965 C.3     1  LIG1        0.0790
     48 H         -10.6966    6.1443   -0.8474 H       1  LIG1        0.0660
     49 H          -9.4678    7.4375   -0.9577 H       1  LIG1        0.0660
     50 H          -9.4654    6.1006   -2.1425 H       1  LIG1        0.0660
@<TRIPOS>BOND
     1    50    47    1
     2    25    22    1
     3    24    22    1
     4    43    41    1
     5    22    23    1
     6    22    21    1
     7    41    42   ar
     8    41    40   ar
     9    47    49    1
    10    47    48    1
    11    47    46    1
    12    37    34    1
    13    42    38   ar
    14    11    10    1
    15     9    10    1
    16     9     3    1
    17    36    34    1
    18    40    46    1
    19    40    39   ar
    20    34    35    1
    21    34    33    1
    22    10    13    1
    23    10    12    1
    24     7     2    1
    25     7     8    1
    26    38    29    1
    27    38    39   ar
    28     3     2   ar
    29     3     4   ar
    30    30    29   ar
    31    30    26   ar
    32    21    16    1
    33    19    15    1
    34    19    20    1
    35    16    15   ar
    36    16    17   ar
    37    15    14   ar
    38    29    28   ar
    39     2     1   ar
    40    14     4    1
    41    14    18   ar
    42    39    44    1
    43    17    18   ar
    44    17    26    1
    45     4     5   ar
    46    26    27   ar
    47    28    27   ar
    48    28    33    1
    49    27    31    1
    50     1     5   ar
    51     1     6    1
    52    31    32    1
    53    44    45    1
