@<TRIPOS>MOLECULE
mol_data/opt/b3lyp/geoms/mol2/12gl12gl-.out
 26 27 0 0 0
SMALL
GASTEIGER

@<TRIPOS>ATOM
      1 C          -0.0474    1.7260   -0.0619 C.ar    1  LIG1        0.1096
      2 C           1.2566    1.4779    0.2535 C.ar    1  LIG1        0.0852
      3 C           1.9011    2.7658    0.2815 C.ar    1  LIG1        0.1819
      4 C           0.9337    3.7006   -0.0019 C.ar    1  LIG1        0.2133
      5 O          -0.2611    3.0579   -0.2227 O.2     1  LIG1       -0.4549
      6 H          -0.9005    1.0818   -0.2048 H       1  LIG1        0.1042
      7 S           1.9904   -0.1204    0.4745 S.3     1  LIG1       -0.1361
      8 H           2.4226    0.0634    1.7407 H       1  LIG1        0.1073
      9 O           3.2034    3.0284    0.5754 O.3     1  LIG1       -0.4902
     10 C           4.1265    2.7631   -0.4939 C.3     1  LIG1        0.0790
     11 H           5.1106    3.0461   -0.1180 H       1  LIG1        0.0660
     12 H           4.1218    1.7018   -0.7620 H       1  LIG1        0.0660
     13 H           3.8824    3.3679   -1.3745 H       1  LIG1        0.0660
     14 C           0.9462    5.1370   -0.0882 C.ar    1  LIG1        0.1901
     15 C           1.7430    6.1118    0.4688 C.ar    1  LIG1        0.0956
     16 C           1.2348    7.3580   -0.0345 C.ar    1  LIG1        0.1715
     17 C           0.1718    7.0666   -0.8409 C.ar    1  LIG1        0.1354
     18 O          -0.0067    5.7115   -0.8900 O.2     1  LIG1       -0.4548
     19 H          -0.5200    7.6613   -1.4125 H       1  LIG1        0.1068
     20 S           3.0976    5.9467    1.5934 S.3     1  LIG1       -0.1354
     21 H           3.0601    7.2436    1.9641 H       1  LIG1        0.1073
     22 O           1.7771    8.5467    0.3242 O.3     1  LIG1       -0.4908
     23 C           1.1202    9.6957   -0.1974 C.3     1  LIG1        0.0790
     24 H           1.6580   10.5630    0.1863 H       1  LIG1        0.0660
     25 H           1.1514    9.7010   -1.2945 H       1  LIG1        0.0660
     26 H           0.0743    9.7338    0.1336 H       1  LIG1        0.0660
@<TRIPOS>BOND
     1    19    17    1
     2    13    10    1
     3    25    23    1
     4    18    17   ar
     5    18    14   ar
     6    17    16   ar
     7    12    10    1
     8    10    11    1
     9    10     9    1
    10     5     1   ar
    11     5     4   ar
    12     6     1    1
    13    23    26    1
    14    23    24    1
    15    23    22    1
    16    14     4    1
    17    14    15   ar
    18     1     2   ar
    19    16    22    1
    20    16    15   ar
    21     4     3   ar
    22     2     3   ar
    23     2     7    1
    24     3     9    1
    25    15    20    1
    26     7     8    1
    27    20    21    1
