@<TRIPOS>MOLECULE
mol_data/opt/b3lyp/geoms/mol2/12gl12gl12gl-12gl.out
 50 53 0 0 0
SMALL
GASTEIGER

@<TRIPOS>ATOM
      1 C           0.5900    1.4442    0.7369 C.ar    1  LIG1        0.1096
      2 C           1.8462    1.4180    0.2011 C.ar    1  LIG1        0.0852
      3 C           2.1736    2.7948   -0.0842 C.ar    1  LIG1        0.1819
      4 C           1.0933    3.5478    0.3240 C.ar    1  LIG1        0.2133
      5 O           0.1207    2.7090    0.8193 O.2     1  LIG1       -0.4549
      6 H          -0.0680    0.6610    1.0795 H       1  LIG1        0.1042
      7 S           2.7315   -0.0618   -0.2245 S.3     1  LIG1       -0.1361
      8 H           3.5472   -0.1200    0.8523 H       1  LIG1        0.1073
      9 O           3.2516    3.2971   -0.7378 O.3     1  LIG1       -0.4902
     10 C           4.5375    3.0360   -0.1575 C.3     1  LIG1        0.0790
     11 H           5.2575    3.5641   -0.7837 H       1  LIG1        0.0660
     12 H           4.5877    3.4288    0.8639 H       1  LIG1        0.0660
     13 H           4.7660    1.9669   -0.1639 H       1  LIG1        0.0660
     14 C           0.7867    4.9512    0.2947 C.ar    1  LIG1        0.1912
     15 C           1.5420    6.1017    0.2087 C.ar    1  LIG1        0.0964
     16 C           0.6066    7.1847    0.2123 C.ar    1  LIG1        0.1827
     17 C          -0.6528    6.6416    0.3303 C.ar    1  LIG1        0.2144
     18 O          -0.5456    5.2783    0.3634 O.2     1  LIG1       -0.4435
     19 S           3.2973    6.2903    0.1342 S.3     1  LIG1       -0.1353
     20 H           3.2741    7.5363    0.6538 H       1  LIG1        0.1073
     21 O           0.9262    8.5094    0.1530 O.3     1  LIG1       -0.4902
     22 C           1.0763    9.0176   -1.1848 C.3     1  LIG1        0.0790
     23 H           1.3362   10.0719   -1.0806 H       1  LIG1        0.0660
     24 H           1.8728    8.4877   -1.7182 H       1  LIG1        0.0660
     25 H           0.1375    8.9230   -1.7408 H       1  LIG1        0.0660
     26 C          -1.9603    7.2212    0.4281 C.ar    1  LIG1        0.1912
     27 C          -2.4238    8.4558    0.8345 C.ar    1  LIG1        0.0964
     28 C          -3.8440    8.4132    0.6585 C.ar    1  LIG1        0.1827
     29 C          -4.1658    7.1589    0.1927 C.ar    1  LIG1        0.2143
     30 O          -3.0175    6.4345    0.0357 O.2     1  LIG1       -0.4435
     31 S          -1.5309    9.8303    1.4953 S.3     1  LIG1       -0.1353
     32 H          -2.6398   10.3870    2.0291 H       1  LIG1        0.1073
     33 O          -4.7084    9.4284    0.9504 O.3     1  LIG1       -0.4902
     34 C          -4.9280   10.3436   -0.1368 C.3     1  LIG1        0.0790
     35 H          -5.6319   11.0904    0.2331 H       1  LIG1        0.0660
     36 H          -3.9924   10.8293   -0.4358 H       1  LIG1        0.0660
     37 H          -5.3618    9.8247   -0.9982 H       1  LIG1        0.0660
     38 C          -5.4153    6.5267   -0.1251 C.ar    1  LIG1        0.1902
     39 C          -6.7155    6.7366    0.2795 C.ar    1  LIG1        0.0956
     40 C          -7.5048    5.7684   -0.4361 C.ar    1  LIG1        0.1715
     41 C          -6.6441    5.0384   -1.2007 C.ar    1  LIG1        0.1354
     42 O          -5.3739    5.4933   -1.0325 O.2     1  LIG1       -0.4548
     43 H          -6.7778    4.1994   -1.8641 H       1  LIG1        0.1068
     44 S          -7.3512    7.8740    1.4734 S.3     1  LIG1       -0.1354
     45 H          -8.5006    7.1817    1.6297 H       1  LIG1        0.1073
     46 O          -8.8506    5.5866   -0.2934 O.3     1  LIG1       -0.4908
     47 C          -9.6475    6.3953   -1.1700 C.3     1  LIG1        0.0790
     48 H         -10.6891    6.1706   -0.9336 H       1  LIG1        0.0660
     49 H          -9.4568    7.4630   -1.0105 H       1  LIG1        0.0660
     50 H          -9.4471    6.1476   -2.2189 H       1  LIG1        0.0660
@<TRIPOS>BOND
     1    50    47    1
     2    43    41    1
     3    25    22    1
     4    24    22    1
     5    41    42   ar
     6    41    40   ar
     7    22    23    1
     8    22    21    1
     9    47    49    1
    10    47    48    1
    11    47    46    1
    12    42    38   ar
    13    37    34    1
    14    11    10    1
    15     9    10    1
    16     9     3    1
    17    40    46    1
    18    40    39   ar
    19    36    34    1
    20     7     2    1
    21     7     8    1
    22    13    10    1
    23    10    12    1
    24    34    35    1
    25    34    33    1
    26    38    29    1
    27    38    39   ar
    28     3     2   ar
    29     3     4   ar
    30    30    29   ar
    31    30    26   ar
    32    19    15    1
    33    19    20    1
    34    21    16    1
    35    29    28   ar
    36     2     1   ar
    37    15    16   ar
    38    15    14   ar
    39    16    17   ar
    40    39    44    1
    41    14     4    1
    42    14    18   ar
    43     4     5   ar
    44    17    18   ar
    45    17    26    1
    46    26    27   ar
    47    28    27   ar
    48    28    33    1
    49     1     5   ar
    50     1     6    1
    51    27    31    1
    52    44    45    1
    53    31    32    1
