@<TRIPOS>MOLECULE
mol_data/opt/b3lyp/geoms/mol2/12gl12gl-12gl-.out
 38 40 0 0 0
SMALL
GASTEIGER

@<TRIPOS>ATOM
      1 C           0.1798    1.5251    0.1049 C.ar    1  LIG1        0.1096
      2 C           1.5063    1.4710   -0.2153 C.ar    1  LIG1        0.0852
      3 C           1.9481    2.8448   -0.2672 C.ar    1  LIG1        0.1819
      4 C           0.8536    3.6212    0.0480 C.ar    1  LIG1        0.2133
      5 O          -0.2315    2.8025    0.2669 O.2     1  LIG1       -0.4549
      6 H          -0.5665    0.7566    0.2329 H       1  LIG1        0.1042
      7 S           2.3735   -0.0092   -0.6752 S.3     1  LIG1       -0.1361
      8 H           2.9899   -0.2521    0.5036 H       1  LIG1        0.1073
      9 O           3.1490    3.3387   -0.6627 O.3     1  LIG1       -0.4902
     10 C           4.2947    2.9185    0.0915 C.3     1  LIG1        0.0790
     11 H           5.1440    3.4526   -0.3361 H       1  LIG1        0.0660
     12 H           4.1850    3.1943    1.1461 H       1  LIG1        0.0660
     13 H           4.4573    1.8418   -0.0040 H       1  LIG1        0.0660
     14 C           0.6256    5.0368    0.1431 C.ar    1  LIG1        0.1912
     15 C           1.4372    6.1363    0.3224 C.ar    1  LIG1        0.0964
     16 C           0.5652    7.2724    0.3086 C.ar    1  LIG1        0.1827
     17 C          -0.7185    6.8045    0.1528 C.ar    1  LIG1        0.2143
     18 O          -0.6828    5.4425    0.0349 O.2     1  LIG1       -0.4435
     19 S           3.1875    6.2151    0.5531 S.3     1  LIG1       -0.1353
     20 H           3.1373    7.3933    1.2107 H       1  LIG1        0.1073
     21 O           0.9517    8.5706    0.4707 O.3     1  LIG1       -0.4902
     22 C           1.3335    9.2273   -0.7510 C.3     1  LIG1        0.0790
     23 H           1.6183   10.2429   -0.4724 H       1  LIG1        0.0660
     24 H           2.1811    8.7178   -1.2219 H       1  LIG1        0.0660
     25 H           0.4917    9.2604   -1.4508 H       1  LIG1        0.0660
     26 C          -1.9983    7.4546    0.1056 C.ar    1  LIG1        0.1902
     27 C          -2.4738    8.6511    0.5951 C.ar    1  LIG1        0.0956
     28 C          -3.8507    8.7202    0.1798 C.ar    1  LIG1        0.1715
     29 C          -4.1180    7.5737   -0.5073 C.ar    1  LIG1        0.1354
     30 O          -3.0014    6.8000   -0.5714 O.2     1  LIG1       -0.4548
     31 H          -5.0102    7.1814   -0.9679 H       1  LIG1        0.1068
     32 S          -1.6563    9.8597    1.5926 S.3     1  LIG1       -0.1354
     33 H          -2.8178   10.3986    2.0231 H       1  LIG1        0.1073
     34 O          -4.7231    9.7213    0.4986 O.3     1  LIG1       -0.4908
     35 C          -4.7179   10.8184   -0.4255 C.3     1  LIG1        0.0790
     36 H          -5.4358   11.5461   -0.0429 H       1  LIG1        0.0660
     37 H          -3.7258   11.2801   -0.4901 H       1  LIG1        0.0660
     38 H          -5.0262   10.4879   -1.4243 H       1  LIG1        0.0660
@<TRIPOS>BOND
     1    25    22    1
     2    38    35    1
     3    24    22    1
     4    31    29    1
     5    22    23    1
     6    22    21    1
     7     7     2    1
     8     7     8    1
     9     9     3    1
    10     9    10    1
    11    30    29   ar
    12    30    26   ar
    13    29    28   ar
    14    37    35    1
    15    35    36    1
    16    35    34    1
    17    11    10    1
    18     3     2   ar
    19     3     4   ar
    20     2     1   ar
    21    13    10    1
    22    18    14   ar
    23    18    17   ar
    24     4    14    1
    25     4     5   ar
    26    10    12    1
    27     1     6    1
    28     1     5   ar
    29    26    17    1
    30    26    27   ar
    31    14    15   ar
    32    17    16   ar
    33    28    34    1
    34    28    27   ar
    35    16    15   ar
    36    16    21    1
    37    15    19    1
    38    19    20    1
    39    27    32    1
    40    32    33    1
