@<TRIPOS>MOLECULE
mol_data/opt/b3lyp/geoms/mol2/12gl12gl.out
 26 27 0 0 0
SMALL
GASTEIGER

@<TRIPOS>ATOM
      1 C           0.0179    1.7124   -0.0507 C.ar    1  LIG1        0.1096
      2 C           1.3523    1.6044   -0.3196 C.ar    1  LIG1        0.0852
      3 C           1.8567    2.9582   -0.3233 C.ar    1  LIG1        0.1819
      4 C           0.7872    3.7758   -0.0338 C.ar    1  LIG1        0.2133
      5 O          -0.3421    3.0039    0.1241 O.2     1  LIG1       -0.4549
      6 H          -0.7664    0.9760    0.0308 H       1  LIG1        0.1042
      7 S           2.1691    0.0950   -0.7769 S.3     1  LIG1       -0.1361
      8 H           2.7288   -0.1976    0.4187 H       1  LIG1        0.1073
      9 O           3.0910    3.4091   -0.6635 O.3     1  LIG1       -0.4902
     10 C           4.1943    2.9138    0.1080 C.3     1  LIG1        0.0790
     11 H           5.0745    3.4406   -0.2627 H       1  LIG1        0.0660
     12 H           4.0562    3.1409    1.1708 H       1  LIG1        0.0660
     13 H           4.3277    1.8383   -0.0354 H       1  LIG1        0.0660
     14 C           0.6238    5.2012    0.0820 C.ar    1  LIG1        0.1901
     15 C           1.4701    6.2435    0.3821 C.ar    1  LIG1        0.0956
     16 C           0.6635    7.4349    0.3184 C.ar    1  LIG1        0.1715
     17 C          -0.6017    7.0403    0.0023 C.ar    1  LIG1        0.1354
     18 O          -0.6393    5.6888   -0.1567 O.2     1  LIG1       -0.4548
     19 H          -1.5314    7.5718   -0.1196 H       1  LIG1        0.1068
     20 S           3.1836    6.2005    0.8113 S.3     1  LIG1       -0.1354
     21 H           3.1219    7.3203    1.5634 H       1  LIG1        0.1073
     22 O           1.0883    8.6987    0.6096 O.3     1  LIG1       -0.4908
     23 C           1.7110    9.3766   -0.4915 C.3     1  LIG1        0.0790
     24 H           2.0215   10.3527   -0.1145 H       1  LIG1        0.0660
     25 H           2.5867    8.8270   -0.8547 H       1  LIG1        0.0660
     26 H           1.0018    9.5100   -1.3168 H       1  LIG1        0.0660
@<TRIPOS>BOND
     1    26    23    1
     2    25    23    1
     3     7     2    1
     4     7     8    1
     5     9     3    1
     6     9    10    1
     7    23    24    1
     8    23    22    1
     9     3     2   ar
    10     3     4   ar
    11     2     1   ar
    12    11    10    1
    13    18    17   ar
    14    18    14   ar
    15    19    17    1
    16     1     6    1
    17     1     5   ar
    18    13    10    1
    19     4    14    1
    20     4     5   ar
    21    17    16   ar
    22    14    15   ar
    23    10    12    1
    24    16    15   ar
    25    16    22    1
    26    15    20    1
    27    20    21    1
