@<TRIPOS>MOLECULE
mol_data/opt/b3lyp/geoms/mol2/12gl12gl-12gl12gl-.out
 50 53 0 0 0
SMALL
GASTEIGER

@<TRIPOS>ATOM
      1 C           0.8024    1.5295    1.5136 C.ar    1  LIG1        0.1096
      2 C           2.0355    1.5108    0.9288 C.ar    1  LIG1        0.0852
      3 C           2.2840    2.8635    0.5039 C.ar    1  LIG1        0.1819
      4 C           1.1879    3.6056    0.8798 C.ar    1  LIG1        0.2133
      5 O           0.2746    2.7803    1.4903 O.2     1  LIG1       -0.4549
      6 H           0.1969    0.7612    1.9676 H       1  LIG1        0.1042
      7 S           3.0476    0.0789    0.6712 S.3     1  LIG1       -0.1361
      8 H           4.1369    0.5216    1.3350 H       1  LIG1        0.1073
      9 O           3.3989    3.3403   -0.1142 O.3     1  LIG1       -0.4902
     10 C           3.4761    3.0476   -1.5196 C.3     1  LIG1        0.0790
     11 H           4.4069    3.4963   -1.8694 H       1  LIG1        0.0660
     12 H           3.4957    1.9674   -1.6951 H       1  LIG1        0.0660
     13 H           2.6293    3.4938   -2.0532 H       1  LIG1        0.0660
     14 C           0.8605    4.9989    0.7619 C.ar    1  LIG1        0.1912
     15 C           1.6161    6.1461    0.6448 C.ar    1  LIG1        0.0964
     16 C           0.6754    7.2193    0.5298 C.ar    1  LIG1        0.1827
     17 C          -0.5863    6.6744    0.6157 C.ar    1  LIG1        0.2144
     18 O          -0.4761    5.3173    0.7408 O.2     1  LIG1       -0.4435
     19 S           3.3730    6.3384    0.6686 S.3     1  LIG1       -0.1353
     20 H           3.2997    7.6459    1.0003 H       1  LIG1        0.1073
     21 O           0.9924    8.5406    0.4043 O.3     1  LIG1       -0.4902
     22 C           1.1785    8.9733   -0.9546 C.3     1  LIG1        0.0790
     23 H           1.4322   10.0330   -0.9033 H       1  LIG1        0.0660
     24 H           1.9919    8.4182   -1.4349 H       1  LIG1        0.0660
     25 H           0.2564    8.8436   -1.5312 H       1  LIG1        0.0660
     26 C          -1.9008    7.2470    0.6055 C.ar    1  LIG1        0.1912
     27 C          -2.3946    8.5017    0.8989 C.ar    1  LIG1        0.0964
     28 C          -3.8038    8.4294    0.6560 C.ar    1  LIG1        0.1827
     29 C          -4.0909    7.1416    0.2653 C.ar    1  LIG1        0.2143
     30 O          -2.9303    6.4219    0.2178 O.2     1  LIG1       -0.4435
     31 S          -1.5485    9.9313    1.5023 S.3     1  LIG1       -0.1353
     32 H          -2.6908   10.5209    1.9170 H       1  LIG1        0.1073
     33 O          -4.6897    9.4530    0.8309 O.3     1  LIG1       -0.4902
     34 C          -4.8724   10.2772   -0.3333 C.3     1  LIG1        0.0790
     35 H          -5.5972   11.0425   -0.0523 H       1  LIG1        0.0660
     36 H          -3.9294   10.7489   -0.6317 H       1  LIG1        0.0660
     37 H          -5.2659    9.6872   -1.1678 H       1  LIG1        0.0660
     38 C          -5.3175    6.4732   -0.0679 C.ar    1  LIG1        0.1902
     39 C          -6.6372    6.6924    0.2611 C.ar    1  LIG1        0.0956
     40 C          -7.3823    5.6677   -0.4227 C.ar    1  LIG1        0.1715
     41 C          -6.4791    4.8997   -1.0957 C.ar    1  LIG1        0.1354
     42 O          -5.2229    5.3817   -0.9004 O.2     1  LIG1       -0.4548
     43 H          -6.5732    4.0160   -1.7058 H       1  LIG1        0.1068
     44 S          -7.3387    7.8992    1.3449 S.3     1  LIG1       -0.1354
     45 H          -8.4859    7.2028    1.4985 H       1  LIG1        0.1073
     46 O          -8.7311    5.4770   -0.3298 O.3     1  LIG1       -0.4908
     47 C          -9.4957    6.2184   -1.2906 C.3     1  LIG1        0.0790
     48 H         -10.5445    5.9944   -1.0876 H       1  LIG1        0.0660
     49 H          -9.3243    7.2964   -1.1903 H       1  LIG1        0.0660
     50 H          -9.2449    5.9083   -2.3118 H       1  LIG1        0.0660
@<TRIPOS>BOND
     1    50    47    1
     2    13    10    1
     3    11    10    1
     4    43    41    1
     5    12    10    1
     6    25    22    1
     7    10     9    1
     8    24    22    1
     9    47    49    1
    10    47    48    1
    11    47    46    1
    12    37    34    1
    13    41    42   ar
    14    41    40   ar
    15    22    23    1
    16    22    21    1
    17    42    38   ar
    18    36    34    1
    19    40    46    1
    20    40    39   ar
    21    34    35    1
    22    34    33    1
    23     9     3    1
    24    38    39   ar
    25    38    29    1
    26    30    29   ar
    27    30    26   ar
    28    39    44    1
    29    29    28   ar
    30    21    16    1
    31     3     4   ar
    32     3     2   ar
    33    16    17   ar
    34    16    15   ar
    35    26    17    1
    36    26    27   ar
    37    17    18   ar
    38    15    19    1
    39    15    14   ar
    40    28    33    1
    41    28    27   ar
    42    19    20    1
    43     7     2    1
    44     7     8    1
    45    18    14   ar
    46    14     4    1
    47     4     5   ar
    48    27    31    1
    49     2     1   ar
    50    44    45    1
    51     5     1   ar
    52    31    32    1
    53     1     6    1
