@<TRIPOS>MOLECULE
mol_data/opt/b3lyp/geoms/mol2/12gl12gl-12gl-12gl-.out
 50 53 0 0 0
SMALL
GASTEIGER

@<TRIPOS>ATOM
      1 C           0.6021    1.4646    0.8484 C.ar    1  LIG1        0.1096
      2 C           1.8545    1.4285    0.3044 C.ar    1  LIG1        0.0852
      3 C           2.1779    2.7992   -0.0126 C.ar    1  LIG1        0.1819
      4 C           1.0994    3.5595    0.3867 C.ar    1  LIG1        0.2133
      5 O           0.1315    2.7303    0.9068 O.2     1  LIG1       -0.4549
      6 H          -0.0524    0.6880    1.2123 H       1  LIG1        0.1042
      7 S           2.7391   -0.0588   -0.0955 S.3     1  LIG1       -0.1361
      8 H           3.5626   -0.0927    0.9764 H       1  LIG1        0.1073
      9 O           3.2507    3.2887   -0.6844 O.3     1  LIG1       -0.4902
     10 C           4.5409    3.0421   -0.1071 C.3     1  LIG1        0.0790
     11 H           5.2557    3.5582   -0.7490 H       1  LIG1        0.0660
     12 H           4.5970    3.4563    0.9055 H       1  LIG1        0.0660
     13 H           4.7713    1.9735   -0.0927 H       1  LIG1        0.0660
     14 C           0.7907    4.9615    0.3299 C.ar    1  LIG1        0.1912
     15 C           1.5436    6.1109    0.2133 C.ar    1  LIG1        0.0964
     16 C           0.6067    7.1925    0.2010 C.ar    1  LIG1        0.1827
     17 C          -0.6510    6.6505    0.3404 C.ar    1  LIG1        0.2144
     18 O          -0.5416    5.2884    0.4019 O.2     1  LIG1       -0.4435
     19 S           3.2979    6.3005    0.1213 S.3     1  LIG1       -0.1353
     20 H           3.2763    7.5578    0.6130 H       1  LIG1        0.1073
     21 O           0.9241    8.5160    0.1106 O.3     1  LIG1       -0.4902
     22 C           1.0622    8.9957   -1.2390 C.3     1  LIG1        0.0790
     23 H           1.3209   10.0524   -1.1595 H       1  LIG1        0.0660
     24 H           1.8553    8.4558   -1.7674 H       1  LIG1        0.0660
     25 H           0.1191    8.8875   -1.7851 H       1  LIG1        0.0660
     26 C          -1.9584    7.2306    0.4360 C.ar    1  LIG1        0.1912
     27 C          -2.4204    8.4729    0.8200 C.ar    1  LIG1        0.0964
     28 C          -3.8418    8.4250    0.6559 C.ar    1  LIG1        0.1827
     29 C          -4.1656    7.1609    0.2190 C.ar    1  LIG1        0.2143
     30 O          -3.0177    6.4346    0.0684 O.2     1  LIG1       -0.4435
     31 S          -1.5239    9.8620    1.4449 S.3     1  LIG1       -0.1353
     32 H          -2.6293   10.4285    1.9758 H       1  LIG1        0.1073
     33 O          -4.7052    9.4452    0.9331 O.3     1  LIG1       -0.4902
     34 C          -4.9345   10.3372   -0.1713 C.3     1  LIG1        0.0790
     35 H          -5.6368   11.0905    0.1882 H       1  LIG1        0.0660
     36 H          -4.0019   10.8178   -0.4874 H       1  LIG1        0.0660
     37 H          -5.3739    9.7997   -1.0183 H       1  LIG1        0.0660
     38 C          -5.4167    6.5209   -0.0760 C.ar    1  LIG1        0.1902
     39 C          -6.7140    6.7379    0.3342 C.ar    1  LIG1        0.0956
     40 C          -7.5077    5.7544   -0.3552 C.ar    1  LIG1        0.1715
     41 C          -6.6521    5.0096   -1.1112 C.ar    1  LIG1        0.1354
     42 O          -5.3811    5.4691   -0.9621 O.2     1  LIG1       -0.4548
     43 H          -6.7899    4.1570   -1.7561 H       1  LIG1        0.1068
     44 S          -7.3417    7.8990    1.5093 S.3     1  LIG1       -0.1354
     45 H          -8.4886    7.2085    1.6897 H       1  LIG1        0.1073
     46 O          -8.8522    5.5742   -0.1986 O.3     1  LIG1       -0.4908
     47 C          -9.6568    6.3643   -1.0850 C.3     1  LIG1        0.0790
     48 H         -10.6963    6.1428   -0.8364 H       1  LIG1        0.0660
     49 H          -9.4667    7.4352   -0.9480 H       1  LIG1        0.0660
     50 H          -9.4638    6.0962   -2.1303 H       1  LIG1        0.0660
@<TRIPOS>BOND
     1    50    47    1
     2    25    22    1
     3    24    22    1
     4    43    41    1
     5    22    23    1
     6    22    21    1
     7    41    42   ar
     8    41    40   ar
     9    47    49    1
    10    47    48    1
    11    47    46    1
    12    37    34    1
    13    42    38   ar
    14    11    10    1
    15     9    10    1
    16     9     3    1
    17    36    34    1
    18    40    46    1
    19    40    39   ar
    20    34    35    1
    21    34    33    1
    22    10    13    1
    23    10    12    1
    24     7     2    1
    25     7     8    1
    26    38    29    1
    27    38    39   ar
    28     3     2   ar
    29     3     4   ar
    30    30    29   ar
    31    30    26   ar
    32    21    16    1
    33    19    15    1
    34    19    20    1
    35    16    15   ar
    36    16    17   ar
    37    15    14   ar
    38    29    28   ar
    39     2     1   ar
    40    14     4    1
    41    14    18   ar
    42    39    44    1
    43    17    18   ar
    44    17    26    1
    45     4     5   ar
    46    26    27   ar
    47    28    27   ar
    48    28    33    1
    49    27    31    1
    50     1     5   ar
    51     1     6    1
    52    31    32    1
    53    44    45    1
