@<TRIPOS>MOLECULE
mol_data/opt/b3lyp/geoms/mol2/12gl.out
 14 14 0 0 0
SMALL
GASTEIGER

@<TRIPOS>ATOM
      1 C          -0.0154    1.9535   -0.0003 C.ar    1  LIG1        0.1085
      2 C           1.3426    1.7877    0.0000 C.ar    1  LIG1        0.0844
      3 C           1.8860    3.1339    0.0002 C.ar    1  LIG1        0.1707
      4 C           0.8077    3.9747   -0.0001 C.ar    1  LIG1        0.1343
      5 O          -0.3547    3.2657   -0.0002 O.2     1  LIG1       -0.4662
      6 H          -0.8281    1.2443   -0.0005 H       1  LIG1        0.1042
      7 H           0.7348    5.0494   -0.0001 H       1  LIG1        0.1068
      8 S           2.0375    0.1404    0.0002 S.3     1  LIG1       -0.1361
      9 H           3.3352    0.4722    0.0011 H       1  LIG1        0.1073
     10 O           3.1485    3.6478    0.0006 O.3     1  LIG1       -0.4909
     11 C           4.2825    2.8002   -0.0002 C.3     1  LIG1        0.0790
     12 H           5.1480    3.4654   -0.0005 H       1  LIG1        0.0660
     13 H           4.3283    2.1729    0.8991 H       1  LIG1        0.0660
     14 H           4.3274    2.1733   -0.8998 H       1  LIG1        0.0660
@<TRIPOS>BOND
     1    14    11    1
     2     6     1    1
     3    12    11    1
     4     1     5   ar
     5     1     2   ar
     6     5     4   ar
     7    11    10    1
     8    11    13    1
     9     4     7    1
    10     4     3   ar
    11     2     8    1
    12     2     3   ar
    13     8     9    1
    14     3    10    1
