@<TRIPOS>MOLECULE
mol_data/opt/b3lyp/geoms/mol2/12gl12gl-12gl.out
 38 40 0 0 0
SMALL
GASTEIGER

@<TRIPOS>ATOM
      1 C           0.3050    1.4508    0.6924 C.ar    1  LIG1        0.1096
      2 C           1.6465    1.4412    0.4407 C.ar    1  LIG1        0.0852
      3 C           2.0259    2.8242    0.3078 C.ar    1  LIG1        0.1819
      4 C           0.8868    3.5693    0.5094 C.ar    1  LIG1        0.2133
      5 O          -0.1710    2.7211    0.7353 O.2     1  LIG1       -0.4549
      6 H          -0.4134    0.6623    0.8524 H       1  LIG1        0.1042
      7 S           2.6551   -0.0018    0.2324 S.3     1  LIG1       -0.1361
      8 H           3.5087    0.2360    1.2516 H       1  LIG1        0.1073
      9 O           3.2696    3.3232    0.0734 O.3     1  LIG1       -0.4902
     10 C           3.7306    3.1830   -1.2810 C.3     1  LIG1        0.0790
     11 H           4.7176    3.6465   -1.3111 H       1  LIG1        0.0660
     12 H           3.8065    2.1283   -1.5625 H       1  LIG1        0.0660
     13 H           3.0589    3.7029   -1.9736 H       1  LIG1        0.0660
     14 C           0.6319    4.9825    0.5409 C.ar    1  LIG1        0.1912
     15 C           1.4174    6.0848    0.8004 C.ar    1  LIG1        0.0964
     16 C           0.5579    7.2195    0.6388 C.ar    1  LIG1        0.1827
     17 C          -0.6954    6.7473    0.3254 C.ar    1  LIG1        0.2143
     18 O          -0.6504    5.3829    0.2481 O.2     1  LIG1       -0.4435
     19 S           3.1166    6.1643    1.2805 S.3     1  LIG1       -0.1353
     20 H           2.9910    7.4075    1.7938 H       1  LIG1        0.1073
     21 O           0.9251    8.5216    0.8174 O.3     1  LIG1       -0.4902
     22 C           1.4350    9.1562   -0.3679 C.3     1  LIG1        0.0790
     23 H           1.6944   10.1755   -0.0787 H       1  LIG1        0.0660
     24 H           2.3251    8.6361   -0.7390 H       1  LIG1        0.0660
     25 H           0.6710    9.1801   -1.1524 H       1  LIG1        0.0660
     26 C          -1.9549    7.3980    0.0935 C.ar    1  LIG1        0.1902
     27 C          -2.4858    8.6056    0.4899 C.ar    1  LIG1        0.0956
     28 C          -3.7953    8.6677   -0.1055 C.ar    1  LIG1        0.1715
     29 C          -3.9741    7.5068   -0.7973 C.ar    1  LIG1        0.1354
     30 O          -2.8623    6.7301   -0.6963 O.2     1  LIG1       -0.4548
     31 H          -4.7993    7.1060   -1.3633 H       1  LIG1        0.1068
     32 S          -1.8027    9.8339    1.5614 S.3     1  LIG1       -0.1354
     33 H          -3.0076   10.3890    1.8155 H       1  LIG1        0.1073
     34 O          -4.6978    9.6764    0.0743 O.3     1  LIG1       -0.4908
     35 C          -4.5673   10.7538   -0.8636 C.3     1  LIG1        0.0790
     36 H          -5.3248   11.4912   -0.5921 H       1  LIG1        0.0660
     37 H          -3.5728   11.2116   -0.8087 H       1  LIG1        0.0660
     38 H          -4.7458   10.4035   -1.8870 H       1  LIG1        0.0660
@<TRIPOS>BOND
     1    13    10    1
     2    38    35    1
     3    12    10    1
     4    31    29    1
     5    11    10    1
     6    10     9    1
     7    25    22    1
     8    35    37    1
     9    35    36    1
    10    35    34    1
    11    29    30   ar
    12    29    28   ar
    13    24    22    1
    14    30    26   ar
    15    22    23    1
    16    22    21    1
    17    28    34    1
    18    28    27   ar
    19     9     3    1
    20    26    17    1
    21    26    27   ar
    22     7     2    1
    23     7     8    1
    24    18    17   ar
    25    18    14   ar
    26     3     2   ar
    27     3     4   ar
    28    17    16   ar
    29     2     1   ar
    30    27    32    1
    31     4    14    1
    32     4     5   ar
    33    14    15   ar
    34    16    15   ar
    35    16    21    1
    36     1     5   ar
    37     1     6    1
    38    15    19    1
    39    19    20    1
    40    32    33    1
