@<TRIPOS>MOLECULE
mol_data/opt/b3lyp/geoms/mol2/12gl12gl12gl-.out
 38 40 0 0 0
SMALL
GASTEIGER

@<TRIPOS>ATOM
      1 C           0.1792    1.5248    0.0738 C.ar    1  LIG1        0.1096
      2 C           1.5106    1.4722   -0.2260 C.ar    1  LIG1        0.0852
      3 C           1.9529    2.8462   -0.2656 C.ar    1  LIG1        0.1819
      4 C           0.8534    3.6212    0.0354 C.ar    1  LIG1        0.2133
      5 O          -0.2348    2.8015    0.2342 O.2     1  LIG1       -0.4549
      6 H          -0.5688    0.7557    0.1871 H       1  LIG1        0.1042
      7 S           2.3851   -0.0061   -0.6781 S.3     1  LIG1       -0.1361
      8 H           2.9838   -0.2531    0.5089 H       1  LIG1        0.1073
      9 O           3.1596    3.3419   -0.6404 O.3     1  LIG1       -0.4902
     10 C           4.2936    2.9189    0.1298 C.3     1  LIG1        0.0790
     11 H           5.1492    3.4551   -0.2823 H       1  LIG1        0.0660
     12 H           4.1674    3.1901    1.1837 H       1  LIG1        0.0660
     13 H           4.4581    1.8427    0.0321 H       1  LIG1        0.0660
     14 C           0.6236    5.0364    0.1326 C.ar    1  LIG1        0.1912
     15 C           1.4322    6.1353    0.3288 C.ar    1  LIG1        0.0964
     16 C           0.5604    7.2713    0.3057 C.ar    1  LIG1        0.1827
     17 C          -0.7207    6.8040    0.1280 C.ar    1  LIG1        0.2143
     18 O          -0.6830    5.4424    0.0053 O.2     1  LIG1       -0.4435
     19 S           3.1786    6.2135    0.5873 S.3     1  LIG1       -0.1353
     20 H           3.1178    7.3892    1.2484 H       1  LIG1        0.1073
     21 O           0.9443    8.5688    0.4790 O.3     1  LIG1       -0.4902
     22 C           1.3450    9.2304   -0.7340 C.3     1  LIG1        0.0790
     23 H           1.6256   10.2448   -0.4470 H       1  LIG1        0.0660
     24 H           2.1998    8.7225   -1.1937 H       1  LIG1        0.0660
     25 H           0.5142    9.2664   -1.4466 H       1  LIG1        0.0660
     26 C          -1.9997    7.4541    0.0632 C.ar    1  LIG1        0.1902
     27 C          -2.4830    8.6489    0.5492 C.ar    1  LIG1        0.0956
     28 C          -3.8533    8.7191    0.1130 C.ar    1  LIG1        0.1715
     29 C          -4.1097    7.5748   -0.5818 C.ar    1  LIG1        0.1354
     30 O          -2.9921    6.8015   -0.6313 O.2     1  LIG1       -0.4548
     31 H          -4.9946    7.1839   -1.0575 H       1  LIG1        0.1068
     32 S          -1.6813    9.8544    1.5632 S.3     1  LIG1       -0.1354
     33 H          -2.8495   10.3926    1.9760 H       1  LIG1        0.1073
     34 O          -4.7306    9.7190    0.4216 O.3     1  LIG1       -0.4908
     35 C          -4.7123   10.8187   -0.4993 C.3     1  LIG1        0.0790
     36 H          -5.4362   11.5450   -0.1255 H       1  LIG1        0.0660
     37 H          -3.7195   11.2810   -0.5479 H       1  LIG1        0.0660
     38 H          -5.0055   10.4907   -1.5034 H       1  LIG1        0.0660
@<TRIPOS>BOND
     1    38    35    1
     2    25    22    1
     3    24    22    1
     4    31    29    1
     5    22    23    1
     6    22    21    1
     7     7     2    1
     8     7     8    1
     9     9     3    1
    10     9    10    1
    11    30    29   ar
    12    30    26   ar
    13    29    28   ar
    14    37    35    1
    15    35    36    1
    16    35    34    1
    17    11    10    1
    18     3     2   ar
    19     3     4   ar
    20     2     1   ar
    21    18    17   ar
    22    18    14   ar
    23    13    10    1
    24     4    14    1
    25     4     5   ar
    26    26    17    1
    27    26    27   ar
    28     1     6    1
    29     1     5   ar
    30    28    34    1
    31    28    27   ar
    32    17    16   ar
    33    10    12    1
    34    14    15   ar
    35    16    15   ar
    36    16    21    1
    37    15    19    1
    38    27    32    1
    39    19    20    1
    40    32    33    1
