@<TRIPOS>MOLECULE
mol_data/opt/b3lyp/geoms/mol2/12gl12gl-12gl12gl.out
 50 53 0 0 0
SMALL
GASTEIGER

@<TRIPOS>ATOM
      1 C           0.7895    1.4934    1.4262 C.ar    1  LIG1        0.1096
      2 C           2.0232    1.4837    0.8426 C.ar    1  LIG1        0.0852
      3 C           2.2755    2.8442    0.4456 C.ar    1  LIG1        0.1819
      4 C           1.1807    3.5810    0.8353 C.ar    1  LIG1        0.2133
      5 O           0.2647    2.7457    1.4277 O.2     1  LIG1       -0.4549
      6 H           0.1815    0.7174    1.8638 H       1  LIG1        0.1042
      7 S           3.0324    0.0549    0.5571 S.3     1  LIG1       -0.1361
      8 H           4.1219    0.4816    1.2311 H       1  LIG1        0.1073
      9 O           3.3922    3.3308   -0.1613 O.3     1  LIG1       -0.4902
     10 C           3.4700    3.0675   -1.5724 C.3     1  LIG1        0.0790
     11 H           4.4022    3.5211   -1.9119 H       1  LIG1        0.0660
     12 H           3.4870    1.9912   -1.7706 H       1  LIG1        0.0660
     13 H           2.6248    3.5269   -2.0973 H       1  LIG1        0.0660
     14 C           0.8567    4.9773    0.7452 C.ar    1  LIG1        0.1912
     15 C           1.6153    6.1248    0.6527 C.ar    1  LIG1        0.0964
     16 C           0.6774    7.2024    0.5580 C.ar    1  LIG1        0.1827
     17 C          -0.5858    6.6589    0.6308 C.ar    1  LIG1        0.2144
     18 O          -0.4791    5.2993    0.7284 O.2     1  LIG1       -0.4435
     19 S           3.3727    6.3122    0.6831 S.3     1  LIG1       -0.1353
     20 H           3.3022    7.6127    1.0415 H       1  LIG1        0.1073
     21 O           0.9978    8.5251    0.4599 O.3     1  LIG1       -0.4902
     22 C           1.1870    8.9850   -0.8896 C.3     1  LIG1        0.0790
     23 H           1.4431   10.0429   -0.8163 H       1  LIG1        0.0660
     24 H           1.9999    8.4379   -1.3799 H       1  LIG1        0.0660
     25 H           0.2655    8.8693   -1.4701 H       1  LIG1        0.0660
     26 C          -1.8989    7.2347    0.6300 C.ar    1  LIG1        0.1912
     27 C          -2.3904    8.4845    0.9471 C.ar    1  LIG1        0.0964
     28 C          -3.7994    8.4201    0.7007 C.ar    1  LIG1        0.1827
     29 C          -4.0888    7.1408    0.2845 C.ar    1  LIG1        0.2143
     30 O          -2.9297    6.4196    0.2247 O.2     1  LIG1       -0.4435
     31 S          -1.5422    9.9001    1.5796 S.3     1  LIG1       -0.1353
     32 H          -2.6840   10.4844    2.0032 H       1  LIG1        0.1073
     33 O          -4.6833    9.4421    0.8941 O.3     1  LIG1       -0.4902
     34 C          -4.8622   10.2892   -0.2541 C.3     1  LIG1        0.0790
     35 H          -5.5857   11.0506    0.0407 H       1  LIG1        0.0660
     36 H          -3.9177   10.7644   -0.5419 H       1  LIG1        0.0660
     37 H          -5.2559    9.7165   -1.1005 H       1  LIG1        0.0660
     38 C          -5.3163    6.4819   -0.0636 C.ar    1  LIG1        0.1902
     39 C          -6.6359    6.6973    0.2684 C.ar    1  LIG1        0.0956
     40 C          -7.3824    5.6883   -0.4368 C.ar    1  LIG1        0.1715
     41 C          -6.4802    4.9320   -1.1241 C.ar    1  LIG1        0.1354
     42 O          -5.2231    5.4073   -0.9178 O.2     1  LIG1       -0.4548
     43 H          -6.5754    4.0610   -1.7521 H       1  LIG1        0.1068
     44 S          -7.3358    7.8837    1.3755 S.3     1  LIG1       -0.1354
     45 H          -8.4842    7.1862    1.5153 H       1  LIG1        0.1073
     46 O          -8.7317    5.4985   -0.3493 O.3     1  LIG1       -0.4908
     47 C          -9.4938    6.2612   -1.2953 C.3     1  LIG1        0.0790
     48 H         -10.5433    6.0348   -1.0985 H       1  LIG1        0.0660
     49 H          -9.3208    7.3366   -1.1721 H       1  LIG1        0.0660
     50 H          -9.2421    5.9722   -2.3225 H       1  LIG1        0.0660
@<TRIPOS>BOND
     1    50    47    1
     2    13    10    1
     3    11    10    1
     4    12    10    1
     5    43    41    1
     6    10     9    1
     7    25    22    1
     8    24    22    1
     9    47    49    1
    10    47    48    1
    11    47    46    1
    12    41    42   ar
    13    41    40   ar
    14    37    34    1
    15    42    38   ar
    16    22    23    1
    17    22    21    1
    18    36    34    1
    19    40    46    1
    20    40    39   ar
    21    34    35    1
    22    34    33    1
    23     9     3    1
    24    38    39   ar
    25    38    29    1
    26    30    29   ar
    27    30    26   ar
    28    39    44    1
    29    29    28   ar
    30     3     4   ar
    31     3     2   ar
    32    21    16    1
    33     7     2    1
    34     7     8    1
    35    16    17   ar
    36    16    15   ar
    37    26    17    1
    38    26    27   ar
    39    17    18   ar
    40    15    19    1
    41    15    14   ar
    42    19    20    1
    43    28    33    1
    44    28    27   ar
    45    18    14   ar
    46    14     4    1
    47     4     5   ar
    48     2     1   ar
    49    27    31    1
    50    44    45    1
    51     1     5   ar
    52     1     6    1
    53    31    32    1
