@<TRIPOS>MOLECULE
mol_data/opt/b3lyp/geoms/mol2/12gl12gl12gl.out
 38 40 0 0 0
SMALL
GASTEIGER

@<TRIPOS>ATOM
      1 C           0.1932    1.5267    0.0994 C.ar    1  LIG1        0.1096
      2 C           1.5192    1.4751   -0.2237 C.ar    1  LIG1        0.0852
      3 C           1.9572    2.8499   -0.2809 C.ar    1  LIG1        0.1819
      4 C           0.8614    3.6244    0.0343 C.ar    1  LIG1        0.2133
      5 O          -0.2210    2.8035    0.2584 O.2     1  LIG1       -0.4549
      6 H          -0.5507    0.7566    0.2314 H       1  LIG1        0.1042
      7 S           2.3897   -0.0042   -0.6807 S.3     1  LIG1       -0.1361
      8 H           3.0075   -0.2427    0.4982 H       1  LIG1        0.1073
      9 O           3.1559    3.3456   -0.6806 O.3     1  LIG1       -0.4902
     10 C           4.3043    2.9309    0.0726 C.3     1  LIG1        0.0790
     11 H           5.1513    3.4659   -0.3584 H       1  LIG1        0.0660
     12 H           4.1960    3.2098    1.1265 H       1  LIG1        0.0660
     13 H           4.4696    1.8544   -0.0200 H       1  LIG1        0.0660
     14 C           0.6298    5.0397    0.1257 C.ar    1  LIG1        0.1912
     15 C           1.4390    6.1419    0.2993 C.ar    1  LIG1        0.0964
     16 C           0.5639    7.2756    0.2839 C.ar    1  LIG1        0.1827
     17 C          -0.7190    6.8038    0.1328 C.ar    1  LIG1        0.2143
     18 O          -0.6799    5.4416    0.0193 O.2     1  LIG1       -0.4435
     19 S           3.1895    6.2262    0.5253 S.3     1  LIG1       -0.1353
     20 H           3.1378    7.4061    1.1797 H       1  LIG1        0.1073
     21 O           0.9474    8.5753    0.4409 O.3     1  LIG1       -0.4902
     22 C           1.3250    9.2290   -0.7837 C.3     1  LIG1        0.0790
     23 H           1.6083   10.2460   -0.5090 H       1  LIG1        0.0660
     24 H           2.1727    8.7198   -1.2549 H       1  LIG1        0.0660
     25 H           0.4816    9.2582   -1.4817 H       1  LIG1        0.0660
     26 C          -2.0007    7.4501    0.0866 C.ar    1  LIG1        0.1902
     27 C          -2.4782    8.6477    0.5718 C.ar    1  LIG1        0.0956
     28 C          -3.8567    8.7106    0.1608 C.ar    1  LIG1        0.1715
     29 C          -4.1228    7.5598   -0.5198 C.ar    1  LIG1        0.1354
     30 O          -3.0041    6.7892   -0.5837 O.2     1  LIG1       -0.4548
     31 H          -5.0152    7.1626   -0.9756 H       1  LIG1        0.1068
     32 S          -1.6614    9.8638    1.5605 S.3     1  LIG1       -0.1354
     33 H          -2.8233   10.4032    1.9892 H       1  LIG1        0.1073
     34 O          -4.7308    9.7107    0.4774 O.3     1  LIG1       -0.4908
     35 C          -4.7336   10.8021   -0.4534 C.3     1  LIG1        0.0790
     36 H          -5.4523   11.5297   -0.0720 H       1  LIG1        0.0660
     37 H          -3.7434   11.2668   -0.5254 H       1  LIG1        0.0660
     38 H          -5.0454   10.4645   -1.4486 H       1  LIG1        0.0660
@<TRIPOS>BOND
     1    25    22    1
     2    38    35    1
     3    24    22    1
     4    31    29    1
     5    22    23    1
     6    22    21    1
     7     7     2    1
     8     7     8    1
     9     9     3    1
    10     9    10    1
    11    30    29   ar
    12    30    26   ar
    13    37    35    1
    14    29    28   ar
    15    35    36    1
    16    35    34    1
    17    11    10    1
    18     3     2   ar
    19     3     4   ar
    20     2     1   ar
    21    13    10    1
    22    18    14   ar
    23    18    17   ar
    24     4    14    1
    25     4     5   ar
    26    10    12    1
    27    26    17    1
    28    26    27   ar
    29     1     6    1
    30     1     5   ar
    31    14    15   ar
    32    17    16   ar
    33    28    34    1
    34    28    27   ar
    35    16    15   ar
    36    16    21    1
    37    15    19    1
    38    19    20    1
    39    27    32    1
    40    32    33    1
