@<TRIPOS>MOLECULE
mol_data/opt/b3lyp/geoms/mol2/12gl12gl-12gl-12gl.out
 50 53 0 0 0
SMALL
GASTEIGER

@<TRIPOS>ATOM
      1 C           0.6009    1.4588    0.8232 C.ar    1  LIG1        0.1096
      2 C           1.8515    1.4244    0.2749 C.ar    1  LIG1        0.0852
      3 C           2.1748    2.7964   -0.0367 C.ar    1  LIG1        0.1819
      4 C           1.0981    3.5555    0.3699 C.ar    1  LIG1        0.2133
      5 O           0.1314    2.7244    0.8893 O.2     1  LIG1       -0.4549
      6 H          -0.0529    0.6809    1.1856 H       1  LIG1        0.1042
      7 S           2.7335   -0.0616   -0.1350 S.3     1  LIG1       -0.1361
      8 H           3.5606   -0.1012    0.9340 H       1  LIG1        0.1073
      9 O           3.2456    3.2885   -0.7097 O.3     1  LIG1       -0.4902
     10 C           4.5377    3.0377   -0.1386 C.3     1  LIG1        0.0790
     11 H           5.2506    3.5566   -0.7804 H       1  LIG1        0.0660
     12 H           4.5980    3.4465    0.8760 H       1  LIG1        0.0660
     13 H           4.7672    1.9689   -0.1307 H       1  LIG1        0.0660
     14 C           0.7903    4.9580    0.3207 C.ar    1  LIG1        0.1912
     15 C           1.5438    6.1073    0.2085 C.ar    1  LIG1        0.0964
     16 C           0.6078    7.1898    0.2038 C.ar    1  LIG1        0.1827
     17 C          -0.6500    6.6480    0.3430 C.ar    1  LIG1        0.2144
     18 O          -0.5415    5.2855    0.3972 O.2     1  LIG1       -0.4435
     19 S           3.2982    6.2957    0.1138 S.3     1  LIG1       -0.1353
     20 H           3.2791    7.5501    0.6127 H       1  LIG1        0.1073
     21 O           0.9259    8.5135    0.1198 O.3     1  LIG1       -0.4902
     22 C           1.0621    9.0000   -1.2275 C.3     1  LIG1        0.0790
     23 H           1.3220   10.0561   -1.1431 H       1  LIG1        0.0660
     24 H           1.8537    8.4622   -1.7603 H       1  LIG1        0.0660
     25 H           0.1178    8.8957   -1.7725 H       1  LIG1        0.0660
     26 C          -1.9568    7.2284    0.4444 C.ar    1  LIG1        0.1912
     27 C          -2.4172    8.4689    0.8360 C.ar    1  LIG1        0.0964
     28 C          -3.8389    8.4230    0.6745 C.ar    1  LIG1        0.1827
     29 C          -4.1644    7.1614    0.2315 C.ar    1  LIG1        0.2143
     30 O          -3.0174    6.4352    0.0746 O.2     1  LIG1       -0.4435
     31 S          -1.5184    9.8541    1.4665 S.3     1  LIG1       -0.1353
     32 H          -2.6221   10.4180    2.0035 H       1  LIG1        0.1073
     33 O          -4.7011    9.4421    0.9591 O.3     1  LIG1       -0.4902
     34 C          -4.9316   10.3406   -0.1399 C.3     1  LIG1        0.0790
     35 H          -5.6325   11.0925    0.2252 H       1  LIG1        0.0660
     36 H          -3.9991   10.8222   -0.4549 H       1  LIG1        0.0660
     37 H          -5.3730    9.8083   -0.9891 H       1  LIG1        0.0660
     38 C          -5.4166    6.5238   -0.0646 C.ar    1  LIG1        0.1902
     39 C          -6.7130    6.7394    0.3491 C.ar    1  LIG1        0.0956
     40 C          -7.5085    5.7598   -0.3438 C.ar    1  LIG1        0.1715
     41 C          -6.6546    5.0184   -1.1051 C.ar    1  LIG1        0.1354
     42 O          -5.3832    5.4764   -0.9561 O.2     1  LIG1       -0.4548
     43 H          -6.7941    4.1691   -1.7541 H       1  LIG1        0.1068
     44 S          -7.3380    7.8951    1.5311 S.3     1  LIG1       -0.1354
     45 H          -8.4858    7.2053    1.7084 H       1  LIG1        0.1073
     46 O          -8.8528    5.5798   -0.1856 O.3     1  LIG1       -0.4908
     47 C          -9.6584    6.3738   -1.0676 C.3     1  LIG1        0.0790
     48 H         -10.6976    6.1521   -0.8182 H       1  LIG1        0.0660
     49 H          -9.4673    7.4441   -0.9269 H       1  LIG1        0.0660
     50 H          -9.4673    6.1095   -2.1142 H       1  LIG1        0.0660
@<TRIPOS>BOND
     1    50    47    1
     2    25    22    1
     3    24    22    1
     4    43    41    1
     5    22    23    1
     6    22    21    1
     7    41    42   ar
     8    41    40   ar
     9    47    49    1
    10    47    48    1
    11    47    46    1
    12    37    34    1
    13    42    38   ar
    14    11    10    1
    15     9    10    1
    16     9     3    1
    17    36    34    1
    18    40    46    1
    19    40    39   ar
    20    34    35    1
    21    34    33    1
    22    10    13    1
    23    10    12    1
    24     7     2    1
    25     7     8    1
    26    38    29    1
    27    38    39   ar
    28     3     2   ar
    29     3     4   ar
    30    30    29   ar
    31    30    26   ar
    32    19    15    1
    33    19    20    1
    34    21    16    1
    35    16    15   ar
    36    16    17   ar
    37    15    14   ar
    38    29    28   ar
    39     2     1   ar
    40    14     4    1
    41    14    18   ar
    42    17    18   ar
    43    17    26    1
    44    39    44    1
    45     4     5   ar
    46    26    27   ar
    47    28    27   ar
    48    28    33    1
    49     1     5   ar
    50     1     6    1
    51    27    31    1
    52    31    32    1
    53    44    45    1
