@<TRIPOS>MOLECULE
mol_data/opt/b3lyp/geoms/mol2/12gl12gl12gl12gl.out
 50 53 0 0 0
SMALL
GASTEIGER

@<TRIPOS>ATOM
      1 C           0.5965    1.4746    0.8950 C.ar    1  LIG1        0.1096
      2 C           1.8485    1.4294    0.3508 C.ar    1  LIG1        0.0852
      3 C           2.1736    2.7953    0.0149 C.ar    1  LIG1        0.1819
      4 C           1.0963    3.5624    0.4046 C.ar    1  LIG1        0.2133
      5 O           0.1276    2.7416    0.9365 O.2     1  LIG1       -0.4549
      6 H          -0.0588    0.7039    1.2699 H       1  LIG1        0.1042
      7 S           2.7306   -0.0644   -0.0296 S.3     1  LIG1       -0.1361
      8 H           3.5552   -0.0847    1.0419 H       1  LIG1        0.1073
      9 O           3.2464    3.2743   -0.6642 O.3     1  LIG1       -0.4902
     10 C           4.5368    3.0335   -0.0850 C.3     1  LIG1        0.0790
     11 H           5.2518    3.5392   -0.7349 H       1  LIG1        0.0660
     12 H           4.5948    3.4619    0.9216 H       1  LIG1        0.0660
     13 H           4.7653    1.9649   -0.0556 H       1  LIG1        0.0660
     14 C           0.7893    4.9639    0.3285 C.ar    1  LIG1        0.1912
     15 C           1.5436    6.1106    0.1967 C.ar    1  LIG1        0.0964
     16 C           0.6081    7.1932    0.1697 C.ar    1  LIG1        0.1827
     17 C          -0.6503    6.6546    0.3160 C.ar    1  LIG1        0.2144
     18 O          -0.5425    5.2933    0.3959 O.2     1  LIG1       -0.4435
     19 S           3.2983    6.2963    0.1027 S.3     1  LIG1       -0.1353
     20 H           3.2787    7.5599    0.5782 H       1  LIG1        0.1073
     21 O           0.9270    8.5150    0.0618 O.3     1  LIG1       -0.4902
     22 C           1.0670    8.9761   -1.2940 C.3     1  LIG1        0.0790
     23 H           1.3275   10.0334   -1.2287 H       1  LIG1        0.0660
     24 H           1.8596    8.4279   -1.8146 H       1  LIG1        0.0660
     25 H           0.1241    8.8623   -1.8394 H       1  LIG1        0.0660
     26 C          -1.9571    7.2373    0.4033 C.ar    1  LIG1        0.1912
     27 C          -2.4179    8.4851    0.7703 C.ar    1  LIG1        0.0964
     28 C          -3.8394    8.4365    0.6064 C.ar    1  LIG1        0.1827
     29 C          -4.1642    7.1669    0.1867 C.ar    1  LIG1        0.2143
     30 O          -3.0170    6.4375    0.0462 O.2     1  LIG1       -0.4435
     31 S          -1.5202    9.8818    1.3765 S.3     1  LIG1       -0.1353
     32 H          -2.6251   10.4562    1.8998 H       1  LIG1        0.1073
     33 O          -4.7018    9.4612    0.8697 O.3     1  LIG1       -0.4902
     34 C          -4.9299   10.3383   -0.2469 C.3     1  LIG1        0.0790
     35 H          -5.6310   11.0975    0.1024 H       1  LIG1        0.0660
     36 H          -3.9966   10.8131   -0.5697 H       1  LIG1        0.0660
     37 H          -5.3703    9.7898   -1.0864 H       1  LIG1        0.0660
     38 C          -5.4159    6.5240   -0.0998 C.ar    1  LIG1        0.1902
     39 C          -6.7131    6.7477    0.3069 C.ar    1  LIG1        0.0956
     40 C          -7.5074    5.7550   -0.3686 C.ar    1  LIG1        0.1715
     41 C          -6.6520    4.9989   -1.1137 C.ar    1  LIG1        0.1354
     42 O          -5.3808    5.4595   -0.9709 O.2     1  LIG1       -0.4548
     43 H          -6.7903    4.1372   -1.7465 H       1  LIG1        0.1068
     44 S          -7.3405    7.9260    1.4651 S.3     1  LIG1       -0.1354
     45 H          -8.4888    7.2399    1.6531 H       1  LIG1        0.1073
     46 O          -8.8520    5.5782   -0.2098 O.3     1  LIG1       -0.4908
     47 C          -9.6556    6.3551   -1.1087 C.3     1  LIG1        0.0790
     48 H         -10.6953    6.1384   -0.8572 H       1  LIG1        0.0660
     49 H          -9.4646    7.4279   -0.9883 H       1  LIG1        0.0660
     50 H          -9.4624    6.0706   -2.1496 H       1  LIG1        0.0660
@<TRIPOS>BOND
     1    50    47    1
     2    25    22    1
     3    24    22    1
     4    43    41    1
     5    22    23    1
     6    22    21    1
     7    41    42   ar
     8    41    40   ar
     9    47    49    1
    10    47    48    1
    11    47    46    1
    12    37    34    1
    13    42    38   ar
    14    11    10    1
    15     9    10    1
    16     9     3    1
    17    36    34    1
    18    40    46    1
    19    40    39   ar
    20    34    35    1
    21    34    33    1
    22    38    29    1
    23    38    39   ar
    24    10    13    1
    25    10    12    1
    26     7     2    1
    27     7     8    1
    28     3     2   ar
    29     3     4   ar
    30    30    29   ar
    31    30    26   ar
    32    21    16    1
    33    19    15    1
    34    19    20    1
    35    16    15   ar
    36    16    17   ar
    37    29    28   ar
    38    15    14   ar
    39    39    44    1
    40    17    18   ar
    41    17    26    1
    42    14    18   ar
    43    14     4    1
    44     2     1   ar
    45    26    27   ar
    46     4     5   ar
    47    28    27   ar
    48    28    33    1
    49    27    31    1
    50     1     5   ar
    51     1     6    1
    52    31    32    1
    53    44    45    1
