@<TRIPOS>MOLECULE
mol_data/opt/b3lyp/geoms/mol2/12hd12hd-12hd-12hd.out
 42 45 0 0 0
SMALL
GASTEIGER

@<TRIPOS>ATOM
      1 C           0.0592    1.7290   -0.0438 C.ar    1  LIG1        0.1146
      2 C           1.4181    1.6897    0.0472 C.ar    1  LIG1        0.0812
      3 C           1.8580    3.0713    0.0605 C.ar    1  LIG1        0.1211
      4 C           0.7105    3.8523   -0.0206 C.ar    1  LIG1        0.1907
      5 O          -0.3791    3.0490   -0.0802 O.2     1  LIG1       -0.4565
      6 H          -0.7108    0.9771   -0.0666 H       1  LIG1        0.1049
      7 N           2.2631    0.5986    0.1852 N.pl3   1  LIG1       -0.3545
      8 H           1.8935   -0.2756   -0.1619 H       1  LIG1        0.1424
      9 H           3.2080    0.7600   -0.1386 H       1  LIG1        0.1424
     10 N           4.3150    3.8351    0.1710 N.1     1  LIG1       -0.1907
     11 C           3.1950    3.5118    0.1255 C.1     1  LIG1        0.1049
     12 C           0.4853    5.2504   -0.0633 C.ar    1  LIG1        0.1938
     13 C          -0.6697    6.0046   -0.1637 C.ar    1  LIG1        0.0925
     14 C          -0.2408    7.3778   -0.2011 C.ar    1  LIG1        0.1219
     15 C           1.1582    7.3716   -0.1022 C.ar    1  LIG1        0.1918
     16 O           1.5895    6.0916   -0.0212 O.2     1  LIG1       -0.4453
     17 N          -1.9661    5.5710   -0.1766 N.pl3   1  LIG1       -0.3539
     18 H          -2.6608    6.2016   -0.5485 H       1  LIG1        0.1425
     19 H          -2.1153    4.5911   -0.3651 H       1  LIG1        0.1425
     20 N          -1.8224    9.3831   -0.5382 N.1     1  LIG1       -0.1907
     21 C          -1.0988    8.4799   -0.3785 C.1     1  LIG1        0.1050
     22 C           2.1514    8.3793   -0.0629 C.ar    1  LIG1        0.1939
     23 C           2.1597    9.7699    0.0625 C.ar    1  LIG1        0.0925
     24 C           3.5460   10.1600    0.0667 C.ar    1  LIG1        0.1219
     25 C           4.2953    8.9926   -0.0447 C.ar    1  LIG1        0.1917
     26 O           3.4744    7.9252   -0.1230 O.2     1  LIG1       -0.4453
     27 N           1.1397   10.6488    0.2207 N.pl3   1  LIG1       -0.3539
     28 H           1.3641   11.6317    0.1789 H       1  LIG1        0.1425
     29 H           0.1855   10.3948    0.0105 H       1  LIG1        0.1425
     30 N           4.2677   12.6261    0.2555 N.1     1  LIG1       -0.1907
     31 C           3.9895   11.4973    0.1702 C.1     1  LIG1        0.1050
     32 C           5.6849    8.7375   -0.0925 C.ar    1  LIG1        0.1928
     33 C           6.4223    7.5606   -0.2079 C.ar    1  LIG1        0.0917
     34 C           7.8065    7.9871   -0.1915 C.ar    1  LIG1        0.1107
     35 C           7.7951    9.3545   -0.0722 C.ar    1  LIG1        0.1119
     36 O           6.5449    9.8238   -0.0122 O.2     1  LIG1       -0.4566
     37 H           8.5926   10.0795   -0.0201 H       1  LIG1        0.1043
     38 N           5.9926    6.2901   -0.3501 N.pl3   1  LIG1       -0.3540
     39 H           5.0281    6.0373   -0.1909 H       1  LIG1        0.1425
     40 H           6.6498    5.5310   -0.2570 H       1  LIG1        0.1425
     41 N           9.8316    6.3950   -0.3540 N.1     1  LIG1       -0.1907
     42 C           8.9347    7.1335   -0.2804 C.1     1  LIG1        0.1042
@<TRIPOS>BOND
     1    18    17    1
     2    20    21    3
     3    21    14    1
     4    19    17    1
     5    41    42    3
     6    38    40    1
     7    38    33    1
     8    38    39    1
     9    42    34    1
    10    33    34   ar
    11    33    32   ar
    12    14    13   ar
    13    14    15   ar
    14    34    35   ar
    15    17    13    1
    16    13    12   ar
    17     8     7    1
    18     9     7    1
    19    26    22   ar
    20    26    25   ar
    21    15    22    1
    22    15    16   ar
    23    32    25    1
    24    32    36   ar
    25     5     1   ar
    26     5     4   ar
    27    35    37    1
    28    35    36   ar
    29     6     1    1
    30    12    16   ar
    31    12     4    1
    32    22    23   ar
    33    25    24   ar
    34     1     2   ar
    35     4     3   ar
    36    29    27    1
    37     2     3   ar
    38     2     7    1
    39     3    11    1
    40    23    24   ar
    41    23    27    1
    42    24    31    1
    43    11    10    3
    44    31    30    3
    45    28    27    1
