@<TRIPOS>MOLECULE
mol_data/opt/b3lyp/geoms/mol2/12hd12hd-4hd12hd.out
 45 48 0 0 0
SMALL
GASTEIGER

@<TRIPOS>ATOM
      1 C          -0.0438    1.6613   -0.2489 C.ar    1  LIG1        0.1146
      2 C           1.3168    1.5799   -0.2281 C.ar    1  LIG1        0.0812
      3 C           1.7957    2.9456   -0.1516 C.ar    1  LIG1        0.1211
      4 C           0.6692    3.7594   -0.1251 C.ar    1  LIG1        0.1907
      5 O          -0.4441    2.9908   -0.1809 O.2     1  LIG1       -0.4565
      6 H          -0.8356    0.9329   -0.2851 H       1  LIG1        0.1049
      7 N           2.1341    0.4604   -0.2000 N.pl3   1  LIG1       -0.3545
      8 H           1.7180   -0.3834   -0.5690 H       1  LIG1        0.1424
      9 H           3.0640    0.6115   -0.5686 H       1  LIG1        0.1424
     10 N           4.2616    3.6921   -0.0842 N.1     1  LIG1       -0.1907
     11 C           3.1432    3.3589   -0.1118 C.1     1  LIG1        0.1049
     12 C           0.4785    5.1635   -0.0578 C.ar    1  LIG1        0.1937
     13 C          -0.6594    5.9480   -0.0053 C.ar    1  LIG1        0.0924
     14 C          -0.1944    7.3089    0.0503 C.ar    1  LIG1        0.1188
     15 C           1.2004    7.2790    0.0241 C.ar    1  LIG1        0.1568
     16 O           1.5970    5.9817   -0.0365 O.2     1  LIG1       -0.4484
     17 N          -1.9625    5.5513    0.0522 N.pl3   1  LIG1       -0.3539
     18 H          -2.6712    6.2393   -0.1541 H       1  LIG1        0.1425
     19 H          -2.1726    4.5960   -0.1917 H       1  LIG1        0.1425
     20 N          -1.8739    9.2590    0.1993 N.1     1  LIG1       -0.1907
     21 C          -1.0770    8.4103    0.1379 C.1     1  LIG1        0.1049
     22 C           3.6025    8.0647    0.2968 C.ar    1  LIG1        0.0361
     23 C           4.4864    9.1647    0.3084 C.ar    1  LIG1       -0.0284
     24 C           2.2134    8.3149    0.0339 C.ar    1  LIG1        0.0405
     25 C           4.0863   10.4775    0.0633 C.ar    1  LIG1        0.0382
     26 H           5.5204    8.9732    0.5777 H       1  LIG1        0.0644
     27 C           1.8202    9.6416   -0.2130 C.ar    1  LIG1       -0.0312
     28 C           2.7053   10.7174   -0.2098 C.ar    1  LIG1        0.0633
     29 H           0.7823    9.8523   -0.4395 H       1  LIG1        0.0638
     30 N           4.1008    6.8358    0.5949 N.pl3   1  LIG1       -0.3574
     31 H           3.5799    5.9920    0.4233 H       1  LIG1        0.1423
     32 H           5.0986    6.7237    0.6749 H       1  LIG1        0.1423
     33 N           1.7296   13.0328   -0.8550 N.1     1  LIG1       -0.1908
     34 C           2.1908   12.0081   -0.5511 C.1     1  LIG1        0.0999
     35 C           5.0833   11.5294    0.0780 C.ar    1  LIG1        0.1579
     36 C           6.4420   11.5352   -0.1761 C.ar    1  LIG1        0.0886
     37 C           6.8757   12.8981    0.0198 C.ar    1  LIG1        0.1106
     38 C           5.7566   13.6117    0.3718 C.ar    1  LIG1        0.1118
     39 O           4.6852   12.8148    0.4069 O.2     1  LIG1       -0.4597
     40 H           5.6036   14.6529    0.6090 H       1  LIG1        0.1043
     41 N           7.2715   10.4828   -0.5224 N.pl3   1  LIG1       -0.3540
     42 H           6.8281    9.7534   -1.0664 H       1  LIG1        0.1425
     43 H           8.1566   10.7696   -0.9223 H       1  LIG1        0.1425
     44 N           9.3029   13.7087   -0.3170 N.1     1  LIG1       -0.1907
     45 C           8.2000   13.3737   -0.1525 C.1     1  LIG1        0.1042
@<TRIPOS>BOND
     1    42    41    1
     2    43    41    1
     3    33    34    3
     4     8     7    1
     5     9     7    1
     6    34    28    1
     7    41    36    1
     8    29    27    1
     9    44    45    3
    10     6     1    1
    11     1     2   ar
    12     1     5   ar
    13     2     7    1
    14     2     3   ar
    15    27    28   ar
    16    27    24   ar
    17    28    25   ar
    18    19    17    1
    19     5     4   ar
    20    36    37   ar
    21    36    35   ar
    22    18    17    1
    23    45    37    1
    24     3     4   ar
    25     3    11    1
    26     4    12    1
    27    11    10    3
    28    12    16   ar
    29    12    13   ar
    30    16    15   ar
    31    13    14   ar
    32    13    17    1
    33    37    38   ar
    34    15    24    1
    35    15    14   ar
    36    24    22   ar
    37    14    21    1
    38    25    35    1
    39    25    23   ar
    40    35    39   ar
    41    21    20    3
    42    22    23   ar
    43    22    30    1
    44    23    26    1
    45    38    39   ar
    46    38    40    1
    47    31    30    1
    48    30    32    1
