@<TRIPOS>MOLECULE
mol_data/opt/b3lyp/geoms/mol2/12hd.out
 12 12 0 0 0
SMALL
GASTEIGER

@<TRIPOS>ATOM
      1 C           0.1147    1.8921   -0.0360 C.ar    1  LIG1        0.1136
      2 C           1.4801    1.8650   -0.0520 C.ar    1  LIG1        0.0804
      3 C           1.8901    3.2551   -0.0073 C.ar    1  LIG1        0.1100
      4 C           0.7372    3.9978    0.0352 C.ar    1  LIG1        0.1109
      5 O          -0.3366    3.1951    0.0201 O.2     1  LIG1       -0.4678
      6 H          -0.6446    1.1284   -0.0457 H       1  LIG1        0.1049
      7 H           0.5593    5.0609    0.0726 H       1  LIG1        0.1043
      8 N           2.3480    0.7808   -0.0328 N.pl3   1  LIG1       -0.3545
      9 H           1.9700   -0.0732   -0.4197 H       1  LIG1        0.1424
     10 H           3.2678    0.9814   -0.4039 H       1  LIG1        0.1424
     11 N           4.3404    4.0682   -0.0495 N.1     1  LIG1       -0.1907
     12 C           3.2271    3.7277   -0.0238 C.1     1  LIG1        0.1042
@<TRIPOS>BOND
     1     9     8    1
     2    10     8    1
     3     2     1   ar
     4     2     8    1
     5     2     3   ar
     6    11    12    3
     7     6     1    1
     8     1     5   ar
     9    12     3    1
    10     3     4   ar
    11     5     4   ar
    12     4     7    1
