@<TRIPOS>MOLECULE
mol_data/opt/b3lyp/geoms/mol2/12hd12hd-12hd.out
 32 34 0 0 0
SMALL
GASTEIGER

@<TRIPOS>ATOM
      1 C           0.1530    1.7692   -0.1295 C.ar    1  LIG1        0.1146
      2 C           1.5158    1.7688   -0.0985 C.ar    1  LIG1        0.0812
      3 C           1.9136    3.1615   -0.0574 C.ar    1  LIG1        0.1211
      4 C           0.7401    3.9075   -0.0630 C.ar    1  LIG1        0.1907
      5 O          -0.3267    3.0754   -0.1026 O.2     1  LIG1       -0.4565
      6 H          -0.5940    0.9943   -0.1461 H       1  LIG1        0.1049
      7 N           2.3968    0.6990   -0.0326 N.pl3   1  LIG1       -0.3545
      8 H           2.0310   -0.1766   -0.3807 H       1  LIG1        0.1424
      9 H           3.3164    0.8931   -0.4071 H       1  LIG1        0.1424
     10 N           4.3142    4.0970    0.0021 N.1     1  LIG1       -0.1907
     11 C           3.2282    3.6694   -0.0212 C.1     1  LIG1        0.1049
     12 C           0.4879    5.3009   -0.0462 C.ar    1  LIG1        0.1938
     13 C          -0.6743    6.0523   -0.0323 C.ar    1  LIG1        0.0925
     14 C          -0.2583    7.4320   -0.0319 C.ar    1  LIG1        0.1219
     15 C           1.1347    7.4266   -0.0409 C.ar    1  LIG1        0.1917
     16 O           1.5882    6.1521   -0.0478 O.2     1  LIG1       -0.4453
     17 N          -1.9649    5.6118    0.0282 N.pl3   1  LIG1       -0.3539
     18 H          -2.6895    6.2662   -0.2271 H       1  LIG1        0.1425
     19 H          -2.1352    4.6438   -0.1978 H       1  LIG1        0.1425
     20 N          -1.9355    9.3885   -0.0522 N.1     1  LIG1       -0.1907
     21 C          -1.1425    8.5342   -0.0386 C.1     1  LIG1        0.1050
     22 C           2.1203    8.4424   -0.0455 C.ar    1  LIG1        0.1928
     23 C           3.5124    8.3995   -0.0841 C.ar    1  LIG1        0.0917
     24 C           3.9258    9.7878   -0.0608 C.ar    1  LIG1        0.1107
     25 C           2.7790   10.5405   -0.0136 C.ar    1  LIG1        0.1119
     26 O           1.6926    9.7612   -0.0042 O.2     1  LIG1       -0.4566
     27 H           2.6171   11.6067    0.0166 H       1  LIG1        0.1043
     28 N           4.3459    7.3394   -0.1587 N.pl3   1  LIG1       -0.3540
     29 H           4.0199    6.3854   -0.0843 H       1  LIG1        0.1425
     30 H           5.3396    7.4898   -0.0889 H       1  LIG1        0.1425
     31 N           6.3843   10.5723   -0.1012 N.1     1  LIG1       -0.1907
     32 C           5.2667   10.2466   -0.0830 C.1     1  LIG1        0.1042
@<TRIPOS>BOND
     1     9     7    1
     2     8     7    1
     3    18    17    1
     4    19    17    1
     5    28    30    1
     6    28    29    1
     7    28    23    1
     8     6     1    1
     9     1     5   ar
    10     1     2   ar
    11     5     4   ar
    12    31    32    3
    13     2     3   ar
    14     2     7    1
    15    23    24   ar
    16    23    22   ar
    17    32    24    1
    18     4     3   ar
    19     4    12    1
    20    24    25   ar
    21     3    11    1
    22    20    21    3
    23    16    12   ar
    24    16    15   ar
    25    12    13   ar
    26    22    15    1
    27    22    26   ar
    28    15    14   ar
    29    21    14    1
    30    13    14   ar
    31    13    17    1
    32    11    10    3
    33    25    26   ar
    34    25    27    1
