@<TRIPOS>MOLECULE
mol_data/opt/b3lyp/geoms/mol2/12hd12hd-.out
 22 23 0 0 0
SMALL
GASTEIGER

@<TRIPOS>ATOM
      1 C           0.1582    1.8345   -0.1137 C.ar    1  LIG1        0.1146
      2 C           1.5205    1.7934   -0.0728 C.ar    1  LIG1        0.0812
      3 C           1.9607    3.1737   -0.0246 C.ar    1  LIG1        0.1211
      4 C           0.8144    3.9519   -0.0345 C.ar    1  LIG1        0.1907
      5 O          -0.2781    3.1521   -0.0867 O.2     1  LIG1       -0.4565
      6 H          -0.6125    1.0833   -0.1394 H       1  LIG1        0.1049
      7 N           2.3716    0.7015   -0.0085 N.pl3   1  LIG1       -0.3545
      8 H           2.0074   -0.1540   -0.4041 H       1  LIG1        0.1424
      9 H           3.3152    0.8914   -0.3203 H       1  LIG1        0.1424
     10 N           4.4469    3.8536    0.0097 N.1     1  LIG1       -0.1907
     11 C           3.3118    3.5883    0.0015 C.1     1  LIG1        0.1049
     12 C           0.5728    5.3558   -0.0150 C.ar    1  LIG1        0.1928
     13 C          -0.5971    6.0944   -0.0345 C.ar    1  LIG1        0.0917
     14 C          -0.1743    7.4765   -0.0178 C.ar    1  LIG1        0.1107
     15 C           1.1986    7.4640    0.0148 C.ar    1  LIG1        0.1119
     16 O           1.6621    6.2070    0.0190 O.2     1  LIG1       -0.4566
     17 H           1.9303    8.2562    0.0353 H       1  LIG1        0.1043
     18 N          -1.8923    5.6510   -0.0073 N.pl3   1  LIG1       -0.3540
     19 H          -2.6015    6.2941   -0.3274 H       1  LIG1        0.1425
     20 H          -2.0431    4.6814   -0.2428 H       1  LIG1        0.1425
     21 N          -1.7840    9.4936   -0.0745 N.1     1  LIG1       -0.1907
     22 C          -1.0350    8.6029   -0.0433 C.1     1  LIG1        0.1042
@<TRIPOS>BOND
     1     8     7    1
     2    19    18    1
     3     9     7    1
     4    20    18    1
     5     6     1    1
     6     1     5   ar
     7     1     2   ar
     8     5     4   ar
     9    21    22    3
    10     2     3   ar
    11     2     7    1
    12    22    14    1
    13    13    14   ar
    14    13    12   ar
    15    13    18    1
    16     4     3   ar
    17     4    12    1
    18     3    11    1
    19    14    15   ar
    20    12    16   ar
    21    11    10    3
    22    15    16   ar
    23    15    17    1
